@<TRIPOS>MOLECULE
3R540
247   249    1
SMALL
USER_CHARGES


@<TRIPOS>ATOM
      1 CA          0.3503  -11.3038  -47.4528 C.3       0 UNK        -0.1800 
      2 C           1.1310  -12.5882  -47.6912 C.2       0 UNK         0.5000 
      3 O           2.3519  -12.6052  -47.5280 O.2       0 UNK        -0.5000 
      4 N           0.4346  -13.6670  -48.0680 N.am      1 UNK        -0.5000 
      5 CA          0.9865  -15.0050  -48.3145 C.3       1 UNK         0.1400 
      6 C6          0.1029  -15.8099  -49.2970 C.3       23 UNK        -0.0398 
      7 S7          0.1165  -15.0872  -50.9723 S.3       23 UNK        -0.2404 
      8 C8          1.5918  -15.8743  -51.7062 C.3       23 UNK        -0.0205 
      9 C9          1.4347  -17.3821  -51.8379 C.ar      23 UNK        -0.0193 
     10 C10         0.4897  -17.9058  -52.7223 C.ar      23 UNK        -0.1150 
     11 C11         0.3022  -19.2846  -52.8251 C.ar      23 UNK        -0.0193 
     12 C12         1.0671  -20.1415  -52.0304 C.ar      23 UNK        -0.1150 
     13 C13         2.0289  -19.6383  -51.1483 C.ar      23 UNK        -0.0193 
     14 C14         2.2219  -18.2523  -51.0750 C.ar      23 UNK        -0.1150 
     15 C15         2.8498  -20.6356  -50.3271 C.3       23 UNK        -0.0205 
     16 S16         3.4980  -20.0543  -48.7174 S.3       23 UNK        -0.2404 
     17 C17         2.0644  -19.3098  -47.8705 C.3       23 UNK        -0.0398 
     18 CA          0.9921  -20.3014  -47.3548 C.3       11 UNK         0.1400 
     19 N           0.3906  -19.8366  -46.1000 N.am      11 UNK        -0.5000 
     20 C          -0.3839  -20.5970  -45.3133 C.2       10 UNK         0.5000 
     21 O          -0.6223  -21.7823  -45.5390 O.2       10 UNK        -0.5000 
     22 CA         -1.0415  -19.9278  -44.0936 C.3       10 UNK         0.1400 
     23 CB         -0.2651  -20.2311  -42.8104 C.3       10 UNK        -0.1800 
     24 N          -1.2232  -18.4824  -44.2208 N.am      10 UNK        -0.5000 
     25 C          -2.0810  -17.9085  -45.0773 C.2       9 UNK         0.5000 
     26 O          -2.7002  -18.5450  -45.9318 O.2       9 UNK        -0.5000 
     27 CA         -2.2997  -16.3898  -44.9529 C.3       9 UNK         0.1400 
     28 CB         -3.7949  -16.0289  -44.9827 C.3       9 UNK        -0.1800 
     29 N          -1.7019  -15.8539  -43.7260 N.am      9 UNK        -0.5000 
     30 C          -0.9255  -14.7675  -43.6733 C.2       8 UNK         0.5000 
     31 O          -0.6787  -14.0592  -44.6494 O.2       8 UNK        -0.5000 
     32 CA         -0.3121  -14.3866  -42.3116 C.3       8 UNK         0.1400 
     33 CB         -1.0063  -13.1363  -41.7491 C.3       8 UNK        -0.1800 
     34 N          -0.3075  -15.4189  -41.2699 N.am      8 UNK        -0.5000 
     35 C           0.3434  -16.5921  -41.2801 C.2       7 UNK         0.5000 
     36 O           0.8536  -17.0965  -42.2831 O.2       7 UNK        -0.5000 
     37 CA          0.4773  -17.2705  -39.9040 C.3       7 UNK         0.1400 
     38 CB          1.4150  -18.4917  -39.9079 C.3       7 UNK        -0.1800 
     39 N           0.9990  -16.2796  -38.9639 N.am      7 UNK        -0.5000 
     40 C           0.4491  -15.9323  -37.7931 C.2       6 UNK         0.5000 
     41 O          -0.5687  -16.4603  -37.3429 O.2       6 UNK        -0.5000 
     42 CA          1.1112  -14.7700  -37.0144 C.3       6 UNK         0.1400 
     43 CB          1.0908  -14.9913  -35.4870 C.3       6 UNK        -0.1800 
     44 N           2.4570  -14.4153  -37.4890 N.am      6 UNK        -0.5000 
     45 C           3.5672  -15.1616  -37.4112 C.2       5 UNK         0.5000 
     46 O           3.6355  -16.2539  -36.8434 O.2       5 UNK        -0.5000 
     47 CA          4.8100  -14.6036  -38.1318 C.3       5 UNK         0.1400 
     48 CB          5.8511  -14.1024  -37.1194 C.3       5 UNK        -0.1800 
     49 N           5.4189  -15.6201  -38.9911 N.am      5 UNK        -0.5000 
     50 C           4.8027  -16.2026  -40.0274 C.2       4 UNK         0.5000 
     51 O           3.6937  -15.8530  -40.4476 O.2       4 UNK        -0.5000 
     52 CA          5.5314  -17.3901  -40.6769 C.3       4 UNK         0.1400 
     53 CB          5.6616  -18.5626  -39.6815 C.3       4 UNK        -0.1800 
     54 N           4.7674  -17.8060  -41.8469 N.am      4 UNK        -0.5000 
     55 C           5.1460  -18.6707  -42.7953 C.2       3 UNK         0.5000 
     56 O           6.2526  -19.2094  -42.8315 O.2       3 UNK        -0.5000 
     57 CA          4.1081  -18.9939  -43.8865 C.3       3 UNK         0.1400 
     58 CB          3.3357  -20.2679  -43.5166 C.3       3 UNK        -0.1800 
     59 N           3.1710  -17.8829  -44.0821 N.am      3 UNK        -0.5000 
     60 C           3.4123  -16.8679  -44.9195 C.2       2 UNK         0.5000 
     61 O           4.3636  -16.8293  -45.7033 O.2       2 UNK        -0.5000 
     62 CA          2.4577  -15.6714  -44.8340 C.3       2 UNK         0.1400 
     63 CB          3.0970  -14.5313  -44.0268 C.3       2 UNK        -0.1800 
     64 N           2.1033  -15.1748  -46.1543 N.am      2 UNK        -0.5000 
     65 C           1.2251  -15.7480  -46.9823 C.2       1 UNK         0.5000 
     66 O           0.6089  -16.7846  -46.7169 O.2       1 UNK        -0.5000 
     67 C          -0.1054  -20.5566  -48.4103 C.2       11 UNK         0.5000 
     68 O          -0.1087  -21.6057  -49.0543 O.2       11 UNK        -0.5000 
     69 N          -1.0550  -19.6151  -48.5203 N.am      12 UNK        -0.5000 
     70 CA         -2.2178  -19.7329  -49.3986 C.3       12 UNK         0.1400 
     71 CB         -2.8948  -18.3643  -49.5548 C.3       12 UNK        -0.1800 
     72 C          -3.2140  -20.7964  -48.9050 C.2       12 UNK         0.5000 
     73 O          -3.7813  -21.5195  -49.7227 O.2       12 UNK        -0.5000 
     74 N          -3.3776  -20.9162  -47.5787 N.am      13 UNK        -0.5000 
     75 CA         -4.1855  -21.9620  -46.9468 C.3       13 UNK         0.1400 
     76 CB         -4.2832  -21.7183  -45.4349 C.3       13 UNK        -0.1800 
     77 C          -3.6498  -23.3770  -47.2399 C.2       13 UNK         0.5000 
     78 O          -4.4363  -24.2664  -47.5694 O.2       13 UNK        -0.5000 
     79 N          -2.3200  -23.5418  -47.1683 N.am      14 UNK        -0.5000 
     80 CA         -1.6060  -24.7745  -47.5080 C.3       14 UNK         0.1400 
     81 CB         -0.1296  -24.6441  -47.1055 C.3       14 UNK        -0.1800 
     82 C          -1.7332  -25.1688  -48.9920 C.2       14 UNK         0.5000 
     83 O          -1.7204  -26.3613  -49.2999 O.2       14 UNK        -0.5000 
     84 N          -1.9191  -24.1834  -49.8816 N.am      15 UNK        -0.5000 
     85 CA         -2.2213  -24.3622  -51.3044 C.3       15 UNK         0.1400 
     86 CB         -1.7832  -23.1044  -52.0740 C.3       15 UNK        -0.1800 
     87 C          -3.7058  -24.7261  -51.5388 C.2       15 UNK         0.5000 
     88 O          -4.3871  -24.0829  -52.3404 O.2       15 UNK        -0.5000 
     89 N          -4.1709  -25.7575  -50.8178 N.am      16 UNK        -0.5000 
     90 CA         -5.5029  -26.3675  -50.8490 C.3       16 UNK         0.1400 
     91 CB         -5.6590  -27.2199  -52.1242 C.3       16 UNK        -0.1800 
     92 C          -6.6509  -25.3576  -50.6402 C.2       16 UNK         0.5000 
     93 O          -7.6333  -25.3782  -51.3830 O.2       16 UNK        -0.5000 
     94 N          -6.4951  -24.4909  -49.6275 N.am      17 UNK        -0.5000 
     95 CA         -7.4014  -23.3967  -49.2636 C.3       17 UNK         0.1400 
     96 CB         -8.7527  -23.9416  -48.7537 C.3       17 UNK        -0.1800 
     97 C          -7.5438  -22.3564  -50.3944 C.2       17 UNK         0.5000 
     98 O          -8.6612  -21.9925  -50.7660 O.2       17 UNK        -0.5000 
     99 N          -6.3919  -21.9057  -50.9127 N.am      18 UNK        -0.5000 
    100 CA        -6.2147  -20.9421  -52.0007 C.3       18 UNK         0.1400 
    101 CB        -6.6718  -19.5374  -51.5569 C.3       18 UNK        -0.1800 
    102 C         -6.8662  -21.4137  -53.3178 C.2       18 UNK         0.5000 
    103 O         -7.6823  -20.6990  -53.9029 O.2       18 UNK        -0.5000 
    104 N         -6.5133  -22.6323  -53.7447 N.am      19 UNK        -0.5000 
    105 CA        -7.0304  -23.2590  -54.9595 C.3       19 UNK         0.1400 
    106 CB        -6.7671  -24.7695  -54.8928 C.3       19 UNK        -0.1800 
    107 C         -6.4048  -22.6768  -56.2396 C.2       19 UNK         0.5000 
    108 O         -5.2279  -22.3050  -56.2413 O.2       19 UNK        -0.5000 
    109 N         -7.1967  -22.6798  -57.3220 N.am      20 UNK        -0.5000 
    110 CA        -6.8256  -22.3261  -58.6962 C.3       20 UNK         0.1400 
    111 CB        -5.9741  -23.4598  -59.3123 C.3       20 UNK        -0.1800 
    112 C         -6.1804  -20.9265  -58.7931 C.2       20 UNK         0.5000 
    113 O         -6.7957  -19.9481  -58.3640 O.2       20 UNK        -0.5000 
    114 N         -4.9511  -20.8540  -59.3225 N.am      21 UNK        -0.5000 
    115 CA        -4.1536  -19.6347  -59.4833 C.3       21 UNK         0.1400 
    116 CB        -2.8823  -19.9776  -60.2754 C.3       21 UNK        -0.1800 
    117 C         -3.7914  -18.9291  -58.1598 C.2       21 UNK         0.5000 
    118 O         -3.4653  -17.7415  -58.1848 O.2       21 UNK        -0.5000 
    119 N         -3.8683  -19.6530  -57.0351 N.am      22 UNK        -0.5000 
    120 CA        -3.7495  -19.0994  -55.6799 C.3       22 UNK         0.1400 
    121 C         -5.0087  -18.3050  -55.2113 C.2       22 UNK         0.5000 
    122 N         -6.1474  -18.3868  -55.8914 N.am      22 UNK        -0.7600 
    123 O         -4.9470  -17.5736  -54.2283 O.2       22 UNK        -0.5000 
    124 C124       -3.3403  -20.2077  -54.6748 C.3       23 UNK        -0.0398 
    125 S125       -2.4163  -19.5742  -53.2381 S.3       23 UNK        -0.2404 
    126 C126       -0.7121  -19.8412  -53.8098 C.3       23 UNK        -0.0205 
    127 H127       -0.7132  -11.4326  -47.6557 H         1 UNK         0.0600 
    128 H128        0.4620  -10.9861  -46.4161 H         1 UNK         0.0600 
    129 H129        0.7266  -10.5098  -48.0978 H         1 UNK         0.0600 
    130 H130       -0.5679  -13.5906  -48.1598 H         1 UNK         0.3000 
    131 H131        1.9699  -14.8951  -48.7765 H         1 UNK         0.0600 
    132 H132        0.4196  -16.8488  -49.3643 H         1 UNK         0.0800 
    133 H133       -0.9278  -15.8393  -48.9407 H         1 UNK         0.0800 
    134 H134        2.4710  -15.6238  -51.1110 H         1 UNK         0.0800 
    135 H135        1.7623  -15.4477  -52.6956 H         1 UNK         0.0800 
    136 H136       -0.1124  -17.2373  -53.3219 H         1 UNK         0.1150 
    137 H137        0.9202  -21.2094  -52.1049 H         1 UNK         0.1150 
    138 H138        2.9711  -17.8461  -50.4109 H         1 UNK         0.1150 
    139 H139        2.2659  -21.5386  -50.1465 H         1 UNK         0.0800 
    140 H140        3.6985  -20.9500  -50.9354 H         1 UNK         0.0800 
    141 H141        1.6289  -18.5283  -48.4873 H         1 UNK         0.0800 
    142 H142        2.4986  -18.7813  -47.0216 H         1 UNK         0.0800 
    143 H143        1.4788  -21.2560  -47.1427 H         1 UNK         0.0600 
    144 H144        0.4906  -18.8517  -45.8865 H         1 UNK         0.3000 
    145 H145       -2.0315  -20.3699  -43.9812 H         1 UNK         0.0600 
    146 H146       -0.8343  -19.9298  -41.9311 H         1 UNK         0.0600 
    147 H147       -0.0536  -21.2969  -42.7128 H         1 UNK         0.0600 
    148 H148        0.6829  -19.6999  -42.7958 H         1 UNK         0.0600 
    149 H149       -0.6763  -17.8980  -43.6012 H         1 UNK         0.3000 
    150 H150       -1.8268  -15.9488  -45.8322 H         1 UNK         0.0600 
    151 H151       -4.2665  -16.3738  -45.9038 H         1 UNK         0.0600 
    152 H152       -3.9391  -14.9496  -44.9318 H         1 UNK         0.0600 
    153 H153       -4.3327  -16.4793  -44.1477 H         1 UNK         0.0600 
    154 H154       -1.8824  -16.3614  -42.8717 H         1 UNK         0.3000 
    155 H155        0.7300  -14.1285  -42.4992 H         1 UNK         0.0600 
    156 H156       -2.0486  -13.3359  -41.4974 H         1 UNK         0.0600 
    157 H157       -0.9941  -12.3195  -42.4723 H         1 UNK         0.0600 
    158 H158       -0.5054  -12.7759  -40.8504 H         1 UNK         0.0600 
    159 H159       -0.7056  -15.1326  -40.3875 H         1 UNK         0.3000 
    160 H160       -0.5202  -17.6008  -39.6082 H         1 UNK         0.0600 
    161 H161        1.5649  -18.8737  -38.8980 H         1 UNK         0.0600 
    162 H162        2.3945  -18.2512  -40.3183 H         1 UNK         0.0600 
    163 H163        1.0016  -19.3066  -40.4977 H         1 UNK         0.0600 
    164 H164        1.8362  -15.7986  -39.2731 H         1 UNK         0.3000 
    165 H165        0.4914  -13.8959  -37.2184 H         1 UNK         0.0600 
    166 H166        1.5640  -14.1621  -34.9612 H         1 UNK         0.0600 
    167 H167        0.0676  -15.0656  -35.1170 H         1 UNK         0.0600 
    168 H168        1.6047  -15.9090  -35.2005 H         1 UNK         0.0600 
    169 H169        2.5133  -13.5359  -37.9847 H         1 UNK         0.3000 
    170 H170        4.5126  -13.7645  -38.7644 H         1 UNK         0.0600 
    171 H171        5.4287  -13.3286  -36.4771 H         1 UNK         0.0600 
    172 H172        6.2054  -14.9072  -36.4739 H         1 UNK         0.0600 
    173 H173        6.7158  -13.6698  -37.6230 H         1 UNK         0.0600 
    174 H174        6.3124  -15.9801  -38.6898 H         1 UNK         0.3000 
    175 H175        6.5207  -17.0575  -40.9965 H         1 UNK         0.0600 
    176 H176        4.6844  -18.9115  -39.3455 H         1 UNK         0.0600 
    177 H177        6.1837  -19.4108  -40.1235 H         1 UNK         0.0600 
    178 H178        6.2270  -18.2723  -38.7955 H         1 UNK         0.0600 
    179 H179        3.8621  -17.3571  -41.9090 H         1 UNK         0.3000 
    180 H180        4.6453  -19.1919  -44.8167 H         1 UNK         0.0600 
    181 H181        2.8692  -20.1846  -42.5348 H         1 UNK         0.0600 
    182 H182        4.0062  -21.1273  -43.4811 H         1 UNK         0.0600 
    183 H183        2.5633  -20.4928  -44.2512 H         1 UNK         0.0600 
    184 H184        2.3739  -17.8249  -43.4559 H         1 UNK         0.3000 
    185 H185        1.5377  -15.9807  -44.3458 H         1 UNK         0.0600 
    186 H186        3.2638  -14.8336  -42.9923 H         1 UNK         0.0600 
    187 H187        4.0606  -14.2343  -44.4430 H         1 UNK         0.0600 
    188 H188        2.4587  -13.6480  -44.0125 H         1 UNK         0.0600 
    189 H189        2.5433  -14.3119  -46.4551 H         1 UNK         0.3000 
    190 H190       -1.0249  -18.8132  -47.9069 H         1 UNK         0.3000 
    191 H191       -1.8637  -20.0484  -50.3817 H         1 UNK         0.0600 
    192 H192       -3.2168  -17.9571  -48.5959 H         1 UNK         0.0600 
    193 H193       -3.7743  -18.4379  -50.1958 H         1 UNK         0.0600 
    194 H194       -2.2198  -17.6470  -50.0212 H         1 UNK         0.0600 
    195 H195       -2.9364  -20.2353  -46.9689 H         1 UNK         0.3000 
    196 H196       -5.1904  -21.8838  -47.3620 H         1 UNK         0.0600 
    197 H197       -5.0367  -22.3688  -44.9895 H         1 UNK         0.0600 
    198 H198       -4.5664  -20.6895  -45.2112 H         1 UNK         0.0600 
    199 H199       -3.3406  -21.9306  -44.9329 H         1 UNK         0.0600 
    200 H200       -1.7473  -22.7702  -46.8400 H         1 UNK         0.3000 
    201 H201       -2.0462  -25.5818  -46.9194 H         1 UNK         0.0600 
    202 H202       -0.0277  -24.4640  -46.0352 H         1 UNK         0.0600 
    203 H203        0.3613  -23.8248  -47.6307 H         1 UNK         0.0600 
    204 H204        0.4209  -25.5576  -47.3342 H         1 UNK         0.0600 
    205 H205       -1.9301  -23.2307  -49.5416 H         1 UNK         0.3000 
    206 H206       -1.6278  -25.1965  -51.6833 H         1 UNK         0.0600 
    207 H207       -1.9235  -23.2312  -53.1481 H         1 UNK         0.0600 
    208 H208       -2.3539  -22.2272  -51.7728 H         1 UNK         0.0600 
    209 H209       -0.7285  -22.8900  -51.9059 H         1 UNK         0.0600 
    210 H210       -3.5090  -26.1917  -50.1829 H         1 UNK         0.3000 
    211 H211       -5.5482  -27.0467  -49.9966 H         1 UNK         0.0600 
    212 H212       -5.5691  -26.6159  -53.0254 H         1 UNK         0.0600 
    213 H213       -6.6290  -27.7176  -52.1533 H         1 UNK         0.0600 
    214 H214       -4.8966  -27.9975  -52.1701 H         1 UNK         0.0600 
    215 H215       -5.6522  -24.5556  -49.0624 H         1 UNK         0.3000 
    216 H216       -6.9342  -22.8764  -48.4289 H         1 UNK         0.0600 
    217 H217       -9.3759  -23.1342  -48.3676 H         1 UNK         0.0600 
    218 H218       -8.6083  -24.6554  -47.9427 H         1 UNK         0.0600 
    219 H219       -9.3177  -24.4391  -49.5422 H         1 UNK         0.0600 
    220 H220       -5.5204  -22.2509  -50.5239 H         1 UNK         0.3000 
    221 H221       -5.1407  -20.8925  -52.1819 H         1 UNK         0.0600 
    222 H222       -7.7451  -19.4977  -51.3701 H         1 UNK         0.0600 
    223 H223       -6.1601  -19.2279  -50.6458 H         1 UNK         0.0600 
    224 H224       -6.4469  -18.7956  -52.3231 H         1 UNK         0.0600 
    225 H225       -5.8125  -23.1560  -53.2248 H         1 UNK         0.3000 
    226 H226       -8.1106  -23.1017  -54.9934 H         1 UNK         0.0600 
    227 H227       -7.1348  -25.2750  -55.7866 H         1 UNK         0.0600 
    228 H228       -5.7011  -24.9848  -54.8082 H         1 UNK         0.0600 
    229 H229       -7.2733  -25.2174  -54.0386 H         1 UNK         0.0600 
    230 H230       -8.1550  -22.9774  -57.2051 H         1 UNK         0.3000 
    231 H231       -7.7556  -22.2671  -59.2633 H         1 UNK         0.0600 
    232 H232       -6.5060  -24.4104  -59.2683 H         1 UNK         0.0600 
    233 H233       -5.0259  -23.5925  -58.7898 H         1 UNK         0.0600 
    234 H234       -5.7572  -23.2684  -60.3640 H         1 UNK         0.0600 
    235 H235       -4.5152  -21.7131  -59.6248 H         1 UNK         0.3000 
    236 H236       -4.7442  -18.9298  -60.0719 H         1 UNK         0.0600 
    237 H237       -2.2754  -19.0875  -60.4468 H         1 UNK         0.0600 
    238 H238       -2.2616  -20.7007  -59.7448 H         1 UNK         0.0600 
    239 H239       -3.1256  -20.3951  -61.2527 H         1 UNK         0.0600 
    240 H240       -4.1832  -20.6150  -57.0906 H         1 UNK         0.3000 
    241 H241       -2.9352  -18.3729  -55.7131 H         1 UNK         0.0600 
    242 H242       -6.2349  -18.9716  -56.7155 H         1 UNK         0.3800 
    243 H243       -6.9473  -17.8669  -55.5690 H         1 UNK         0.3800 
    244 H244       -4.2127  -20.7552  -54.3233 H         1 UNK         0.0800 
    245 H245       -2.7191  -20.9569  -55.1680 H         1 UNK         0.0800 
    246 H246       -0.5473  -20.9082  -53.9671 H         1 UNK         0.0800 
    247 H247       -0.5743  -19.3591  -54.7789 H         1 UNK         0.0800 
@<TRIPOS>BOND
     1    1    2 1    
     2    1  127 1    
     3    1  128 1    
     4    1  129 1    
     5    2    3 2    
     6    2    4 am   BACKBONE|DICT|INTERRES
     7    4    5 1    
     8    4  130 1    
     9    5    6 1    
    10    5   65 1    
    11    5  131 1    
    12    6    7 1    
    13    6  132 1    
    14    6  133 1    
    15    7    8 1    
    16    8    9 1    
    17    8  134 1    
    18    8  135 1    
    19    9   10 ar   
    20    9   14 ar   
    21   10   11 ar   
    22   10  136 1    
    23   11   12 ar   
    24   11  126 1    
    25   12   13 ar   
    26   12  137 1    
    27   13   14 ar   
    28   13   15 1    
    29   14  138 1    
    30   15   16 1    
    31   15  139 1    
    32   15  140 1    
    33   16   17 1    
    34   17   18 1    
    35   17  141 1    
    36   17  142 1    
    37   18   19 1    
    38   18   67 1    
    39   18  143 1    
    40   19   20 am   BACKBONE|DICT|INTERRES
    41   19  144 1    
    42   20   21 2    
    43   20   22 1    
    44   22   23 1    
    45   22   24 1    
    46   22  145 1    
    47   23  146 1    
    48   23  147 1    
    49   23  148 1    
    50   24   25 am   BACKBONE|DICT|INTERRES
    51   24  149 1    
    52   25   26 2    
    53   25   27 1    
    54   27   28 1    
    55   27   29 1    
    56   27  150 1    
    57   28  151 1    
    58   28  152 1    
    59   28  153 1    
    60   29   30 am   BACKBONE|DICT|INTERRES
    61   29  154 1    
    62   30   31 2    
    63   30   32 1    
    64   32   33 1    
    65   32   34 1    
    66   32  155 1    
    67   33  156 1    
    68   33  157 1    
    69   33  158 1    
    70   34   35 am   BACKBONE|DICT|INTERRES
    71   34  159 1    
    72   35   36 2    
    73   35   37 1    
    74   37   38 1    
    75   37   39 1    
    76   37  160 1    
    77   38  161 1    
    78   38  162 1    
    79   38  163 1    
    80   39   40 am   BACKBONE|DICT|INTERRES
    81   39  164 1    
    82   40   41 2    
    83   40   42 1    
    84   42   43 1    
    85   42   44 1    
    86   42  165 1    
    87   43  166 1    
    88   43  167 1    
    89   43  168 1    
    90   44   45 am   BACKBONE|DICT|INTERRES
    91   44  169 1    
    92   45   46 2    
    93   45   47 1    
    94   47   48 1    
    95   47   49 1    
    96   47  170 1    
    97   48  171 1    
    98   48  172 1    
    99   48  173 1    
   100   49   50 am   BACKBONE|DICT|INTERRES
   101   49  174 1    
   102   50   51 2    
   103   50   52 1    
   104   52   53 1    
   105   52   54 1    
   106   52  175 1    
   107   53  176 1    
   108   53  177 1    
   109   53  178 1    
   110   54   55 am   BACKBONE|DICT|INTERRES
   111   54  179 1    
   112   55   56 2    
   113   55   57 1    
   114   57   58 1    
   115   57   59 1    
   116   57  180 1    
   117   58  181 1    
   118   58  182 1    
   119   58  183 1    
   120   59   60 am   BACKBONE|DICT|INTERRES
   121   59  184 1    
   122   60   61 2    
   123   60   62 1    
   124   62   63 1    
   125   62   64 1    
   126   62  185 1    
   127   63  186 1    
   128   63  187 1    
   129   63  188 1    
   130   64   65 am   BACKBONE|DICT|INTERRES
   131   64  189 1    
   132   65   66 2    
   133   67   68 2    
   134   67   69 am   BACKBONE|DICT|INTERRES
   135   69   70 1    
   136   69  190 1    
   137   70   71 1    
   138   70   72 1    
   139   70  191 1    
   140   71  192 1    
   141   71  193 1    
   142   71  194 1    
   143   72   73 2    
   144   72   74 am   BACKBONE|DICT|INTERRES
   145   74   75 1    
   146   74  195 1    
   147   75   76 1    
   148   75   77 1    
   149   75  196 1    
   150   76  197 1    
   151   76  198 1    
   152   76  199 1    
   153   77   78 2    
   154   77   79 am   BACKBONE|DICT|INTERRES
   155   79   80 1    
   156   79  200 1    
   157   80   81 1    
   158   80   82 1    
   159   80  201 1    
   160   81  202 1    
   161   81  203 1    
   162   81  204 1    
   163   82   83 2    
   164   82   84 am   BACKBONE|DICT|INTERRES
   165   84   85 1    
   166   84  205 1    
   167   85   86 1    
   168   85   87 1    
   169   85  206 1    
   170   86  207 1    
   171   86  208 1    
   172   86  209 1    
   173   87   88 2    
   174   87   89 am   BACKBONE|DICT|INTERRES
   175   89   90 1    
   176   89  210 1    
   177   90   91 1    
   178   90   92 1    
   179   90  211 1    
   180   91  212 1    
   181   91  213 1    
   182   91  214 1    
   183   92   93 2    
   184   92   94 am   BACKBONE|DICT|INTERRES
   185   94   95 1    
   186   94  215 1    
   187   95   96 1    
   188   95   97 1    
   189   95  216 1    
   190   96  217 1    
   191   96  218 1    
   192   96  219 1    
   193   97   98 2    
   194   97   99 am   BACKBONE|DICT|INTERRES
   195   99  100 1    
   196   99  220 1    
   197  100  101 1    
   198  100  102 1    
   199  100  221 1    
   200  101  222 1    
   201  101  223 1    
   202  101  224 1    
   203  102  103 2    
   204  102  104 am   BACKBONE|DICT|INTERRES
   205  104  105 1    
   206  104  225 1    
   207  105  106 1    
   208  105  107 1    
   209  105  226 1    
   210  106  227 1    
   211  106  228 1    
   212  106  229 1    
   213  107  108 2    
   214  107  109 am   BACKBONE|DICT|INTERRES
   215  109  110 1    
   216  109  230 1    
   217  110  111 1    
   218  110  112 1    
   219  110  231 1    
   220  111  232 1    
   221  111  233 1    
   222  111  234 1    
   223  112  113 2    
   224  112  114 am   BACKBONE|DICT|INTERRES
   225  114  115 1    
   226  114  235 1    
   227  115  116 1    
   228  115  117 1    
   229  115  236 1    
   230  116  237 1    
   231  116  238 1    
   232  116  239 1    
   233  117  118 2    
   234  117  119 am   BACKBONE|DICT|INTERRES
   235  119  120 1    
   236  119  240 1    
   237  120  121 1    
   238  120  124 1    
   239  120  241 1    
   240  121  122 am   BACKBONE|DICT|INTERRES
   241  121  123 2    
   242  122  242 1    
   243  122  243 1    
   244  124  125 1    
   245  124  244 1    
   246  124  245 1    
   247  125  126 1    
   248  126  246 1    
   249  126  247 1    
@<TRIPOS>SUBSTRUCTURE
     1 UNK         1 GROUP             0       ****    0 ROOT    
