@<TRIPOS>MOLECULE
3R540
247   249    1
SMALL
USER_CHARGES


@<TRIPOS>ATOM
      1 CA          1.6766  -12.2063  -52.4916 C.3       0 UNK        -0.1800 
      2 C           1.5685  -13.4493  -51.6213 C.2       0 UNK         0.5000 
      3 O           0.8558  -14.3871  -51.9782 O.2       0 UNK        -0.5000 
      4 N           2.2766  -13.4671  -50.4852 N.am      1 UNK        -0.5000 
      5 CA          2.2739  -14.5385  -49.4794 C.3       1 UNK         0.1400 
      6 C6          2.6997  -14.0243  -48.0733 C.3       23 UNK        -0.0398 
      7 S7          1.8826  -12.4681  -47.5586 S.3       23 UNK        -0.2404 
      8 C8          0.4827  -13.0549  -46.5465 C.3       23 UNK        -0.0205 
      9 C9         -0.4717  -13.9507  -47.3233 C.ar      23 UNK        -0.0193 
     10 C10        -0.9901  -13.5404  -48.5566 C.ar      23 UNK        -0.1150 
     11 C11        -1.7900  -14.4000  -49.3137 C.ar      23 UNK        -0.0193 
     12 C12        -2.1209  -15.6555  -48.7993 C.ar      23 UNK        -0.1150 
     13 C13        -1.6259  -16.0693  -47.5597 C.ar      23 UNK        -0.0193 
     14 C14        -0.8060  -15.2116  -46.8232 C.ar      23 UNK        -0.1150 
     15 C15        -1.9530  -17.4571  -47.0417 C.3       23 UNK        -0.0205 
     16 S16        -1.0068  -18.7195  -47.9417 S.3       23 UNK        -0.2404 
     17 C17        -1.9527  -20.2254  -47.5644 C.3       23 UNK        -0.0398 
     18 CA         -1.1333  -21.2795  -46.7883 C.3       11 UNK         0.1400 
     19 N          -0.8365  -20.9041  -45.4015 N.am      11 UNK        -0.5000 
     20 C           0.1051  -21.5103  -44.6607 C.2       10 UNK         0.5000 
     21 O           0.8953  -22.3376  -45.1136 O.2       10 UNK        -0.5000 
     22 CA          0.1325  -21.2003  -43.1525 C.3       10 UNK         0.1400 
     23 CB          1.0926  -20.0508  -42.8209 C.3       10 UNK        -0.1800 
     24 N          -1.1983  -20.9017  -42.6239 N.am      10 UNK        -0.5000 
     25 C          -2.1253  -21.8404  -42.3821 C.2       9 UNK         0.5000 
     26 O          -1.9307  -23.0441  -42.5485 O.2       9 UNK        -0.5000 
     27 CA         -3.5104  -21.3603  -41.9054 C.3       9 UNK         0.1400 
     28 CB         -3.5618  -21.3186  -40.3711 C.3       9 UNK        -0.1800 
     29 N          -3.8911  -20.0489  -42.4302 N.am      9 UNK        -0.5000 
     30 C          -4.0437  -19.7423  -43.7260 C.2       8 UNK         0.5000 
     31 O          -3.9063  -20.5520  -44.6436 O.2       8 UNK        -0.5000 
     32 CA         -4.3420  -18.2668  -44.0543 C.3       8 UNK         0.1400 
     33 CB         -5.8550  -18.0419  -44.1848 C.3       8 UNK        -0.1800 
     34 N          -3.7874  -17.3155  -43.0828 N.am      8 UNK        -0.5000 
     35 C          -2.4861  -17.1863  -42.7878 C.2       7 UNK         0.5000 
     36 O          -1.5980  -17.8762  -43.2971 O.2       7 UNK        -0.5000 
     37 CA         -2.1329  -16.1737  -41.6848 C.3       7 UNK         0.1400 
     38 CB         -2.3549  -16.8063  -40.3017 C.3       7 UNK        -0.1800 
     39 N          -0.7330  -15.7682  -41.7899 N.am      7 UNK        -0.5000 
     40 C          -0.2822  -14.7818  -42.5759 C.2       6 UNK         0.5000 
     41 O          -1.0082  -14.0226  -43.2172 O.2       6 UNK        -0.5000 
     42 CA          1.2412  -14.6804  -42.7196 C.3       6 UNK         0.1400 
     43 CB          1.9493  -14.4577  -41.3716 C.3       6 UNK        -0.1800 
     44 N           1.7053  -15.9172  -43.3381 N.am      6 UNK        -0.5000 
     45 C           2.5936  -16.0026  -44.3318 C.2       5 UNK         0.5000 
     46 O           3.2377  -15.0466  -44.7686 O.2       5 UNK        -0.5000 
     47 CA          2.7395  -17.4014  -44.9542 C.3       5 UNK         0.1400 
     48 CB          1.4335  -17.8385  -45.6365 C.3       5 UNK        -0.1800 
     49 N           3.7849  -17.4599  -45.9652 N.am      5 UNK        -0.5000 
     50 C           5.0750  -17.7428  -45.7619 C.2       4 UNK         0.5000 
     51 O           5.5777  -17.9229  -44.6512 O.2       4 UNK        -0.5000 
     52 CA          5.9134  -17.8849  -47.0507 C.3       4 UNK         0.1400 
     53 CB          7.2688  -18.5902  -46.8352 C.3       4 UNK        -0.1800 
     54 N           5.1288  -18.5136  -48.1250 N.am      4 UNK        -0.5000 
     55 C           4.6435  -19.7671  -48.1563 C.2       3 UNK         0.5000 
     56 O           4.9540  -20.6372  -47.3425 O.2       3 UNK        -0.5000 
     57 CA          3.5990  -20.1086  -49.2446 C.3       3 UNK         0.1400 
     58 CB          2.3015  -20.6385  -48.6112 C.3       3 UNK        -0.1800 
     59 N           3.2537  -18.9768  -50.1083 N.am      3 UNK        -0.5000 
     60 C           3.9782  -18.5624  -51.1541 C.2       2 UNK         0.5000 
     61 O           5.0111  -19.1172  -51.5301 O.2       2 UNK        -0.5000 
     62 CA          3.4824  -17.3053  -51.8956 C.3       2 UNK         0.1400 
     63 CB          2.6144  -17.7064  -53.0987 C.3       2 UNK        -0.1800 
     64 N           2.7369  -16.3308  -51.0898 N.am      2 UNK        -0.5000 
     65 C           3.1291  -15.7381  -49.9535 C.2       1 UNK         0.5000 
     66 O           4.1292  -16.0774  -49.3194 O.2       1 UNK        -0.5000 
     67 C          -1.8426  -22.6453  -46.8418 C.2       11 UNK         0.5000 
     68 O          -1.4894  -23.4661  -47.6842 O.2       11 UNK        -0.5000 
     69 N          -2.7910  -22.8905  -45.9247 N.am      12 UNK        -0.5000 
     70 CA         -3.5423  -24.1477  -45.8071 C.3       12 UNK         0.1400 
     71 CB         -4.6478  -23.9846  -44.7542 C.3       12 UNK        -0.1800 
     72 C          -2.6722  -25.3836  -45.5007 C.2       12 UNK         0.5000 
     73 O          -3.0708  -26.5028  -45.8231 O.2       12 UNK        -0.5000 
     74 N          -1.4957  -25.1623  -44.9028 N.am      13 UNK        -0.5000 
     75 CA         -0.4785  -26.1840  -44.6666 C.3       13 UNK         0.1400 
     76 CB          0.4574  -25.6919  -43.5515 C.3       13 UNK        -0.1800 
     77 C           0.3314  -26.5424  -45.9313 C.2       13 UNK         0.5000 
     78 O           0.9603  -27.6014  -45.9508 O.2       13 UNK        -0.5000 
     79 N           0.3294  -25.6640  -46.9441 N.am      14 UNK        -0.5000 
     80 CA          1.1381  -25.7837  -48.1583 C.3       14 UNK         0.1400 
     81 CB          1.9106  -24.4698  -48.3618 C.3       14 UNK        -0.1800 
     82 C           0.2942  -26.0933  -49.4069 C.2       14 UNK         0.5000 
     83 O           0.7504  -26.8458  -50.2690 O.2       14 UNK        -0.5000 
     84 N          -0.9002  -25.5002  -49.5010 N.am      15 UNK        -0.5000 
     85 CA         -1.7901  -25.5526  -50.6576 C.3       15 UNK         0.1400 
     86 CB         -1.3918  -24.4375  -51.6454 C.3       15 UNK        -0.1800 
     87 C          -3.2563  -25.4364  -50.2028 C.2       15 UNK         0.5000 
     88 O          -3.5444  -25.5265  -49.0076 O.2       15 UNK        -0.5000 
     89 N          -4.1722  -25.2455  -51.1613 N.am      16 UNK        -0.5000 
     90 CA         -5.6179  -25.1121  -50.9555 C.3       16 UNK         0.1400 
     91 CB         -6.3327  -25.4065  -52.2873 C.3       16 UNK        -0.1800 
     92 C          -6.0169  -23.7437  -50.3562 C.2       16 UNK         0.5000 
     93 O          -6.7517  -22.9805  -50.9865 O.2       16 UNK        -0.5000 
     94 N          -5.5140  -23.4665  -49.1454 N.am      17 UNK        -0.5000 
     95 CA         -5.7036  -22.2489  -48.3489 C.3       17 UNK         0.1400 
     96 CB         -7.1795  -22.1117  -47.9160 C.3       17 UNK        -0.1800 
     97 C          -5.1571  -20.9839  -49.0425 C.2       17 UNK         0.5000 
     98 O          -4.3821  -21.0820  -49.9961 O.2       17 UNK        -0.5000 
     99 N          -5.5547  -19.8040  -48.5440 N.am      18 UNK        -0.5000 
    100 CA        -5.1789  -18.4972  -49.0959 C.3       18 UNK         0.1400 
    101 CB        -5.7201  -17.3861  -48.1839 C.3       18 UNK        -0.1800 
    102 C         -5.6606  -18.2842  -50.5429 C.2       18 UNK         0.5000 
    103 O         -5.0116  -17.5601  -51.2974 O.2       18 UNK        -0.5000 
    104 N         -6.7524  -18.9680  -50.9167 N.am      19 UNK        -0.5000 
    105 CA        -7.3282  -19.0032  -52.2607 C.3       19 UNK         0.1400 
    106 CB        -8.5768  -19.8972  -52.2476 C.3       19 UNK        -0.1800 
    107 C         -6.3417  -19.4699  -53.3499 C.2       19 UNK         0.5000 
    108 O         -6.4288  -18.9955  -54.4828 O.2       19 UNK        -0.5000 
    109 N         -5.3977  -20.3487  -52.9853 N.am      20 UNK        -0.5000 
    110 CA        -4.3395  -20.8326  -53.8709 C.3       20 UNK         0.1400 
    111 CB        -3.6986  -22.0796  -53.2442 C.3       20 UNK        -0.1800 
    112 C         -3.2614  -19.7740  -54.1818 C.2       20 UNK         0.5000 
    113 O         -2.5954  -19.8899  -55.2115 O.2       20 UNK        -0.5000 
    114 N         -3.0947  -18.7812  -53.2970 N.am      21 UNK        -0.5000 
    115 CA        -2.0745  -17.7380  -53.4045 C.3       21 UNK         0.1400 
    116 CB        -1.3733  -17.5900  -52.0456 C.3       21 UNK        -0.1800 
    117 C         -2.6604  -16.3934  -53.8724 C.2       21 UNK         0.5000 
    118 O         -2.0066  -15.6944  -54.6474 O.2       21 UNK        -0.5000 
    119 N         -3.8694  -16.0496  -53.4124 N.am      22 UNK        -0.5000 
    120 CA        -4.5362  -14.7632  -53.6791 C.3       22 UNK         0.1400 
    121 C         -6.0867  -14.8580  -53.7485 C.2       22 UNK         0.5000 
    122 N         -6.6625  -16.0095  -54.0645 N.am      22 UNK        -0.7600 
    123 O         -6.7902  -13.8700  -53.5546 O.2       22 UNK        -0.5000 
    124 C124       -4.0056  -13.6033  -52.7868 C.3       23 UNK        -0.0398 
    125 S125       -3.9924  -13.9531  -50.9896 S.3       23 UNK        -0.2404 
    126 C126       -2.1942  -14.0154  -50.7283 C.3       23 UNK        -0.0205 
    127 H127        2.0691  -12.4697  -53.4737 H         1 UNK         0.0600 
    128 H128        2.3348  -11.4578  -52.0500 H         1 UNK         0.0600 
    129 H129        0.6922  -11.7578  -52.6254 H         1 UNK         0.0600 
    130 H130        2.8514  -12.6693  -50.2546 H         1 UNK         0.3000 
    131 H131        1.2540  -14.9155  -49.3916 H         1 UNK         0.0600 
    132 H132        3.7740  -13.8345  -48.0443 H         1 UNK         0.0800 
    133 H133        2.5100  -14.7920  -47.3226 H         1 UNK         0.0800 
    134 H134       -0.0704  -12.1939  -46.1697 H         1 UNK         0.0800 
    135 H135        0.8785  -13.5746  -45.6738 H         1 UNK         0.0800 
    136 H136       -0.7145  -12.5740  -48.9545 H         1 UNK         0.1150 
    137 H137       -2.7395  -16.3242  -49.3791 H         1 UNK         0.1150 
    138 H138       -0.4146  -15.5322  -45.8683 H         1 UNK         0.1150 
    139 H139       -1.7354  -17.5372  -45.9766 H         1 UNK         0.0800 
    140 H140       -3.0195  -17.6327  -47.1612 H         1 UNK         0.0800 
    141 H141       -2.2522  -20.6281  -48.5327 H         1 UNK         0.0800 
    142 H142       -2.8746  -19.9795  -47.0368 H         1 UNK         0.0800 
    143 H143       -0.1830  -21.4035  -47.3118 H         1 UNK         0.0600 
    144 H144       -1.4619  -20.2470  -44.9581 H         1 UNK         0.3000 
    145 H145        0.5121  -22.0936  -42.6510 H         1 UNK         0.0600 
    146 H146        1.2304  -19.9564  -41.7437 H         1 UNK         0.0600 
    147 H147        2.0758  -20.2227  -43.2607 H         1 UNK         0.0600 
    148 H148        0.7218  -19.0980  -43.1897 H         1 UNK         0.0600 
    149 H149       -1.4380  -19.9240  -42.5155 H         1 UNK         0.3000 
    150 H150       -4.2513  -22.0824  -42.2516 H         1 UNK         0.0600 
    151 H151       -3.3050  -22.2894  -39.9450 H         1 UNK         0.0600 
    152 H152       -4.5607  -21.0640  -40.0161 H         1 UNK         0.0600 
    153 H153       -2.8632  -20.5860  -39.9645 H         1 UNK         0.0600 
    154 H154       -4.0231  -19.3140  -41.7518 H         1 UNK         0.3000 
    155 H155       -3.8871  -18.0554  -45.0208 H         1 UNK         0.0600 
    156 H156       -6.3695  -18.2024  -43.2365 H         1 UNK         0.0600 
    157 H157       -6.2910  -18.7255  -44.9147 H         1 UNK         0.0600 
    158 H158       -6.0756  -17.0283  -44.5202 H         1 UNK         0.0600 
    159 H159       -4.4546  -16.7233  -42.6092 H         1 UNK         0.3000 
    160 H160       -2.7797  -15.2993  -41.7833 H         1 UNK         0.0600 
    161 H161       -1.7504  -17.7043  -40.1653 H         1 UNK         0.0600 
    162 H162       -3.3988  -17.0889  -40.1598 H         1 UNK         0.0600 
    163 H163       -2.0999  -16.1076  -39.5046 H         1 UNK         0.0600 
    164 H164       -0.0688  -16.3541  -41.3073 H         1 UNK         0.3000 
    165 H165        1.4552  -13.8263  -43.3653 H         1 UNK         0.0600 
    166 H166        3.0196  -14.3093  -41.5159 H         1 UNK         0.0600 
    167 H167        1.5629  -13.5695  -40.8703 H         1 UNK         0.0600 
    168 H168        1.8216  -15.3024  -40.6941 H         1 UNK         0.0600 
    169 H169        1.1840  -16.7456  -43.0887 H         1 UNK         0.3000 
    170 H170        2.9733  -18.1011  -44.1498 H         1 UNK         0.0600 
    171 H171        0.5612  -17.7076  -44.9975 H         1 UNK         0.0600 
    172 H172        1.2517  -17.2689  -46.5481 H         1 UNK         0.0600 
    173 H173        1.4722  -18.8935  -45.9054 H         1 UNK         0.0600 
    174 H174        3.4949  -17.2824  -46.9143 H         1 UNK         0.3000 
    175 H175        6.1253  -16.8689  -47.3870 H         1 UNK         0.0600 
    176 H176        7.9004  -18.0147  -46.1577 H         1 UNK         0.0600 
    177 H177        7.1508  -19.5829  -46.4007 H         1 UNK         0.0600 
    178 H178        7.8118  -18.6959  -47.7743 H         1 UNK         0.0600 
    179 H179        4.7980  -17.8628  -48.8310 H         1 UNK         0.3000 
    180 H180        4.0244  -20.9067  -49.8566 H         1 UNK         0.0600 
    181 H181        1.8149  -19.8755  -48.0052 H         1 UNK         0.0600 
    182 H182        2.4946  -21.4944  -47.9633 H         1 UNK         0.0600 
    183 H183        1.5924  -20.9633  -49.3729 H         1 UNK         0.0600 
    184 H184        2.4192  -18.4607  -49.8714 H         1 UNK         0.3000 
    185 H185        4.3677  -16.7901  -52.2728 H         1 UNK         0.0600 
    186 H186        3.1450  -18.3994  -53.7530 H         1 UNK         0.0600 
    187 H187        1.6916  -18.1940  -52.7819 H         1 UNK         0.0600 
    188 H188        2.3442  -16.8370  -53.6987 H         1 UNK         0.0600 
    189 H189        1.9188  -15.9254  -51.5371 H         1 UNK         0.3000 
    190 H190       -3.0591  -22.1427  -45.2908 H         1 UNK         0.3000 
    191 H191       -4.0231  -24.3323  -46.7665 H         1 UNK         0.0600 
    192 H192       -5.2691  -23.1119  -44.9567 H         1 UNK         0.0600 
    193 H193       -5.3039  -24.8557  -44.7438 H         1 UNK         0.0600 
    194 H194       -4.2325  -23.8803  -43.7529 H         1 UNK         0.0600 
    195 H195       -1.2733  -24.2202  -44.6119 H         1 UNK         0.3000 
    196 H196       -0.9702  -27.0950  -44.3193 H         1 UNK         0.0600 
    197 H197        1.2028  -26.4487  -43.3037 H         1 UNK         0.0600 
    198 H198       -0.0973  -25.4707  -42.6393 H         1 UNK         0.0600 
    199 H199        0.9924  -24.7882  -43.8452 H         1 UNK         0.0600 
    200 H200       -0.2559  -24.8395  -46.8779 H         1 UNK         0.3000 
    201 H201        1.8709  -26.5861  -48.0512 H         1 UNK         0.0600 
    202 H202        2.5552  -24.2550  -47.5091 H         1 UNK         0.0600 
    203 H203        1.2354  -23.6228  -48.4899 H         1 UNK         0.0600 
    204 H204        2.5461  -24.5205  -49.2468 H         1 UNK         0.0600 
    205 H205       -1.2230  -24.8967  -48.7463 H         1 UNK         0.3000 
    206 H206       -1.6876  -26.5217  -51.1498 H         1 UNK         0.0600 
    207 H207       -0.3387  -24.5083  -51.9183 H         1 UNK         0.0600 
    208 H208       -1.9612  -24.4991  -52.5726 H         1 UNK         0.0600 
    209 H209       -1.5567  -23.4484  -51.2157 H         1 UNK         0.0600 
    210 H210       -3.8563  -25.1638  -52.1162 H         1 UNK         0.3000 
    211 H211       -5.9343  -25.8748  -50.2409 H         1 UNK         0.0600 
    212 H212       -6.0574  -24.6910  -53.0626 H         1 UNK         0.0600 
    213 H213       -7.4159  -25.3600  -52.1679 H         1 UNK         0.0600 
    214 H214       -6.0919  -26.4053  -52.6518 H         1 UNK         0.0600 
    215 H215       -4.8511  -24.1427  -48.7769 H         1 UNK         0.3000 
    216 H216       -5.1072  -22.3719  -47.4470 H         1 UNK         0.0600 
    217 H217       -7.3039  -21.3453  -47.1505 H         1 UNK         0.0600 
    218 H218       -7.5491  -23.0441  -47.4888 H         1 UNK         0.0600 
    219 H219       -7.8270  -21.8515  -48.7542 H         1 UNK         0.0600 
    220 H220       -6.1874  -19.7950  -47.7574 H         1 UNK         0.3000 
    221 H221       -4.0890  -18.4419  -49.1092 H         1 UNK         0.0600 
    222 H222       -6.8106  -17.3767  -48.1653 H         1 UNK         0.0600 
    223 H223       -5.3716  -17.5033  -47.1586 H         1 UNK         0.0600 
    224 H224       -5.3893  -16.4052  -48.5293 H         1 UNK         0.0600 
    225 H225       -7.1999  -19.5522  -50.2269 H         1 UNK         0.3000 
    226 H226       -7.6426  -17.9881  -52.5042 H         1 UNK         0.0600 
    227 H227       -9.3211  -19.5273  -51.5423 H         1 UNK         0.0600 
    228 H228       -9.0479  -19.9245  -53.2311 H         1 UNK         0.0600 
    229 H229       -8.3330  -20.9240  -51.9720 H         1 UNK         0.0600 
    230 H230       -5.3767  -20.6827  -52.0288 H         1 UNK         0.3000 
    231 H231       -4.7959  -21.1265  -54.8185 H         1 UNK         0.0600 
    232 H232       -4.4431  -22.8520  -53.0559 H         1 UNK         0.0600 
    233 H233       -3.2100  -21.8469  -52.2976 H         1 UNK         0.0600 
    234 H234       -2.9449  -22.5064  -53.9070 H         1 UNK         0.0600 
    235 H235       -3.7185  -18.7240  -52.5016 H         1 UNK         0.3000 
    236 H236       -1.3123  -18.0282  -54.1306 H         1 UNK         0.0600 
    237 H237       -0.6131  -16.8086  -52.0764 H         1 UNK         0.0600 
    238 H238       -2.0821  -17.3353  -51.2597 H         1 UNK         0.0600 
    239 H239       -0.8756  -18.5155  -51.7554 H         1 UNK         0.0600 
    240 H240       -4.3352  -16.6426  -52.7284 H         1 UNK         0.3000 
    241 H241       -4.2844  -14.4862  -54.7044 H         1 UNK         0.0600 
    242 H242       -6.1230  -16.8344  -54.2878 H         1 UNK         0.3800 
    243 H243       -7.6665  -16.0415  -54.1364 H         1 UNK         0.3800 
    244 H244       -2.9934  -13.3561  -53.1092 H         1 UNK         0.0800 
    245 H245       -4.5754  -12.6882  -52.9534 H         1 UNK         0.0800 
    246 H246       -1.7621  -14.7408  -51.4169 H         1 UNK         0.0800 
    247 H247       -1.7656  -13.0488  -50.9975 H         1 UNK         0.0800 
@<TRIPOS>BOND
     1    1    2 1    
     2    1  127 1    
     3    1  128 1    
     4    1  129 1    
     5    2    3 2    
     6    2    4 am   BACKBONE|DICT|INTERRES
     7    4    5 1    
     8    4  130 1    
     9    5    6 1    
    10    5   65 1    
    11    5  131 1    
    12    6    7 1    
    13    6  132 1    
    14    6  133 1    
    15    7    8 1    
    16    8    9 1    
    17    8  134 1    
    18    8  135 1    
    19    9   10 ar   
    20    9   14 ar   
    21   10   11 ar   
    22   10  136 1    
    23   11   12 ar   
    24   11  126 1    
    25   12   13 ar   
    26   12  137 1    
    27   13   14 ar   
    28   13   15 1    
    29   14  138 1    
    30   15   16 1    
    31   15  139 1    
    32   15  140 1    
    33   16   17 1    
    34   17   18 1    
    35   17  141 1    
    36   17  142 1    
    37   18   19 1    
    38   18   67 1    
    39   18  143 1    
    40   19   20 am   BACKBONE|DICT|INTERRES
    41   19  144 1    
    42   20   21 2    
    43   20   22 1    
    44   22   23 1    
    45   22   24 1    
    46   22  145 1    
    47   23  146 1    
    48   23  147 1    
    49   23  148 1    
    50   24   25 am   BACKBONE|DICT|INTERRES
    51   24  149 1    
    52   25   26 2    
    53   25   27 1    
    54   27   28 1    
    55   27   29 1    
    56   27  150 1    
    57   28  151 1    
    58   28  152 1    
    59   28  153 1    
    60   29   30 am   BACKBONE|DICT|INTERRES
    61   29  154 1    
    62   30   31 2    
    63   30   32 1    
    64   32   33 1    
    65   32   34 1    
    66   32  155 1    
    67   33  156 1    
    68   33  157 1    
    69   33  158 1    
    70   34   35 am   BACKBONE|DICT|INTERRES
    71   34  159 1    
    72   35   36 2    
    73   35   37 1    
    74   37   38 1    
    75   37   39 1    
    76   37  160 1    
    77   38  161 1    
    78   38  162 1    
    79   38  163 1    
    80   39   40 am   BACKBONE|DICT|INTERRES
    81   39  164 1    
    82   40   41 2    
    83   40   42 1    
    84   42   43 1    
    85   42   44 1    
    86   42  165 1    
    87   43  166 1    
    88   43  167 1    
    89   43  168 1    
    90   44   45 am   BACKBONE|DICT|INTERRES
    91   44  169 1    
    92   45   46 2    
    93   45   47 1    
    94   47   48 1    
    95   47   49 1    
    96   47  170 1    
    97   48  171 1    
    98   48  172 1    
    99   48  173 1    
   100   49   50 am   BACKBONE|DICT|INTERRES
   101   49  174 1    
   102   50   51 2    
   103   50   52 1    
   104   52   53 1    
   105   52   54 1    
   106   52  175 1    
   107   53  176 1    
   108   53  177 1    
   109   53  178 1    
   110   54   55 am   BACKBONE|DICT|INTERRES
   111   54  179 1    
   112   55   56 2    
   113   55   57 1    
   114   57   58 1    
   115   57   59 1    
   116   57  180 1    
   117   58  181 1    
   118   58  182 1    
   119   58  183 1    
   120   59   60 am   BACKBONE|DICT|INTERRES
   121   59  184 1    
   122   60   61 2    
   123   60   62 1    
   124   62   63 1    
   125   62   64 1    
   126   62  185 1    
   127   63  186 1    
   128   63  187 1    
   129   63  188 1    
   130   64   65 am   BACKBONE|DICT|INTERRES
   131   64  189 1    
   132   65   66 2    
   133   67   68 2    
   134   67   69 am   BACKBONE|DICT|INTERRES
   135   69   70 1    
   136   69  190 1    
   137   70   71 1    
   138   70   72 1    
   139   70  191 1    
   140   71  192 1    
   141   71  193 1    
   142   71  194 1    
   143   72   73 2    
   144   72   74 am   BACKBONE|DICT|INTERRES
   145   74   75 1    
   146   74  195 1    
   147   75   76 1    
   148   75   77 1    
   149   75  196 1    
   150   76  197 1    
   151   76  198 1    
   152   76  199 1    
   153   77   78 2    
   154   77   79 am   BACKBONE|DICT|INTERRES
   155   79   80 1    
   156   79  200 1    
   157   80   81 1    
   158   80   82 1    
   159   80  201 1    
   160   81  202 1    
   161   81  203 1    
   162   81  204 1    
   163   82   83 2    
   164   82   84 am   BACKBONE|DICT|INTERRES
   165   84   85 1    
   166   84  205 1    
   167   85   86 1    
   168   85   87 1    
   169   85  206 1    
   170   86  207 1    
   171   86  208 1    
   172   86  209 1    
   173   87   88 2    
   174   87   89 am   BACKBONE|DICT|INTERRES
   175   89   90 1    
   176   89  210 1    
   177   90   91 1    
   178   90   92 1    
   179   90  211 1    
   180   91  212 1    
   181   91  213 1    
   182   91  214 1    
   183   92   93 2    
   184   92   94 am   BACKBONE|DICT|INTERRES
   185   94   95 1    
   186   94  215 1    
   187   95   96 1    
   188   95   97 1    
   189   95  216 1    
   190   96  217 1    
   191   96  218 1    
   192   96  219 1    
   193   97   98 2    
   194   97   99 am   BACKBONE|DICT|INTERRES
   195   99  100 1    
   196   99  220 1    
   197  100  101 1    
   198  100  102 1    
   199  100  221 1    
   200  101  222 1    
   201  101  223 1    
   202  101  224 1    
   203  102  103 2    
   204  102  104 am   BACKBONE|DICT|INTERRES
   205  104  105 1    
   206  104  225 1    
   207  105  106 1    
   208  105  107 1    
   209  105  226 1    
   210  106  227 1    
   211  106  228 1    
   212  106  229 1    
   213  107  108 2    
   214  107  109 am   BACKBONE|DICT|INTERRES
   215  109  110 1    
   216  109  230 1    
   217  110  111 1    
   218  110  112 1    
   219  110  231 1    
   220  111  232 1    
   221  111  233 1    
   222  111  234 1    
   223  112  113 2    
   224  112  114 am   BACKBONE|DICT|INTERRES
   225  114  115 1    
   226  114  235 1    
   227  115  116 1    
   228  115  117 1    
   229  115  236 1    
   230  116  237 1    
   231  116  238 1    
   232  116  239 1    
   233  117  118 2    
   234  117  119 am   BACKBONE|DICT|INTERRES
   235  119  120 1    
   236  119  240 1    
   237  120  121 1    
   238  120  124 1    
   239  120  241 1    
   240  121  122 am   BACKBONE|DICT|INTERRES
   241  121  123 2    
   242  122  242 1    
   243  122  243 1    
   244  124  125 1    
   245  124  244 1    
   246  124  245 1    
   247  125  126 1    
   248  126  246 1    
   249  126  247 1    
@<TRIPOS>SUBSTRUCTURE
     1 UNK         1 GROUP             0       ****    0 ROOT    
