@<TRIPOS>MOLECULE
3R540
247   249    1
SMALL
USER_CHARGES


@<TRIPOS>ATOM
      1 CA         -1.9324  -11.7170  -50.2853 C.3       0 UNK        -0.1800 
      2 C          -1.9975  -12.8690  -49.2942 C.2       0 UNK         0.5000 
      3 O          -0.9850  -13.2281  -48.6956 O.2       0 UNK        -0.5000 
      4 N          -3.1989  -13.4288  -49.1086 N.am      1 UNK        -0.5000 
      5 CA         -3.5100  -14.6272  -48.3121 C.3       1 UNK         0.1400 
      6 C6         -5.0123  -14.9882  -48.4185 C.3       23 UNK        -0.0398 
      7 S7         -5.5250  -15.2710  -50.1504 S.3       23 UNK        -0.2404 
      8 C8         -6.1464  -16.9862  -50.0915 C.3       23 UNK        -0.0205 
      9 C9         -5.1391  -18.0148  -49.5801 C.ar      23 UNK        -0.0193 
     10 C10        -3.7732  -17.9198  -49.8720 C.ar      23 UNK        -0.1150 
     11 C11        -2.8646  -18.8448  -49.3520 C.ar      23 UNK        -0.0193 
     12 C12        -3.3376  -19.9091  -48.5820 C.ar      23 UNK        -0.1150 
     13 C13        -4.7015  -20.0347  -48.3032 C.ar      23 UNK        -0.0193 
     14 C14        -5.5937  -19.0803  -48.7981 C.ar      23 UNK        -0.1150 
     15 C15        -5.2171  -21.2144  -47.4933 C.3       23 UNK        -0.0205 
     16 S16        -5.1876  -20.9107  -45.6915 S.3       23 UNK        -0.2404 
     17 C17        -3.4091  -20.7291  -45.3073 C.3       23 UNK        -0.0398 
     18 CA         -2.5823  -22.0132  -45.5644 C.3       11 UNK         0.1400 
     19 N          -1.1734  -21.7188  -45.8319 N.am      11 UNK        -0.5000 
     20 C          -0.3078  -22.6036  -46.3459 C.2       10 UNK         0.5000 
     21 O          -0.6170  -23.7468  -46.6716 O.2       10 UNK        -0.5000 
     22 CA          1.1617  -22.1636  -46.4592 C.3       10 UNK         0.1400 
     23 CB          1.3887  -21.3302  -47.7290 C.3       10 UNK        -0.1800 
     24 N           1.6132  -21.4247  -45.2788 N.am      10 UNK        -0.5000 
     25 C           1.6660  -21.9430  -44.0427 C.2       9 UNK         0.5000 
     26 O           1.4068  -23.1181  -43.7862 O.2       9 UNK        -0.5000 
     27 CA          2.0146  -20.9836  -42.8915 C.3       9 UNK         0.1400 
     28 CB          3.5338  -20.7853  -42.7888 C.3       9 UNK        -0.1800 
     29 N           1.3518  -19.6850  -43.0152 N.am      9 UNK        -0.5000 
     30 C           0.0248  -19.4937  -42.9882 C.2       8 UNK         0.5000 
     31 O          -0.7931  -20.3970  -42.8140 O.2       8 UNK        -0.5000 
     32 CA         -0.4747  -18.0626  -43.2637 C.3       8 UNK         0.1400 
     33 CB         -0.3476  -17.1754  -42.0165 C.3       8 UNK        -0.1800 
     34 N           0.2277  -17.4413  -44.3866 N.am      8 UNK        -0.5000 
     35 C           0.1611  -17.8851  -45.6500 C.2       7 UNK         0.5000 
     36 O          -0.5379  -18.8343  -46.0046 O.2       7 UNK        -0.5000 
     37 CA          1.0857  -17.1979  -46.6694 C.3       7 UNK         0.1400 
     38 CB          0.4579  -15.9034  -47.2061 C.3       7 UNK        -0.1800 
     39 N           2.4028  -16.9147  -46.0965 N.am      7 UNK        -0.5000 
     40 C           3.3179  -17.8597  -45.8322 C.2       6 UNK         0.5000 
     41 O           3.1491  -19.0546  -46.0705 O.2       6 UNK        -0.5000 
     42 CA          4.6243  -17.4062  -45.1535 C.3       6 UNK         0.1400 
     43 CB          5.6417  -16.9358  -46.2033 C.3       6 UNK        -0.1800 
     44 N           4.4206  -16.3431  -44.1701 N.am      6 UNK        -0.5000 
     45 C           3.6908  -16.4614  -43.0518 C.2       5 UNK         0.5000 
     46 O           3.1504  -17.5074  -42.6985 O.2       5 UNK        -0.5000 
     47 CA          3.4867  -15.1856  -42.2130 C.3       5 UNK         0.1400 
     48 CB          4.5249  -15.1127  -41.0840 C.3       5 UNK        -0.1800 
     49 N           3.5447  -13.9530  -43.0045 N.am      5 UNK        -0.5000 
     50 C           2.6984  -13.6417  -43.9942 C.2       4 UNK         0.5000 
     51 O           1.7633  -14.3646  -44.3549 O.2       4 UNK        -0.5000 
     52 CA          2.9860  -12.3344  -44.7397 C.3       4 UNK         0.1400 
     53 CB          4.0914  -12.5349  -45.7904 C.3       4 UNK        -0.1800 
     54 N           1.7623  -11.9025  -45.3965 N.am      4 UNK        -0.5000 
     55 C           1.4140  -10.6375  -45.6476 C.2       3 UNK         0.5000 
     56 O           2.1313   -9.6682  -45.3961 O.2       3 UNK        -0.5000 
     57 CA          0.0300  -10.4101  -46.2837 C.3       3 UNK         0.1400 
     58 CB          0.1741  -10.0963  -47.7793 C.3       3 UNK        -0.1800 
     59 N          -0.8823  -11.5466  -46.1089 N.am      3 UNK        -0.5000 
     60 C          -1.5172  -11.8298  -44.9597 C.2       2 UNK         0.5000 
     61 O          -1.3991  -11.1475  -43.9411 O.2       2 UNK        -0.5000 
     62 CA         -2.4387  -13.0646  -44.9480 C.3       2 UNK         0.1400 
     63 CB         -3.6135  -12.9293  -43.9610 C.3       2 UNK        -0.1800 
     64 N          -2.9560  -13.3371  -46.2876 N.am      2 UNK        -0.5000 
     65 C          -3.0816  -14.5537  -46.8290 C.2       1 UNK         0.5000 
     66 O          -2.8613  -15.5975  -46.2148 O.2       1 UNK        -0.5000 
     67 C          -2.7632  -23.0650  -44.4495 C.2       11 UNK         0.5000 
     68 O          -3.5865  -23.9681  -44.5995 O.2       11 UNK        -0.5000 
     69 N          -1.9555  -22.9789  -43.3822 N.am      12 UNK        -0.5000 
     70 CA         -1.9056  -23.9651  -42.2975 C.3       12 UNK         0.1400 
     71 CB         -1.0161  -23.4357  -41.1629 C.3       12 UNK        -0.1800 
     72 C          -1.4296  -25.3557  -42.7675 C.2       12 UNK         0.5000 
     73 O          -1.9235  -26.3689  -42.2722 O.2       12 UNK        -0.5000 
     74 N          -0.5177  -25.3767  -43.7478 N.am      13 UNK        -0.5000 
     75 CA         -0.0319  -26.5715  -44.4418 C.3       13 UNK         0.1400 
     76 CB          1.3835  -26.2828  -44.9699 C.3       13 UNK        -0.1800 
     77 C          -0.9599  -27.0390  -45.5866 C.2       13 UNK         0.5000 
     78 O          -0.6026  -27.9769  -46.3017 O.2       13 UNK        -0.5000 
     79 N          -2.1107  -26.3745  -45.7661 N.am      14 UNK        -0.5000 
     80 CA         -3.1272  -26.5304  -46.8119 C.3       14 UNK         0.1400 
     81 CB         -3.7105  -27.9559  -46.8513 C.3       14 UNK        -0.1800 
     82 C          -2.6610  -26.0673  -48.2038 C.2       14 UNK         0.5000 
     83 O          -3.3643  -25.2767  -48.8320 O.2       14 UNK        -0.5000 
     84 N          -1.5073  -26.5756  -48.6631 N.am      15 UNK        -0.5000 
     85 CA         -0.7901  -26.2242  -49.8985 C.3       15 UNK         0.1400 
     86 CB         -0.1391  -24.8336  -49.7498 C.3       15 UNK        -0.1800 
     87 C          -1.6266  -26.3440  -51.1936 C.2       15 UNK         0.5000 
     88 O          -1.3724  -25.6175  -52.1549 O.2       15 UNK        -0.5000 
     89 N          -2.6174  -27.2505  -51.1902 N.am      16 UNK        -0.5000 
     90 CA         -3.6379  -27.4463  -52.2299 C.3       16 UNK         0.1400 
     91 CB         -3.0083  -27.9958  -53.5272 C.3       16 UNK        -0.1800 
     92 C          -4.5044  -26.1861  -52.4620 C.2       16 UNK         0.5000 
     93 O          -4.8842  -25.8920  -53.5976 O.2       16 UNK        -0.5000 
     94 N          -4.7831  -25.4585  -51.3703 N.am      17 UNK        -0.5000 
     95 CA         -5.4757  -24.1725  -51.2650 C.3       17 UNK         0.1400 
     96 CB         -6.8990  -24.2121  -51.8575 C.3       17 UNK        -0.1800 
     97 C          -4.6407  -23.0084  -51.8227 C.2       17 UNK         0.5000 
     98 O          -4.2930  -22.1114  -51.0576 O.2       17 UNK        -0.5000 
     99 N          -4.3350  -23.0547  -53.1300 N.am      18 UNK        -0.5000 
    100 CA        -3.5280  -22.0929  -53.8941 C.3       18 UNK         0.1400 
    101 CB        -2.0350  -22.2754  -53.5592 C.3       18 UNK        -0.1800 
    102 C         -4.0160  -20.6359  -53.7298 C.2       18 UNK         0.5000 
    103 O         -3.2273  -19.7350  -53.4395 O.2       18 UNK        -0.5000 
    104 N         -5.3328  -20.4495  -53.9046 N.am      19 UNK        -0.5000 
    105 CA        -6.0955  -19.2443  -53.5611 C.3       19 UNK         0.1400 
    106 CB        -7.5833  -19.5050  -53.8415 C.3       19 UNK        -0.1800 
    107 C         -5.6416  -17.9288  -54.2277 C.2       19 UNK         0.5000 
    108 O         -5.9835  -16.8561  -53.7286 O.2       19 UNK        -0.5000 
    109 N         -4.8552  -18.0098  -55.3087 N.am      20 UNK        -0.5000 
    110 CA        -4.1925  -16.8831  -55.9713 C.3       20 UNK         0.1400 
    111 CB        -3.8261  -17.3054  -57.4056 C.3       20 UNK        -0.1800 
    112 C         -2.9703  -16.3748  -55.1686 C.2       20 UNK         0.5000 
    113 O         -1.8577  -16.3191  -55.6986 O.2       20 UNK        -0.5000 
    114 N         -3.1969  -16.0479  -53.8868 N.am      21 UNK        -0.5000 
    115 CA        -2.2414  -15.5321  -52.8968 C.3       21 UNK         0.1400 
    116 CB        -1.8496  -14.0834  -53.2536 C.3       21 UNK        -0.1800 
    117 C         -1.0031  -16.4310  -52.6664 C.2       21 UNK         0.5000 
    118 O          0.0321  -15.9322  -52.2216 O.2       21 UNK        -0.5000 
    119 N         -1.1164  -17.7289  -52.9853 N.am      22 UNK        -0.5000 
    120 CA        -0.0156  -18.7064  -53.0450 C.3       22 UNK         0.1400 
    121 C          1.0947  -18.3596  -54.0875 C.2       22 UNK         0.5000 
    122 N          0.8096  -17.5639  -55.1139 N.am      22 UNK        -0.7600 
    123 O          2.2215  -18.8395  -53.9922 O.2       22 UNK        -0.5000 
    124 C124        0.5359  -19.0920  -51.6424 C.3       23 UNK        -0.0398 
    125 S125       -0.7139  -19.9909  -50.6622 S.3       23 UNK        -0.2404 
    126 C126       -1.3723  -18.6779  -49.5933 C.3       23 UNK        -0.0205 
    127 H127       -0.9181  -11.5993  -50.6704 H         1 UNK         0.0600 
    128 H128       -2.2293  -10.7850  -49.8036 H         1 UNK         0.0600 
    129 H129       -2.5979  -11.8912  -51.1320 H         1 UNK         0.0600 
    130 H130       -3.9830  -13.0639  -49.6311 H         1 UNK         0.3000 
    131 H131       -2.9308  -15.4432  -48.7474 H         1 UNK         0.0600 
    132 H132       -5.2378  -15.8755  -47.8239 H         1 UNK         0.0800 
    133 H133       -5.6285  -14.1869  -48.0070 H         1 UNK         0.0800 
    134 H134       -7.0421  -16.9967  -49.4685 H         1 UNK         0.0800 
    135 H135       -6.4684  -17.2729  -51.0914 H         1 UNK         0.0800 
    136 H136       -3.4107  -17.1095  -50.4836 H         1 UNK         0.1150 
    137 H137       -2.6380  -20.6402  -48.2034 H         1 UNK         0.1150 
    138 H138       -6.6478  -19.1726  -48.5766 H         1 UNK         0.1150 
    139 H139       -6.2480  -21.4259  -47.7813 H         1 UNK         0.0800 
    140 H140       -4.6628  -22.1165  -47.7513 H         1 UNK         0.0800 
    141 H141       -3.3056  -20.4030  -44.2708 H         1 UNK         0.0800 
    142 H142       -3.0267  -19.8983  -45.8995 H         1 UNK         0.0800 
    143 H143       -2.9472  -22.4814  -46.4778 H         1 UNK         0.0600 
    144 H144       -0.8513  -20.7776  -45.6275 H         1 UNK         0.3000 
    145 H145        1.7713  -23.0660  -46.5377 H         1 UNK         0.0600 
    146 H146        2.4434  -21.0889  -47.8599 H         1 UNK         0.0600 
    147 H147        1.0673  -21.8772  -48.6165 H         1 UNK         0.0600 
    148 H148        0.8319  -20.3942  -47.7042 H         1 UNK         0.0600 
    149 H149        1.9039  -20.4634  -45.4264 H         1 UNK         0.3000 
    150 H150        1.6703  -21.4418  -41.9623 H         1 UNK         0.0600 
    151 H151        4.0451  -21.7413  -42.6698 H         1 UNK         0.0600 
    152 H152        3.7935  -20.1680  -41.9287 H         1 UNK         0.0600 
    153 H153        3.9380  -20.3048  -43.6797 H         1 UNK         0.0600 
    154 H154        1.9606  -18.8748  -43.1030 H         1 UNK         0.3000 
    155 H155       -1.5328  -18.1253  -43.5275 H         1 UNK         0.0600 
    156 H156       -0.9109  -17.5962  -41.1827 H         1 UNK         0.0600 
    157 H157       -0.7396  -16.1753  -42.2027 H         1 UNK         0.0600 
    158 H158        0.6881  -17.0746  -41.6928 H         1 UNK         0.0600 
    159 H159        0.8322  -16.6579  -44.1793 H         1 UNK         0.3000 
    160 H160        1.2211  -17.8782  -47.5129 H         1 UNK         0.0600 
    161 H161        0.2399  -15.1928  -46.4085 H         1 UNK         0.0600 
    162 H162       -0.4814  -16.1145  -47.7182 H         1 UNK         0.0600 
    163 H163        1.1124  -15.4108  -47.9252 H         1 UNK         0.0600 
    164 H164        2.5799  -15.9614  -45.8110 H         1 UNK         0.3000 
    165 H165        5.0447  -18.2685  -44.6321 H         1 UNK         0.0600 
    166 H166        6.5993  -16.6915  -45.7431 H         1 UNK         0.0600 
    167 H167        5.8277  -17.7157  -46.9431 H         1 UNK         0.0600 
    168 H168        5.2906  -16.0525  -46.7384 H         1 UNK         0.0600 
    169 H169        4.8345  -15.4467  -44.3771 H         1 UNK         0.3000 
    170 H170        2.4939  -15.2462  -41.7627 H         1 UNK         0.0600 
    171 H171        4.4899  -16.0091  -40.4631 H         1 UNK         0.0600 
    172 H172        5.5394  -15.0231  -41.4744 H         1 UNK         0.0600 
    173 H173        4.3389  -14.2600  -40.4308 H         1 UNK         0.0600 
    174 H174        4.2898  -13.3102  -42.7766 H         1 UNK         0.3000 
    175 H175        3.2985  -11.5842  -44.0111 H         1 UNK         0.0600 
    176 H176        3.8126  -13.2882  -46.5278 H         1 UNK         0.0600 
    177 H177        4.3002  -11.6077  -46.3245 H         1 UNK         0.0600 
    178 H178        5.0238  -12.8565  -45.3259 H         1 UNK         0.0600 
    179 H179        1.1019  -12.6462  -45.5804 H         1 UNK         0.3000 
    180 H180       -0.4078   -9.5349  -45.8001 H         1 UNK         0.0600 
    181 H181        0.5671  -10.9481  -48.3346 H         1 UNK         0.0600 
    182 H182        0.8539   -9.2585  -47.9408 H         1 UNK         0.0600 
    183 H183       -0.7850   -9.8181  -48.2133 H         1 UNK         0.0600 
    184 H184       -0.9759  -12.1773  -46.8985 H         1 UNK         0.3000 
    185 H185       -1.8107  -13.8962  -44.6199 H         1 UNK         0.0600 
    186 H186       -3.2575  -12.7805  -42.9409 H         1 UNK         0.0600 
    187 H187       -4.2542  -12.0839  -44.2154 H         1 UNK         0.0600 
    188 H188       -4.2300  -13.8285  -43.9579 H         1 UNK         0.0600 
    189 H189       -3.1635  -12.5299  -46.8592 H         1 UNK         0.3000 
    190 H190       -1.3387  -22.1749  -43.2981 H         1 UNK         0.3000 
    191 H191       -2.9190  -24.0787  -41.9074 H         1 UNK         0.0600 
    192 H192        0.0156  -23.3028  -41.4874 H         1 UNK         0.0600 
    193 H193       -1.3768  -22.4755  -40.7937 H         1 UNK         0.0600 
    194 H194       -1.0077  -24.1271  -40.3195 H         1 UNK         0.0600 
    195 H195       -0.1211  -24.4937  -44.0524 H         1 UNK         0.3000 
    196 H196        0.0352  -27.3929  -43.7260 H         1 UNK         0.0600 
    197 H197        2.0498  -25.9743  -44.1641 H         1 UNK         0.0600 
    198 H198        1.3767  -25.4906  -45.7191 H         1 UNK         0.0600 
    199 H199        1.8222  -27.1681  -45.4312 H         1 UNK         0.0600 
    200 H200       -2.2799  -25.5871  -45.1524 H         1 UNK         0.3000 
    201 H201       -3.9398  -25.8628  -46.5224 H         1 UNK         0.0600 
    202 H202       -4.5461  -28.0113  -47.5499 H         1 UNK         0.0600 
    203 H203       -4.0858  -28.2537  -45.8723 H         1 UNK         0.0600 
    204 H204       -2.9755  -28.6957  -47.1680 H         1 UNK         0.0600 
    205 H205       -1.0275  -27.2221  -48.0430 H         1 UNK         0.3000 
    206 H206        0.0147  -26.9532  -49.9987 H         1 UNK         0.0600 
    207 H207        0.5131  -24.7988  -48.8778 H         1 UNK         0.0600 
    208 H208       -0.8881  -24.0484  -49.6398 H         1 UNK         0.0600 
    209 H209        0.4742  -24.5844  -50.6161 H         1 UNK         0.0600 
    210 H210       -2.7347  -27.8019  -50.3521 H         1 UNK         0.3000 
    211 H211       -4.3173  -28.2097  -51.8487 H         1 UNK         0.0600 
    212 H212       -2.4086  -28.8841  -53.3292 H         1 UNK         0.0600 
    213 H213       -3.7790  -28.2793  -54.2446 H         1 UNK         0.0600 
    214 H214       -2.3677  -27.2593  -54.0126 H         1 UNK         0.0600 
    215 H215       -4.3275  -25.7335  -50.5052 H         1 UNK         0.3000 
    216 H216       -5.5831  -23.9926  -50.1937 H         1 UNK         0.0600 
    217 H217       -7.4210  -23.2741  -51.6648 H         1 UNK         0.0600 
    218 H218       -6.8983  -24.3639  -52.9369 H         1 UNK         0.0600 
    219 H219       -7.4892  -25.0105  -51.4076 H         1 UNK         0.0600 
    220 H220       -4.6409  -23.8807  -53.6351 H         1 UNK         0.3000 
    221 H221       -3.6607  -22.3443  -54.9476 H         1 UNK         0.0600 
    222 H222       -1.8240  -22.0281  -52.5184 H         1 UNK         0.0600 
    223 H223       -1.7184  -23.3050  -53.7261 H         1 UNK         0.0600 
    224 H224       -1.4111  -21.6402  -54.1879 H         1 UNK         0.0600 
    225 H225       -5.8840  -21.2568  -54.1567 H         1 UNK         0.3000 
    226 H226       -5.9746  -19.1049  -52.4855 H         1 UNK         0.0600 
    227 H227       -7.9491  -20.3602  -53.2725 H         1 UNK         0.0600 
    228 H228       -8.1930  -18.6456  -53.5584 H         1 UNK         0.0600 
    229 H229       -7.7633  -19.7012  -54.8993 H         1 UNK         0.0600 
    230 H230       -4.5891  -18.9316  -55.6216 H         1 UNK         0.3000 
    231 H231       -4.8981  -16.0525  -56.0405 H         1 UNK         0.0600 
    232 H232       -3.3698  -16.4794  -57.9528 H         1 UNK         0.0600 
    233 H233       -4.7104  -17.6128  -57.9646 H         1 UNK         0.0600 
    234 H234       -3.1189  -18.1361  -57.4123 H         1 UNK         0.0600 
    235 H235       -4.1504  -16.1660  -53.5564 H         1 UNK         0.3000 
    236 H236       -2.7732  -15.4969  -51.9462 H         1 UNK         0.0600 
    237 H237       -2.7315  -13.4516  -53.3605 H         1 UNK         0.0600 
    238 H238       -1.2272  -13.6396  -52.4760 H         1 UNK         0.0600 
    239 H239       -1.2873  -14.0365  -54.1868 H         1 UNK         0.0600 
    240 H240       -2.0147  -18.0909  -53.2888 H         1 UNK         0.3000 
    241 H241       -0.4664  -19.6070  -53.4601 H         1 UNK         0.0600 
    242 H242        1.5266  -17.3522  -55.7893 H         1 UNK         0.3800 
    243 H243       -0.1171  -17.1631  -55.2255 H         1 UNK         0.3800 
    244 H244        1.3911  -19.7634  -51.7345 H         1 UNK         0.0800 
    245 H245        0.8992  -18.2179  -51.1005 H         1 UNK         0.0800 
    246 H246       -0.8485  -18.7059  -48.6391 H         1 UNK         0.0800 
    247 H247       -1.1675  -17.6980  -50.0241 H         1 UNK         0.0800 
@<TRIPOS>BOND
     1    1    2 1    
     2    1  127 1    
     3    1  128 1    
     4    1  129 1    
     5    2    3 2    
     6    2    4 am   BACKBONE|DICT|INTERRES
     7    4    5 1    
     8    4  130 1    
     9    5    6 1    
    10    5   65 1    
    11    5  131 1    
    12    6    7 1    
    13    6  132 1    
    14    6  133 1    
    15    7    8 1    
    16    8    9 1    
    17    8  134 1    
    18    8  135 1    
    19    9   10 ar   
    20    9   14 ar   
    21   10   11 ar   
    22   10  136 1    
    23   11   12 ar   
    24   11  126 1    
    25   12   13 ar   
    26   12  137 1    
    27   13   14 ar   
    28   13   15 1    
    29   14  138 1    
    30   15   16 1    
    31   15  139 1    
    32   15  140 1    
    33   16   17 1    
    34   17   18 1    
    35   17  141 1    
    36   17  142 1    
    37   18   19 1    
    38   18   67 1    
    39   18  143 1    
    40   19   20 am   BACKBONE|DICT|INTERRES
    41   19  144 1    
    42   20   21 2    
    43   20   22 1    
    44   22   23 1    
    45   22   24 1    
    46   22  145 1    
    47   23  146 1    
    48   23  147 1    
    49   23  148 1    
    50   24   25 am   BACKBONE|DICT|INTERRES
    51   24  149 1    
    52   25   26 2    
    53   25   27 1    
    54   27   28 1    
    55   27   29 1    
    56   27  150 1    
    57   28  151 1    
    58   28  152 1    
    59   28  153 1    
    60   29   30 am   BACKBONE|DICT|INTERRES
    61   29  154 1    
    62   30   31 2    
    63   30   32 1    
    64   32   33 1    
    65   32   34 1    
    66   32  155 1    
    67   33  156 1    
    68   33  157 1    
    69   33  158 1    
    70   34   35 am   BACKBONE|DICT|INTERRES
    71   34  159 1    
    72   35   36 2    
    73   35   37 1    
    74   37   38 1    
    75   37   39 1    
    76   37  160 1    
    77   38  161 1    
    78   38  162 1    
    79   38  163 1    
    80   39   40 am   BACKBONE|DICT|INTERRES
    81   39  164 1    
    82   40   41 2    
    83   40   42 1    
    84   42   43 1    
    85   42   44 1    
    86   42  165 1    
    87   43  166 1    
    88   43  167 1    
    89   43  168 1    
    90   44   45 am   BACKBONE|DICT|INTERRES
    91   44  169 1    
    92   45   46 2    
    93   45   47 1    
    94   47   48 1    
    95   47   49 1    
    96   47  170 1    
    97   48  171 1    
    98   48  172 1    
    99   48  173 1    
   100   49   50 am   BACKBONE|DICT|INTERRES
   101   49  174 1    
   102   50   51 2    
   103   50   52 1    
   104   52   53 1    
   105   52   54 1    
   106   52  175 1    
   107   53  176 1    
   108   53  177 1    
   109   53  178 1    
   110   54   55 am   BACKBONE|DICT|INTERRES
   111   54  179 1    
   112   55   56 2    
   113   55   57 1    
   114   57   58 1    
   115   57   59 1    
   116   57  180 1    
   117   58  181 1    
   118   58  182 1    
   119   58  183 1    
   120   59   60 am   BACKBONE|DICT|INTERRES
   121   59  184 1    
   122   60   61 2    
   123   60   62 1    
   124   62   63 1    
   125   62   64 1    
   126   62  185 1    
   127   63  186 1    
   128   63  187 1    
   129   63  188 1    
   130   64   65 am   BACKBONE|DICT|INTERRES
   131   64  189 1    
   132   65   66 2    
   133   67   68 2    
   134   67   69 am   BACKBONE|DICT|INTERRES
   135   69   70 1    
   136   69  190 1    
   137   70   71 1    
   138   70   72 1    
   139   70  191 1    
   140   71  192 1    
   141   71  193 1    
   142   71  194 1    
   143   72   73 2    
   144   72   74 am   BACKBONE|DICT|INTERRES
   145   74   75 1    
   146   74  195 1    
   147   75   76 1    
   148   75   77 1    
   149   75  196 1    
   150   76  197 1    
   151   76  198 1    
   152   76  199 1    
   153   77   78 2    
   154   77   79 am   BACKBONE|DICT|INTERRES
   155   79   80 1    
   156   79  200 1    
   157   80   81 1    
   158   80   82 1    
   159   80  201 1    
   160   81  202 1    
   161   81  203 1    
   162   81  204 1    
   163   82   83 2    
   164   82   84 am   BACKBONE|DICT|INTERRES
   165   84   85 1    
   166   84  205 1    
   167   85   86 1    
   168   85   87 1    
   169   85  206 1    
   170   86  207 1    
   171   86  208 1    
   172   86  209 1    
   173   87   88 2    
   174   87   89 am   BACKBONE|DICT|INTERRES
   175   89   90 1    
   176   89  210 1    
   177   90   91 1    
   178   90   92 1    
   179   90  211 1    
   180   91  212 1    
   181   91  213 1    
   182   91  214 1    
   183   92   93 2    
   184   92   94 am   BACKBONE|DICT|INTERRES
   185   94   95 1    
   186   94  215 1    
   187   95   96 1    
   188   95   97 1    
   189   95  216 1    
   190   96  217 1    
   191   96  218 1    
   192   96  219 1    
   193   97   98 2    
   194   97   99 am   BACKBONE|DICT|INTERRES
   195   99  100 1    
   196   99  220 1    
   197  100  101 1    
   198  100  102 1    
   199  100  221 1    
   200  101  222 1    
   201  101  223 1    
   202  101  224 1    
   203  102  103 2    
   204  102  104 am   BACKBONE|DICT|INTERRES
   205  104  105 1    
   206  104  225 1    
   207  105  106 1    
   208  105  107 1    
   209  105  226 1    
   210  106  227 1    
   211  106  228 1    
   212  106  229 1    
   213  107  108 2    
   214  107  109 am   BACKBONE|DICT|INTERRES
   215  109  110 1    
   216  109  230 1    
   217  110  111 1    
   218  110  112 1    
   219  110  231 1    
   220  111  232 1    
   221  111  233 1    
   222  111  234 1    
   223  112  113 2    
   224  112  114 am   BACKBONE|DICT|INTERRES
   225  114  115 1    
   226  114  235 1    
   227  115  116 1    
   228  115  117 1    
   229  115  236 1    
   230  116  237 1    
   231  116  238 1    
   232  116  239 1    
   233  117  118 2    
   234  117  119 am   BACKBONE|DICT|INTERRES
   235  119  120 1    
   236  119  240 1    
   237  120  121 1    
   238  120  124 1    
   239  120  241 1    
   240  121  122 am   BACKBONE|DICT|INTERRES
   241  121  123 2    
   242  122  242 1    
   243  122  243 1    
   244  124  125 1    
   245  124  244 1    
   246  124  245 1    
   247  125  126 1    
   248  126  246 1    
   249  126  247 1    
@<TRIPOS>SUBSTRUCTURE
     1 UNK         1 GROUP             0       ****    0 ROOT    
