@<TRIPOS>MOLECULE
3R540
247   249    1
SMALL
USER_CHARGES


@<TRIPOS>ATOM
      1 CA         -6.1111  -12.6711  -49.8925 C.3       0 UNK        -0.1800 
      2 C          -4.9941  -13.4143  -49.1751 C.2       0 UNK         0.5000 
      3 O          -5.2544  -14.4208  -48.5156 O.2       0 UNK        -0.5000 
      4 N          -3.7525  -12.9227  -49.2953 N.am      1 UNK        -0.5000 
      5 CA         -2.5124  -13.4624  -48.7136 C.3       1 UNK         0.1400 
      6 C6         -2.2602  -14.9461  -49.0896 C.3       23 UNK        -0.0398 
      7 S7         -0.4937  -15.3753  -49.2335 S.3       23 UNK        -0.2404 
      8 C8         -0.6290  -16.7526  -50.4202 C.3       23 UNK        -0.0205 
      9 C9          0.6235  -17.6171  -50.5402 C.ar      23 UNK        -0.0193 
     10 C10         1.0028  -18.1175  -51.7919 C.ar      23 UNK        -0.1150 
     11 C11         2.0796  -19.0029  -51.9118 C.ar      23 UNK        -0.0193 
     12 C12         2.7890  -19.3772  -50.7688 C.ar      23 UNK        -0.1150 
     13 C13         2.4164  -18.8965  -49.5123 C.ar      23 UNK        -0.0193 
     14 C14         1.3434  -18.0067  -49.4055 C.ar      23 UNK        -0.1150 
     15 C15         3.1497  -19.3789  -48.2710 C.3       23 UNK        -0.0205 
     16 S16         2.5840  -21.0384  -47.7704 S.3       23 UNK        -0.2404 
     17 C17         0.9403  -20.6383  -47.0976 C.3       23 UNK        -0.0398 
     18 CA          0.0532  -21.8726  -46.8597 C.3       11 UNK         0.1400 
     19 N           0.6408  -22.7898  -45.8837 N.am      11 UNK        -0.5000 
     20 C           0.1935  -24.0197  -45.6054 C.2       10 UNK         0.5000 
     21 O          -0.7823  -24.5335  -46.1564 O.2       10 UNK        -0.5000 
     22 CA          0.9284  -24.7614  -44.4748 C.3       10 UNK         0.1400 
     23 CB          2.1213  -25.5491  -45.0347 C.3       10 UNK        -0.1800 
     24 N           1.3961  -23.8603  -43.4148 N.am      10 UNK        -0.5000 
     25 C           0.5985  -23.1400  -42.6155 C.2       9 UNK         0.5000 
     26 O          -0.6278  -23.1440  -42.7078 O.2       9 UNK        -0.5000 
     27 CA          1.2687  -22.2582  -41.5473 C.3       9 UNK         0.1400 
     28 CB          2.0473  -23.0973  -40.5155 C.3       9 UNK        -0.1800 
     29 N           2.0913  -21.1746  -42.0935 N.am      9 UNK        -0.5000 
     30 C           3.2350  -21.2460  -42.7908 C.2       8 UNK         0.5000 
     31 O           3.7626  -22.3056  -43.1320 O.2       8 UNK        -0.5000 
     32 CA          3.9189  -19.9139  -43.1660 C.3       8 UNK         0.1400 
     33 CB          3.9091  -19.6874  -44.6821 C.3       8 UNK        -0.1800 
     34 N           3.3082  -18.7503  -42.5228 N.am      8 UNK        -0.5000 
     35 C           3.5908  -18.3277  -41.2844 C.2       7 UNK         0.5000 
     36 O           4.4355  -18.8522  -40.5578 O.2       7 UNK        -0.5000 
     37 CA          2.7818  -17.1253  -40.7631 C.3       7 UNK         0.1400 
     38 CB          3.5357  -15.8166  -41.0424 C.3       7 UNK        -0.1800 
     39 N           1.4283  -17.0384  -41.3227 N.am      7 UNK        -0.5000 
     40 C           0.4533  -17.9293  -41.0879 C.2       6 UNK         0.5000 
     41 O           0.6062  -18.9420  -40.4048 O.2       6 UNK        -0.5000 
     42 CA         -0.9121  -17.6689  -41.7491 C.3       6 UNK         0.1400 
     43 CB         -1.6965  -16.5996  -40.9756 C.3       6 UNK        -0.1800 
     44 N          -0.8152  -17.2807  -43.1558 N.am      6 UNK        -0.5000 
     45 C          -0.3158  -18.0526  -44.1307 C.2       5 UNK         0.5000 
     46 O           0.1613  -19.1723  -43.9454 O.2       5 UNK        -0.5000 
     47 CA         -0.3281  -17.4561  -45.5475 C.3       5 UNK         0.1400 
     48 CB         -1.7170  -17.5611  -46.1943 C.3       5 UNK        -0.1800 
     49 N           0.1261  -16.0700  -45.5447 N.am      5 UNK        -0.5000 
     50 C           1.4156  -15.7129  -45.4698 C.2       4 UNK         0.5000 
     51 O           2.3492  -16.5155  -45.4894 O.2       4 UNK        -0.5000 
     52 CA          1.7138  -14.2110  -45.3104 C.3       4 UNK         0.1400 
     53 CB          1.9185  -13.5472  -46.6797 C.3       4 UNK        -0.1800 
     54 N           0.6683  -13.5010  -44.5699 N.am      4 UNK        -0.5000 
     55 C           0.4367  -13.6706  -43.2595 C.2       3 UNK         0.5000 
     56 O           1.0812  -14.4392  -42.5475 O.2       3 UNK        -0.5000 
     57 CA         -0.7380  -12.8909  -42.6419 C.3       3 UNK         0.1400 
     58 CB         -0.2702  -11.5106  -42.1581 C.3       3 UNK        -0.1800 
     59 N          -1.8795  -12.7243  -43.5410 N.am      3 UNK        -0.5000 
     60 C          -2.5668  -13.7148  -44.1257 C.2       2 UNK         0.5000 
     61 O          -2.2950  -14.9086  -43.9874 O.2       2 UNK        -0.5000 
     62 CA         -3.7396  -13.3092  -45.0408 C.3       2 UNK         0.1400 
     63 CB         -4.1869  -11.8402  -44.8728 C.3       2 UNK        -0.1800 
     64 N          -3.4750  -13.5798  -46.4556 N.am      2 UNK        -0.5000 
     65 C          -2.4161  -13.2100  -47.1911 C.2       1 UNK         0.5000 
     66 O          -1.4220  -12.6458  -46.7309 O.2       1 UNK        -0.5000 
     67 C          -1.3774  -21.4289  -46.4906 C.2       11 UNK         0.5000 
     68 O          -2.1131  -21.0226  -47.3857 O.2       11 UNK        -0.5000 
     69 N          -1.7825  -21.5441  -45.2163 N.am      12 UNK        -0.5000 
     70 CA         -3.1574  -21.2837  -44.7792 C.3       12 UNK         0.1400 
     71 CB         -3.2147  -21.2383  -43.2459 C.3       12 UNK        -0.1800 
     72 C          -4.1698  -22.3036  -45.3410 C.2       12 UNK         0.5000 
     73 O          -5.3574  -21.9890  -45.4078 O.2       12 UNK        -0.5000 
     74 N          -3.6830  -23.4834  -45.7524 N.am      13 UNK        -0.5000 
     75 CA         -4.4396  -24.4892  -46.4906 C.3       13 UNK         0.1400 
     76 CB         -4.1643  -25.8766  -45.8888 C.3       13 UNK        -0.1800 
     77 C          -4.0645  -24.4544  -47.9819 C.2       13 UNK         0.5000 
     78 O          -4.9559  -24.3809  -48.8276 O.2       13 UNK        -0.5000 
     79 N          -2.7568  -24.4991  -48.2830 N.am      14 UNK        -0.5000 
     80 CA         -2.2169  -24.6264  -49.6430 C.3       14 UNK         0.1400 
     81 CB         -0.7436  -25.0562  -49.5602 C.3       14 UNK        -0.1800 
     82 C          -2.3695  -23.3734  -50.5296 C.2       14 UNK         0.5000 
     83 O          -2.1915  -23.4723  -51.7449 O.2       14 UNK        -0.5000 
     84 N          -2.6837  -22.2222  -49.9290 N.am      15 UNK        -0.5000 
     85 CA         -2.9156  -20.9593  -50.6190 C.3       15 UNK         0.1400 
     86 CB         -1.5819  -20.2230  -50.8260 C.3       15 UNK        -0.1800 
     87 C          -3.9727  -20.1240  -49.8818 C.2       15 UNK         0.5000 
     88 O          -3.8467  -18.8999  -49.7957 O.2       15 UNK        -0.5000 
     89 N          -5.0067  -20.8091  -49.3700 N.am      16 UNK        -0.5000 
     90 CA         -6.1637  -20.2306  -48.6859 C.3       16 UNK         0.1400 
     91 CB         -7.1389  -21.3600  -48.3189 C.3       16 UNK        -0.1800 
     92 C          -6.8688  -19.1781  -49.5609 C.2       16 UNK         0.5000 
     93 O          -7.2302  -19.4854  -50.6978 O.2       16 UNK        -0.5000 
     94 N          -6.9997  -17.9492  -49.0417 N.am      17 UNK        -0.5000 
     95 CA         -7.5524  -16.7698  -49.7250 C.3       17 UNK         0.1400 
     96 CB         -9.0730  -16.9310  -49.9327 C.3       17 UNK        -0.1800 
     97 C          -6.8080  -16.4051  -51.0326 C.2       17 UNK         0.5000 
     98 O          -7.4173  -15.8618  -51.9550 O.2       17 UNK        -0.5000 
     99 N          -5.5072  -16.7309  -51.0873 N.am      18 UNK        -0.5000 
    100 CA        -4.5888  -16.5878  -52.2199 C.3       18 UNK         0.1400 
    101 CB        -4.4486  -15.1159  -52.6635 C.3       18 UNK        -0.1800 
    102 C         -4.8825  -17.5357  -53.4028 C.2       18 UNK         0.5000 
    103 O         -4.3204  -17.3352  -54.4814 O.2       18 UNK        -0.5000 
    104 N         -5.6952  -18.5851  -53.1977 N.am      19 UNK        -0.5000 
    105 CA        -5.9350  -19.6564  -54.1718 C.3       19 UNK         0.1400 
    106 CB        -7.2929  -20.3192  -53.8815 C.3       19 UNK        -0.1800 
    107 C         -4.7638  -20.6611  -54.1555 C.2       19 UNK         0.5000 
    108 O         -4.9236  -21.8056  -53.7299 O.2       19 UNK        -0.5000 
    109 N         -3.5845  -20.1689  -54.5486 N.am      20 UNK        -0.5000 
    110 CA        -2.2903  -20.8340  -54.4626 C.3       20 UNK         0.1400 
    111 CB        -1.2015  -19.8305  -54.8731 C.3       20 UNK        -0.1800 
    112 C         -2.1914  -22.1222  -55.2948 C.2       20 UNK         0.5000 
    113 O         -2.3525  -22.0791  -56.5158 O.2       20 UNK        -0.5000 
    114 N         -1.8388  -23.2241  -54.6219 N.am      21 UNK        -0.5000 
    115 CA        -1.4106  -24.4866  -55.2305 C.3       21 UNK         0.1400 
    116 CB        -1.7187  -25.6311  -54.2503 C.3       21 UNK        -0.1800 
    117 C          0.0881  -24.4770  -55.6147 C.2       21 UNK         0.5000 
    118 O          0.6024  -25.4983  -56.0720 O.2       21 UNK        -0.5000 
    119 N          0.7626  -23.3378  -55.4035 N.am      22 UNK        -0.5000 
    120 CA         2.1982  -23.0927  -55.6215 C.3       22 UNK         0.1400 
    121 C          2.7020  -23.2700  -57.0856 C.2       22 UNK         0.5000 
    122 N          1.8395  -23.2579  -58.0946 N.am      22 UNK        -0.7600 
    123 O          3.9007  -23.4173  -57.3078 O.2       22 UNK        -0.5000 
    124 C124        2.6198  -21.6939  -55.0931 C.3       23 UNK        -0.0398 
    125 S125        2.0934  -21.3554  -53.3772 S.3       23 UNK        -0.2404 
    126 C126        2.4717  -19.5755  -53.2662 C.3       23 UNK        -0.0205 
    127 H127       -6.5537  -13.3082  -50.6579 H         1 UNK         0.0600 
    128 H128       -5.7495  -11.7624  -50.3740 H         1 UNK         0.0600 
    129 H129       -6.8919  -12.3936  -49.1845 H         1 UNK         0.0600 
    130 H130       -3.6258  -12.0726  -49.8273 H         1 UNK         0.3000 
    131 H131       -1.7224  -12.8658  -49.1732 H         1 UNK         0.0600 
    132 H132       -2.7497  -15.6279  -48.3928 H         1 UNK         0.0800 
    133 H133       -2.7163  -15.1508  -50.0581 H         1 UNK         0.0800 
    134 H134       -1.4516  -17.3954  -50.1057 H         1 UNK         0.0800 
    135 H135       -0.9051  -16.3447  -51.3937 H         1 UNK         0.0800 
    136 H136        0.4395  -17.8413  -52.6717 H         1 UNK         0.1150 
    137 H137        3.6107  -20.0746  -50.8537 H         1 UNK         0.1150 
    138 H138        1.0451  -17.6461  -48.4318 H         1 UNK         0.1150 
    139 H139        4.2213  -19.4156  -48.4721 H         1 UNK         0.0800 
    140 H140        3.0173  -18.6763  -47.4464 H         1 UNK         0.0800 
    141 H141        0.4421  -19.9534  -47.7836 H         1 UNK         0.0800 
    142 H142        1.0839  -20.1062  -46.1618 H         1 UNK         0.0800 
    143 H143       -0.0270  -22.4077  -47.8066 H         1 UNK         0.0600 
    144 H144        1.4471  -22.4512  -45.3796 H         1 UNK         0.3000 
    145 H145        0.2245  -25.4690  -44.0320 H         1 UNK         0.0600 
    146 H146        2.6016  -26.1424  -44.2564 H         1 UNK         0.0600 
    147 H147        1.8018  -26.2382  -45.8178 H         1 UNK         0.0600 
    148 H148        2.8743  -24.8875  -45.4651 H         1 UNK         0.0600 
    149 H149        2.3984  -23.7291  -43.3177 H         1 UNK         0.3000 
    150 H150        0.4606  -21.7610  -41.0083 H         1 UNK         0.0600 
    151 H151        1.4012  -23.8488  -40.0601 H         1 UNK         0.0600 
    152 H152        2.4313  -22.4695  -39.7113 H         1 UNK         0.0600 
    153 H153        2.8924  -23.6226  -40.9606 H         1 UNK         0.0600 
    154 H154        1.7371  -20.2478  -41.8927 H         1 UNK         0.3000 
    155 H155        4.9609  -19.9937  -42.8493 H         1 UNK         0.0600 
    156 H156        2.9019  -19.4888  -45.0422 H         1 UNK         0.0600 
    157 H157        4.5290  -18.8334  -44.9554 H         1 UNK         0.0600 
    158 H158        4.2955  -20.5546  -45.2189 H         1 UNK         0.0600 
    159 H159        2.5945  -18.2644  -43.0482 H         1 UNK         0.3000 
    160 H160        2.6887  -17.2387  -39.6811 H         1 UNK         0.0600 
    161 H161        3.6274  -15.6274  -42.1128 H         1 UNK         0.0600 
    162 H162        4.5431  -15.8467  -40.6253 H         1 UNK         0.0600 
    163 H163        3.0248  -14.9644  -40.5939 H         1 UNK         0.0600 
    164 H164        1.2228  -16.2100  -41.8767 H         1 UNK         0.3000 
    165 H165       -1.4812  -18.5995  -41.7060 H         1 UNK         0.0600 
    166 H166       -2.6817  -16.4370  -41.4132 H         1 UNK         0.0600 
    167 H167       -1.8457  -16.9001  -39.9378 H         1 UNK         0.0600 
    168 H168       -1.1710  -15.6452  -40.9676 H         1 UNK         0.0600 
    169 H169       -1.2194  -16.3830  -43.4087 H         1 UNK         0.3000 
    170 H170        0.3605  -18.0348  -46.1598 H         1 UNK         0.0600 
    171 H171       -2.4313  -16.8644  -45.7565 H         1 UNK         0.0600 
    172 H172       -1.6619  -17.3643  -47.2636 H         1 UNK         0.0600 
    173 H173       -2.1288  -18.5625  -46.0815 H         1 UNK         0.0600 
    174 H174       -0.5834  -15.3547  -45.4611 H         1 UNK         0.3000 
    175 H175        2.6465  -14.1202  -44.7494 H         1 UNK         0.0600 
    176 H176        2.1937  -12.4979  -46.5730 H         1 UNK         0.0600 
    177 H177        1.0178  -13.5969  -47.2909 H         1 UNK         0.0600 
    178 H178        2.7173  -14.0392  -47.2360 H         1 UNK         0.0600 
    179 H179        0.0522  -12.9022  -45.1079 H         1 UNK         0.3000 
    180 H180       -1.0865  -13.4521  -41.7738 H         1 UNK         0.0600 
    181 H181        0.0562  -10.8826  -42.9880 H         1 UNK         0.0600 
    182 H182        0.5682  -11.6028  -41.4662 H         1 UNK         0.0600 
    183 H183       -1.0673  -10.9853  -41.6317 H         1 UNK         0.0600 
    184 H184       -2.1574  -11.7746  -43.7402 H         1 UNK         0.3000 
    185 H185       -4.5788  -13.9449  -44.7550 H         1 UNK         0.0600 
    186 H186       -4.4285  -11.6153  -43.8331 H         1 UNK         0.0600 
    187 H187       -3.4221  -11.1356  -45.2020 H         1 UNK         0.0600 
    188 H188       -5.0852  -11.6415  -45.4576 H         1 UNK         0.0600 
    189 H189       -4.2297  -14.0367  -46.9611 H         1 UNK         0.3000 
    190 H190       -1.1438  -21.8980  -44.5150 H         1 UNK         0.3000 
    191 H191       -3.4475  -20.3000  -45.1528 H         1 UNK         0.0600 
    192 H192       -2.4591  -20.5659  -42.8399 H         1 UNK         0.0600 
    193 H193       -4.1875  -20.8814  -42.9057 H         1 UNK         0.0600 
    194 H194       -3.0608  -22.2244  -42.8078 H         1 UNK         0.0600 
    195 H195       -2.6896  -23.6531  -45.6556 H         1 UNK         0.3000 
    196 H196       -5.5117  -24.2968  -46.4106 H         1 UNK         0.0600 
    197 H197       -4.7070  -26.6519  -46.4310 H         1 UNK         0.0600 
    198 H198       -4.4862  -25.9220  -44.8483 H         1 UNK         0.0600 
    199 H199       -3.1047  -26.1331  -45.9203 H         1 UNK         0.0600 
    200 H200       -2.0794  -24.5615  -47.5275 H         1 UNK         0.3000 
    201 H201       -2.7666  -25.4276  -50.1414 H         1 UNK         0.0600 
    202 H202       -0.6345  -25.9850  -49.0000 H         1 UNK         0.0600 
    203 H203       -0.3297  -25.2277  -50.5549 H         1 UNK         0.0600 
    204 H204       -0.1262  -24.3007  -49.0766 H         1 UNK         0.0600 
    205 H205       -2.7551  -22.1789  -48.9179 H         1 UNK         0.3000 
    206 H206       -3.3567  -21.1710  -51.5913 H         1 UNK         0.0600 
    207 H207       -0.8441  -20.8523  -51.3241 H         1 UNK         0.0600 
    208 H208       -1.7240  -19.3405  -51.4493 H         1 UNK         0.0600 
    209 H209       -1.1549  -19.9027  -49.8753 H         1 UNK         0.0600 
    210 H210       -5.0311  -21.8088  -49.5144 H         1 UNK         0.3000 
    211 H211       -5.8060  -19.7631  -47.7663 H         1 UNK         0.0600 
    212 H212       -7.5394  -21.8506  -49.2071 H         1 UNK         0.0600 
    213 H213       -7.9832  -20.9752  -47.7458 H         1 UNK         0.0600 
    214 H214       -6.6541  -22.1238  -47.7119 H         1 UNK         0.0600 
    215 H215       -6.6412  -17.7787  -48.1123 H         1 UNK         0.3000 
    216 H216       -7.4044  -15.9274  -49.0488 H         1 UNK         0.0600 
    217 H217       -9.5184  -16.0067  -50.3022 H         1 UNK         0.0600 
    218 H218       -9.5748  -17.1789  -48.9974 H         1 UNK         0.0600 
    219 H219       -9.3021  -17.7155  -50.6547 H         1 UNK         0.0600 
    220 H220       -5.1149  -17.2236  -50.2922 H         1 UNK         0.3000 
    221 H221       -3.6156  -16.9001  -51.8387 H         1 UNK         0.0600 
    222 H222       -5.3544  -14.7467  -53.1445 H         1 UNK         0.0600 
    223 H223       -4.2271  -14.4641  -51.8209 H         1 UNK         0.0600 
    224 H224       -3.6335  -14.9999  -53.3787 H         1 UNK         0.0600 
    225 H225       -6.1224  -18.7105  -52.2859 H         1 UNK         0.3000 
    226 H226       -5.9901  -19.2248  -55.1735 H         1 UNK         0.0600 
    227 H227       -8.0972  -19.5835  -53.8676 H         1 UNK         0.0600 
    228 H228       -7.5362  -21.0549  -54.6487 H         1 UNK         0.0600 
    229 H229       -7.2966  -20.8374  -52.9224 H         1 UNK         0.0600 
    230 H230       -3.5712  -19.2032  -54.8582 H         1 UNK         0.3000 
    231 H231       -2.1149  -21.0950  -53.4214 H         1 UNK         0.0600 
    232 H232       -1.3601  -19.4571  -55.8856 H         1 UNK         0.0600 
    233 H233       -0.2136  -20.2874  -54.8469 H         1 UNK         0.0600 
    234 H234       -1.1812  -18.9740  -54.1992 H         1 UNK         0.0600 
    235 H235       -1.8112  -23.1982  -53.6043 H         1 UNK         0.3000 
    236 H236       -1.9826  -24.6572  -56.1447 H         1 UNK         0.0600 
    237 H237       -2.7734  -25.6406  -53.9743 H         1 UNK         0.0600 
    238 H238       -1.4908  -26.6014  -54.6932 H         1 UNK         0.0600 
    239 H239       -1.1343  -25.5425  -53.3335 H         1 UNK         0.0600 
    240 H240        0.2548  -22.5711  -54.9918 H         1 UNK         0.3000 
    241 H241        2.7272  -23.8417  -55.0297 H         1 UNK         0.0600 
    242 H242        0.8528  -23.1444  -57.9250 H         1 UNK         0.3800 
    243 H243        2.1760  -23.3760  -59.0375 H         1 UNK         0.3800 
    244 H244        3.7051  -21.5844  -55.1366 H         1 UNK         0.0800 
    245 H245        2.2082  -20.9138  -55.7363 H         1 UNK         0.0800 
    246 H246        3.5397  -19.4215  -53.4270 H         1 UNK         0.0800 
    247 H247        1.9566  -19.0443  -54.0680 H         1 UNK         0.0800 
@<TRIPOS>BOND
     1    1    2 1    
     2    1  127 1    
     3    1  128 1    
     4    1  129 1    
     5    2    3 2    
     6    2    4 am   BACKBONE|DICT|INTERRES
     7    4    5 1    
     8    4  130 1    
     9    5    6 1    
    10    5   65 1    
    11    5  131 1    
    12    6    7 1    
    13    6  132 1    
    14    6  133 1    
    15    7    8 1    
    16    8    9 1    
    17    8  134 1    
    18    8  135 1    
    19    9   10 ar   
    20    9   14 ar   
    21   10   11 ar   
    22   10  136 1    
    23   11   12 ar   
    24   11  126 1    
    25   12   13 ar   
    26   12  137 1    
    27   13   14 ar   
    28   13   15 1    
    29   14  138 1    
    30   15   16 1    
    31   15  139 1    
    32   15  140 1    
    33   16   17 1    
    34   17   18 1    
    35   17  141 1    
    36   17  142 1    
    37   18   19 1    
    38   18   67 1    
    39   18  143 1    
    40   19   20 am   BACKBONE|DICT|INTERRES
    41   19  144 1    
    42   20   21 2    
    43   20   22 1    
    44   22   23 1    
    45   22   24 1    
    46   22  145 1    
    47   23  146 1    
    48   23  147 1    
    49   23  148 1    
    50   24   25 am   BACKBONE|DICT|INTERRES
    51   24  149 1    
    52   25   26 2    
    53   25   27 1    
    54   27   28 1    
    55   27   29 1    
    56   27  150 1    
    57   28  151 1    
    58   28  152 1    
    59   28  153 1    
    60   29   30 am   BACKBONE|DICT|INTERRES
    61   29  154 1    
    62   30   31 2    
    63   30   32 1    
    64   32   33 1    
    65   32   34 1    
    66   32  155 1    
    67   33  156 1    
    68   33  157 1    
    69   33  158 1    
    70   34   35 am   BACKBONE|DICT|INTERRES
    71   34  159 1    
    72   35   36 2    
    73   35   37 1    
    74   37   38 1    
    75   37   39 1    
    76   37  160 1    
    77   38  161 1    
    78   38  162 1    
    79   38  163 1    
    80   39   40 am   BACKBONE|DICT|INTERRES
    81   39  164 1    
    82   40   41 2    
    83   40   42 1    
    84   42   43 1    
    85   42   44 1    
    86   42  165 1    
    87   43  166 1    
    88   43  167 1    
    89   43  168 1    
    90   44   45 am   BACKBONE|DICT|INTERRES
    91   44  169 1    
    92   45   46 2    
    93   45   47 1    
    94   47   48 1    
    95   47   49 1    
    96   47  170 1    
    97   48  171 1    
    98   48  172 1    
    99   48  173 1    
   100   49   50 am   BACKBONE|DICT|INTERRES
   101   49  174 1    
   102   50   51 2    
   103   50   52 1    
   104   52   53 1    
   105   52   54 1    
   106   52  175 1    
   107   53  176 1    
   108   53  177 1    
   109   53  178 1    
   110   54   55 am   BACKBONE|DICT|INTERRES
   111   54  179 1    
   112   55   56 2    
   113   55   57 1    
   114   57   58 1    
   115   57   59 1    
   116   57  180 1    
   117   58  181 1    
   118   58  182 1    
   119   58  183 1    
   120   59   60 am   BACKBONE|DICT|INTERRES
   121   59  184 1    
   122   60   61 2    
   123   60   62 1    
   124   62   63 1    
   125   62   64 1    
   126   62  185 1    
   127   63  186 1    
   128   63  187 1    
   129   63  188 1    
   130   64   65 am   BACKBONE|DICT|INTERRES
   131   64  189 1    
   132   65   66 2    
   133   67   68 2    
   134   67   69 am   BACKBONE|DICT|INTERRES
   135   69   70 1    
   136   69  190 1    
   137   70   71 1    
   138   70   72 1    
   139   70  191 1    
   140   71  192 1    
   141   71  193 1    
   142   71  194 1    
   143   72   73 2    
   144   72   74 am   BACKBONE|DICT|INTERRES
   145   74   75 1    
   146   74  195 1    
   147   75   76 1    
   148   75   77 1    
   149   75  196 1    
   150   76  197 1    
   151   76  198 1    
   152   76  199 1    
   153   77   78 2    
   154   77   79 am   BACKBONE|DICT|INTERRES
   155   79   80 1    
   156   79  200 1    
   157   80   81 1    
   158   80   82 1    
   159   80  201 1    
   160   81  202 1    
   161   81  203 1    
   162   81  204 1    
   163   82   83 2    
   164   82   84 am   BACKBONE|DICT|INTERRES
   165   84   85 1    
   166   84  205 1    
   167   85   86 1    
   168   85   87 1    
   169   85  206 1    
   170   86  207 1    
   171   86  208 1    
   172   86  209 1    
   173   87   88 2    
   174   87   89 am   BACKBONE|DICT|INTERRES
   175   89   90 1    
   176   89  210 1    
   177   90   91 1    
   178   90   92 1    
   179   90  211 1    
   180   91  212 1    
   181   91  213 1    
   182   91  214 1    
   183   92   93 2    
   184   92   94 am   BACKBONE|DICT|INTERRES
   185   94   95 1    
   186   94  215 1    
   187   95   96 1    
   188   95   97 1    
   189   95  216 1    
   190   96  217 1    
   191   96  218 1    
   192   96  219 1    
   193   97   98 2    
   194   97   99 am   BACKBONE|DICT|INTERRES
   195   99  100 1    
   196   99  220 1    
   197  100  101 1    
   198  100  102 1    
   199  100  221 1    
   200  101  222 1    
   201  101  223 1    
   202  101  224 1    
   203  102  103 2    
   204  102  104 am   BACKBONE|DICT|INTERRES
   205  104  105 1    
   206  104  225 1    
   207  105  106 1    
   208  105  107 1    
   209  105  226 1    
   210  106  227 1    
   211  106  228 1    
   212  106  229 1    
   213  107  108 2    
   214  107  109 am   BACKBONE|DICT|INTERRES
   215  109  110 1    
   216  109  230 1    
   217  110  111 1    
   218  110  112 1    
   219  110  231 1    
   220  111  232 1    
   221  111  233 1    
   222  111  234 1    
   223  112  113 2    
   224  112  114 am   BACKBONE|DICT|INTERRES
   225  114  115 1    
   226  114  235 1    
   227  115  116 1    
   228  115  117 1    
   229  115  236 1    
   230  116  237 1    
   231  116  238 1    
   232  116  239 1    
   233  117  118 2    
   234  117  119 am   BACKBONE|DICT|INTERRES
   235  119  120 1    
   236  119  240 1    
   237  120  121 1    
   238  120  124 1    
   239  120  241 1    
   240  121  122 am   BACKBONE|DICT|INTERRES
   241  121  123 2    
   242  122  242 1    
   243  122  243 1    
   244  124  125 1    
   245  124  244 1    
   246  124  245 1    
   247  125  126 1    
   248  126  246 1    
   249  126  247 1    
@<TRIPOS>SUBSTRUCTURE
     1 UNK         1 GROUP             0       ****    0 ROOT    
