@<TRIPOS>MOLECULE
3R540
247   249    1
SMALL
USER_CHARGES


@<TRIPOS>ATOM
      1 CA         -3.4342  -16.4702  -46.9732 C.3       0 UNK        -0.1800 
      2 C          -2.1777  -15.6118  -46.9994 C.2       0 UNK         0.5000 
      3 O          -1.0989  -16.1262  -46.7142 O.2       0 UNK        -0.5000 
      4 N          -2.3283  -14.3225  -47.3428 N.am      1 UNK        -0.5000 
      5 CA         -1.3073  -13.2738  -47.5163 C.3       1 UNK         0.1400 
      6 C6         -0.7928  -13.1334  -48.9809 C.3       23 UNK        -0.0398 
      7 S7          0.0915  -14.5697  -49.6884 S.3       23 UNK        -0.2404 
      8 C8         -1.2526  -15.4235  -50.5756 C.3       23 UNK        -0.0205 
      9 C9         -0.8820  -16.8386  -51.0074 C.ar      23 UNK        -0.0193 
     10 C10        -1.2558  -17.2976  -52.2727 C.ar      23 UNK        -0.1150 
     11 C11        -0.9808  -18.6108  -52.6628 C.ar      23 UNK        -0.0193 
     12 C12        -0.3138  -19.4631  -51.7782 C.ar      23 UNK        -0.1150 
     13 C13         0.0880  -19.0213  -50.5139 C.ar      23 UNK        -0.0193 
     14 C14        -0.2083  -17.7045  -50.1381 C.ar      23 UNK        -0.1150 
     15 C15         0.8445  -20.0079  -49.6186 C.3       23 UNK        -0.0205 
     16 S16         1.4967  -19.3664  -48.0314 S.3       23 UNK        -0.2404 
     17 C17         0.0028  -19.1824  -46.9950 C.3       23 UNK        -0.0398 
     18 CA         -0.7489  -20.5002  -46.7205 C.3       11 UNK         0.1400 
     19 N           0.1084  -21.5531  -46.1764 N.am      11 UNK        -0.5000 
     20 C          -0.1517  -22.8598  -46.3005 C.2       10 UNK         0.5000 
     21 O          -1.1410  -23.2992  -46.8811 O.2       10 UNK        -0.5000 
     22 CA          0.8349  -23.8336  -45.6337 C.3       10 UNK         0.1400 
     23 CB          2.0593  -24.0584  -46.5333 C.3       10 UNK        -0.1800 
     24 N           1.2726  -23.3652  -44.3187 N.am      10 UNK        -0.5000 
     25 C           0.4638  -23.2369  -43.2576 C.2       9 UNK         0.5000 
     26 O          -0.7202  -23.5741  -43.2582 O.2       9 UNK        -0.5000 
     27 CA          1.0646  -22.5810  -41.9995 C.3       9 UNK         0.1400 
     28 CB          1.6513  -23.6484  -41.0643 C.3       9 UNK        -0.1800 
     29 N           2.0889  -21.5674  -42.2716 N.am      9 UNK        -0.5000 
     30 C           1.9295  -20.4644  -43.0149 C.2       8 UNK         0.5000 
     31 O           0.8937  -20.1968  -43.6262 O.2       8 UNK        -0.5000 
     32 CA          3.1241  -19.4926  -43.0440 C.3       8 UNK         0.1400 
     33 CB          3.0178  -18.4603  -44.1806 C.3       8 UNK        -0.1800 
     34 N           3.2327  -18.7915  -41.7657 N.am      8 UNK        -0.5000 
     35 C           3.7452  -19.2977  -40.6374 C.2       7 UNK         0.5000 
     36 O           4.2593  -20.4171  -40.5791 O.2       7 UNK        -0.5000 
     37 CA          3.6625  -18.4089  -39.3740 C.3       7 UNK         0.1400 
     38 CB          4.3721  -19.0378  -38.1610 C.3       7 UNK        -0.1800 
     39 N           4.1994  -17.0607  -39.5827 N.am      7 UNK        -0.5000 
     40 C           3.5876  -16.0733  -40.2472 C.2       6 UNK         0.5000 
     41 O           2.4832  -16.2029  -40.7790 O.2       6 UNK        -0.5000 
     42 CA          4.3494  -14.7440  -40.3531 C.3       6 UNK         0.1400 
     43 CB          5.6224  -14.8970  -41.2058 C.3       6 UNK        -0.1800 
     44 N           3.4918  -13.7337  -40.9629 N.am      6 UNK        -0.5000 
     45 C           3.5175  -12.4237  -40.6997 C.2       5 UNK         0.5000 
     46 O           4.2556  -11.9112  -39.8569 O.2       5 UNK        -0.5000 
     47 CA          2.5735  -11.5270  -41.5181 C.3       5 UNK         0.1400 
     48 CB          3.2465  -11.1142  -42.8372 C.3       5 UNK        -0.1800 
     49 N           1.3044  -12.1875  -41.8256 N.am      5 UNK        -0.5000 
     50 C           0.1518  -11.9696  -41.1773 C.2       4 UNK         0.5000 
     51 O           0.0499  -11.2214  -40.2040 O.2       4 UNK        -0.5000 
     52 CA         -1.1110  -12.6779  -41.7083 C.3       4 UNK         0.1400 
     53 CB         -1.9852  -11.6915  -42.4984 C.3       4 UNK        -0.1800 
     54 N          -0.7938  -13.8208  -42.5648 N.am      4 UNK        -0.5000 
     55 C          -0.5680  -15.0603  -42.1060 C.2       3 UNK         0.5000 
     56 O          -0.7168  -15.3815  -40.9266 O.2       3 UNK        -0.5000 
     57 CA         -0.0986  -16.1239  -43.1212 C.3       3 UNK         0.1400 
     58 CB         -1.2596  -17.0550  -43.4966 C.3       3 UNK        -0.1800 
     59 N           0.4887  -15.5736  -44.3470 N.am      3 UNK        -0.5000 
     60 C           1.6015  -14.8274  -44.4042 C.2       2 UNK         0.5000 
     61 O           2.2719  -14.5305  -43.4176 O.2       2 UNK        -0.5000 
     62 CA          2.0096  -14.2592  -45.7759 C.3       2 UNK         0.1400 
     63 CB          3.0013  -15.2090  -46.4639 C.3       2 UNK        -0.1800 
     64 N           0.8872  -14.0120  -46.6809 N.am      2 UNK        -0.5000 
     65 C          -0.2015  -13.2721  -46.4337 C.2       1 UNK         0.5000 
     66 O          -0.3757  -12.6453  -45.3870 O.2       1 UNK        -0.5000 
     67 C          -1.9860  -20.2593  -45.8370 C.2       11 UNK         0.5000 
     68 O          -3.0434  -19.9178  -46.3667 O.2       11 UNK        -0.5000 
     69 N          -1.8591  -20.4934  -44.5226 N.am      12 UNK        -0.5000 
     70 CA         -2.9721  -20.4853  -43.5704 C.3       12 UNK         0.1400 
     71 CB         -2.4320  -20.6367  -42.1412 C.3       12 UNK        -0.1800 
     72 C          -4.0197  -21.5739  -43.8816 C.2       12 UNK         0.5000 
     73 O          -5.2116  -21.3499  -43.6668 O.2       12 UNK        -0.5000 
     74 N          -3.5714  -22.7027  -44.4505 N.am      13 UNK        -0.5000 
     75 CA         -4.4017  -23.7673  -45.0142 C.3       13 UNK         0.1400 
     76 CB         -3.5884  -25.0733  -45.0483 C.3       13 UNK        -0.1800 
     77 C          -4.9696  -23.3753  -46.3979 C.2       13 UNK         0.5000 
     78 O          -4.7084  -24.0490  -47.3973 O.2       13 UNK        -0.5000 
     79 N          -5.7388  -22.2774  -46.4204 N.am      14 UNK        -0.5000 
     80 CA         -6.5015  -21.7337  -47.5484 C.3       14 UNK         0.1400 
     81 CB         -7.7169  -22.6388  -47.8400 C.3       14 UNK        -0.1800 
     82 C          -5.6466  -21.4665  -48.8041 C.2       14 UNK         0.5000 
     83 O          -6.0130  -21.8981  -49.8976 O.2       14 UNK        -0.5000 
     84 N          -4.5077  -20.7818  -48.6226 N.am      15 UNK        -0.5000 
     85 CA         -3.5276  -20.4342  -49.6592 C.3       15 UNK         0.1400 
     86 CB         -4.1351  -19.4269  -50.6547 C.3       15 UNK        -0.1800 
     87 C          -2.9264  -21.6869  -50.3338 C.2       15 UNK         0.5000 
     88 O          -2.8295  -21.7533  -51.5610 O.2       15 UNK        -0.5000 
     89 N          -2.5802  -22.6803  -49.4992 N.am      16 UNK        -0.5000 
     90 CA         -2.1137  -24.0220  -49.8621 C.3       16 UNK         0.1400 
     91 CB         -0.6975  -23.9583  -50.4700 C.3       16 UNK        -0.1800 
     92 C          -3.1451  -24.7736  -50.7273 C.2       16 UNK         0.5000 
     93 O          -2.7971  -25.3400  -51.7646 O.2       16 UNK        -0.5000 
     94 N          -4.4095  -24.7231  -50.2781 N.am      17 UNK        -0.5000 
     95 CA         -5.6195  -25.1984  -50.9576 C.3       17 UNK         0.1400 
     96 CB         -5.6446  -26.7401  -51.0033 C.3       17 UNK        -0.1800 
     97 C          -5.8155  -24.5421  -52.3432 C.2       17 UNK         0.5000 
     98 O          -6.1489  -25.2284  -53.3112 O.2       17 UNK        -0.5000 
     99 N          -5.5841  -23.2213  -52.3969 N.am      18 UNK        -0.5000 
    100 CA        -5.5629  -22.3484  -53.5732 C.3       18 UNK         0.1400 
    101 CB        -6.9948  -22.1147  -54.0946 C.3       18 UNK        -0.1800 
    102 C         -4.6005  -22.8682  -54.6595 C.2       18 UNK         0.5000 
    103 O         -5.0392  -23.2204  -55.7575 O.2       18 UNK        -0.5000 
    104 N         -3.3090  -22.9511  -54.3100 N.am      19 UNK        -0.5000 
    105 CA        -2.2350  -23.4926  -55.1472 C.3       19 UNK         0.1400 
    106 CB        -0.9038  -23.4245  -54.3848 C.3       19 UNK        -0.1800 
    107 C         -2.1355  -22.7959  -56.5189 C.2       19 UNK         0.5000 
    108 O         -1.8162  -21.6072  -56.5836 O.2       19 UNK        -0.5000 
    109 N         -2.4685  -23.5448  -57.5821 N.am      20 UNK        -0.5000 
    110 CA        -2.5788  -23.1052  -58.9813 C.3       20 UNK         0.1400 
    111 CB        -1.1874  -22.7539  -59.5483 C.3       20 UNK        -0.1800 
    112 C         -3.6107  -21.9716  -59.1905 C.2       20 UNK         0.5000 
    113 O         -3.4512  -21.1540  -60.0984 O.2       20 UNK        -0.5000 
    114 N         -4.6255  -21.9191  -58.3122 N.am      21 UNK        -0.5000 
    115 CA        -5.6483  -20.8757  -58.1625 C.3       21 UNK         0.1400 
    116 CB        -6.5141  -20.7560  -59.4336 C.3       21 UNK        -0.1800 
    117 C         -5.0947  -19.5077  -57.7011 C.2       21 UNK         0.5000 
    118 O         -5.8564  -18.5414  -57.6427 O.2       21 UNK        -0.5000 
    119 N         -3.7968  -19.4470  -57.3712 N.am      22 UNK        -0.5000 
    120 CA        -3.0438  -18.2613  -56.9324 C.3       22 UNK         0.1400 
    121 C         -2.9947  -17.0911  -57.9630 C.2       22 UNK         0.5000 
    122 N         -3.1748  -17.3487  -59.2533 N.am      22 UNK        -0.7600 
    123 O         -2.7588  -15.9410  -57.6021 O.2       22 UNK        -0.5000 
    124 C124       -3.4194  -17.8066  -55.4942 C.3       23 UNK        -0.0398 
    125 S125       -3.1957  -19.1446  -54.2715 S.3       23 UNK        -0.2404 
    126 C126       -1.3866  -19.1071  -54.0426 C.3       23 UNK        -0.0205 
    127 H127       -3.5541  -16.9332  -45.9939 H         1 UNK         0.0600 
    128 H128       -3.3560  -17.2654  -47.7150 H         1 UNK         0.0600 
    129 H129       -4.3308  -15.8889  -47.1888 H         1 UNK         0.0600 
    130 H130       -3.2694  -14.0014  -47.5201 H         1 UNK         0.3000 
    131 H131       -1.8578  -12.3511  -47.3246 H         1 UNK         0.0600 
    132 H132       -1.6333  -12.8938  -49.6334 H         1 UNK         0.0800 
    133 H133       -0.1276  -12.2713  -49.0527 H         1 UNK         0.0800 
    134 H134       -1.5325  -14.8194  -51.4400 H         1 UNK         0.0800 
    135 H135       -2.1358  -15.4838  -49.9404 H         1 UNK         0.0800 
    136 H136       -1.7791  -16.6395  -52.9515 H         1 UNK         0.1150 
    137 H137       -0.1010  -20.4799  -52.0784 H         1 UNK         0.1150 
    138 H138        0.0886  -17.3301  -49.1712 H         1 UNK         0.1150 
    139 H139        0.2234  -20.8847  -49.4387 H         1 UNK         0.0800 
    140 H140        1.7031  -20.3720  -50.1844 H         1 UNK         0.0800 
    141 H141       -0.6758  -18.4831  -47.4789 H         1 UNK         0.0800 
    142 H142        0.3093  -18.7120  -46.0592 H         1 UNK         0.0800 
    143 H143       -1.1366  -20.8535  -47.6752 H         1 UNK         0.0600 
    144 H144        0.8992  -21.2500  -45.6252 H         1 UNK         0.3000 
    145 H145        0.3237  -24.7899  -45.5032 H         1 UNK         0.0600 
    146 H146        2.6250  -23.1381  -46.6842 H         1 UNK         0.0600 
    147 H147        2.7326  -24.8009  -46.1047 H         1 UNK         0.0600 
    148 H148        1.7580  -24.4229  -47.5165 H         1 UNK         0.0600 
    149 H149        2.2332  -23.0686  -44.2304 H         1 UNK         0.3000 
    150 H150        0.2509  -22.0809  -41.4722 H         1 UNK         0.0600 
    151 H151        0.9052  -24.4047  -40.8167 H         1 UNK         0.0600 
    152 H152        1.9896  -23.2080  -40.1261 H         1 UNK         0.0600 
    153 H153        2.4998  -24.1599  -41.5205 H         1 UNK         0.0600 
    154 H154        2.9591  -21.6589  -41.7601 H         1 UNK         0.3000 
    155 H155        4.0316  -20.0767  -43.2104 H         1 UNK         0.0600 
    156 H156        2.9968  -18.9529  -45.1533 H         1 UNK         0.0600 
    157 H157        3.8684  -17.7785  -44.1786 H         1 UNK         0.0600 
    158 H158        2.1117  -17.8626  -44.1014 H         1 UNK         0.0600 
    159 H159        2.8130  -17.8680  -41.7099 H         1 UNK         0.3000 
    160 H160        2.6033  -18.3217  -39.1230 H         1 UNK         0.0600 
    161 H161        4.2502  -18.4220  -37.2696 H         1 UNK         0.0600 
    162 H162        5.4407  -19.1625  -38.3398 H         1 UNK         0.0600 
    163 H163        3.9595  -20.0210  -37.9305 H         1 UNK         0.0600 
    164 H164        5.1200  -16.8907  -39.2042 H         1 UNK         0.3000 
    165 H165        4.6205  -14.4379  -39.3406 H         1 UNK         0.0600 
    166 H166        5.3857  -15.2264  -42.2186 H         1 UNK         0.0600 
    167 H167        6.1628  -13.9532  -41.2804 H         1 UNK         0.0600 
    168 H168        6.3084  -15.6260  -40.7735 H         1 UNK         0.0600 
    169 H169        2.8574  -14.0945  -41.6726 H         1 UNK         0.3000 
    170 H170        2.3940  -10.6188  -40.9389 H         1 UNK         0.0600 
    171 H171        3.4717  -11.9778  -43.4640 H         1 UNK         0.0600 
    172 H172        2.6088  -10.4414  -43.4109 H         1 UNK         0.0600 
    173 H173        4.1853  -10.5916  -42.6494 H         1 UNK         0.0600 
    174 H174        1.3244  -12.8727  -42.5704 H         1 UNK         0.3000 
    175 H175       -1.6881  -13.0167  -40.8453 H         1 UNK         0.0600 
    176 H176       -1.4487  -11.2670  -43.3475 H         1 UNK         0.0600 
    177 H177       -2.8850  -12.1762  -42.8776 H         1 UNK         0.0600 
    178 H178       -2.3046  -10.8617  -41.8667 H         1 UNK         0.0600 
    179 H179       -0.6604  -13.6235  -43.5510 H         1 UNK         0.3000 
    180 H180        0.6660  -16.7241  -42.6267 H         1 UNK         0.0600 
    181 H181       -2.0619  -16.5143  -43.9984 H         1 UNK         0.0600 
    182 H182       -1.6852  -17.5271  -42.6108 H         1 UNK         0.0600 
    183 H183       -0.9226  -17.8512  -44.1583 H         1 UNK         0.0600 
    184 H184       -0.0146  -15.7546  -45.2133 H         1 UNK         0.3000 
    185 H185        2.5066  -13.3032  -45.6013 H         1 UNK         0.0600 
    186 H186        3.3732  -14.7847  -47.3966 H         1 UNK         0.0600 
    187 H187        3.8656  -15.4019  -45.8267 H         1 UNK         0.0600 
    188 H188        2.5407  -16.1716  -46.6928 H         1 UNK         0.0600 
    189 H189        0.8944  -14.5312  -47.5498 H         1 UNK         0.3000 
    190 H190       -0.9340  -20.6900  -44.1533 H         1 UNK         0.3000 
    191 H191       -3.4642  -19.5137  -43.6488 H         1 UNK         0.0600 
    192 H192       -2.0367  -21.6361  -41.9648 H         1 UNK         0.0600 
    193 H193       -1.6379  -19.9190  -41.9346 H         1 UNK         0.0600 
    194 H194       -3.2236  -20.4685  -41.4102 H         1 UNK         0.0600 
    195 H195       -2.5731  -22.8054  -44.5781 H         1 UNK         0.3000 
    196 H196       -5.2544  -23.9316  -44.3523 H         1 UNK         0.0600 
    197 H197       -3.2267  -25.3381  -44.0545 H         1 UNK         0.0600 
    198 H198       -2.7241  -24.9975  -45.7072 H         1 UNK         0.0600 
    199 H199       -4.1991  -25.9037  -45.4045 H         1 UNK         0.0600 
    200 H200       -5.8384  -21.7781  -45.5422 H         1 UNK         0.3000 
    201 H201       -6.8811  -20.7630  -47.2268 H         1 UNK         0.0600 
    202 H202       -8.3534  -22.2049  -48.6121 H         1 UNK         0.0600 
    203 H203       -8.3328  -22.7701  -46.9504 H         1 UNK         0.0600 
    204 H204       -7.4111  -23.6273  -48.1843 H         1 UNK         0.0600 
    205 H205       -4.2539  -20.4908  -47.6809 H         1 UNK         0.3000 
    206 H206       -2.7039  -19.9267  -49.1572 H         1 UNK         0.0600 
    207 H207       -4.9188  -19.8734  -51.2665 H         1 UNK         0.0600 
    208 H208       -3.3714  -19.0484  -51.3298 H         1 UNK         0.0600 
    209 H209       -4.5593  -18.5667  -50.1372 H         1 UNK         0.0600 
    210 H210       -2.7277  -22.5506  -48.5071 H         1 UNK         0.3000 
    211 H211       -2.0456  -24.5932  -48.9359 H         1 UNK         0.0600 
    212 H212        0.0117  -23.5428  -49.7541 H         1 UNK         0.0600 
    213 H213       -0.3387  -24.9516  -50.7413 H         1 UNK         0.0600 
    214 H214       -0.6655  -23.3377  -51.3643 H         1 UNK         0.0600 
    215 H215       -4.5683  -24.2622  -49.3863 H         1 UNK         0.3000 
    216 H216       -6.4605  -24.8719  -50.3443 H         1 UNK         0.0600 
    217 H217       -6.5940  -27.1037  -51.3978 H         1 UNK         0.0600 
    218 H218       -4.8522  -27.1398  -51.6368 H         1 UNK         0.0600 
    219 H219       -5.5241  -27.1651  -50.0068 H         1 UNK         0.0600 
    220 H220       -5.3805  -22.7554  -51.5168 H         1 UNK         0.3000 
    221 H221       -5.1708  -21.3866  -53.2403 H         1 UNK         0.0600 
    222 H222       -7.4525  -23.0369  -54.4537 H         1 UNK         0.0600 
    223 H223       -7.6345  -21.7055  -53.3126 H         1 UNK         0.0600 
    224 H224       -6.9959  -21.4029  -54.9205 H         1 UNK         0.0600 
    225 H225       -3.0434  -22.6224  -53.3858 H         1 UNK         0.3000 
    226 H226       -2.4615  -24.5475  -55.3137 H         1 UNK         0.0600 
    227 H227       -0.9140  -24.1035  -53.5332 H         1 UNK         0.0600 
    228 H228       -0.0688  -23.7199  -55.0212 H         1 UNK         0.0600 
    229 H229       -0.6987  -22.4207  -54.0139 H         1 UNK         0.0600 
    230 H230       -2.7511  -24.5005  -57.4135 H         1 UNK         0.3000 
    231 H231       -2.9567  -23.9612  -59.5419 H         1 UNK         0.0600 
    232 H232       -1.2366  -22.5687  -60.6220 H         1 UNK         0.0600 
    233 H233       -0.4813  -23.5697  -59.3942 H         1 UNK         0.0600 
    234 H234       -0.7737  -21.8595  -59.0816 H         1 UNK         0.0600 
    235 H235       -4.6419  -22.6148  -57.5703 H         1 UNK         0.3000 
    236 H236       -6.2994  -21.2177  -57.3573 H         1 UNK         0.0600 
    237 H237       -6.8982  -21.7281  -59.7427 H         1 UNK         0.0600 
    238 H238       -7.3750  -20.1095  -59.2595 H         1 UNK         0.0600 
    239 H239       -5.9564  -20.3327  -60.2691 H         1 UNK         0.0600 
    240 H240       -3.2539  -20.3024  -57.3963 H         1 UNK         0.3000 
    241 H241       -2.0086  -18.6001  -56.8944 H         1 UNK         0.0600 
    242 H242       -3.1337  -16.5957  -59.9221 H         1 UNK         0.3800 
    243 H243       -3.3538  -18.2911  -59.5661 H         1 UNK         0.3800 
    244 H244       -2.8171  -16.9524  -55.1817 H         1 UNK         0.0800 
    245 H245       -4.4576  -17.4742  -55.4601 H         1 UNK         0.0800 
    246 H246       -1.0068  -20.1141  -54.2147 H         1 UNK         0.0800 
    247 H247       -0.9116  -18.4783  -54.7957 H         1 UNK         0.0800 
@<TRIPOS>BOND
     1    1    2 1    
     2    1  127 1    
     3    1  128 1    
     4    1  129 1    
     5    2    3 2    
     6    2    4 am   BACKBONE|DICT|INTERRES
     7    4    5 1    
     8    4  130 1    
     9    5    6 1    
    10    5   65 1    
    11    5  131 1    
    12    6    7 1    
    13    6  132 1    
    14    6  133 1    
    15    7    8 1    
    16    8    9 1    
    17    8  134 1    
    18    8  135 1    
    19    9   10 ar   
    20    9   14 ar   
    21   10   11 ar   
    22   10  136 1    
    23   11   12 ar   
    24   11  126 1    
    25   12   13 ar   
    26   12  137 1    
    27   13   14 ar   
    28   13   15 1    
    29   14  138 1    
    30   15   16 1    
    31   15  139 1    
    32   15  140 1    
    33   16   17 1    
    34   17   18 1    
    35   17  141 1    
    36   17  142 1    
    37   18   19 1    
    38   18   67 1    
    39   18  143 1    
    40   19   20 am   BACKBONE|DICT|INTERRES
    41   19  144 1    
    42   20   21 2    
    43   20   22 1    
    44   22   23 1    
    45   22   24 1    
    46   22  145 1    
    47   23  146 1    
    48   23  147 1    
    49   23  148 1    
    50   24   25 am   BACKBONE|DICT|INTERRES
    51   24  149 1    
    52   25   26 2    
    53   25   27 1    
    54   27   28 1    
    55   27   29 1    
    56   27  150 1    
    57   28  151 1    
    58   28  152 1    
    59   28  153 1    
    60   29   30 am   BACKBONE|DICT|INTERRES
    61   29  154 1    
    62   30   31 2    
    63   30   32 1    
    64   32   33 1    
    65   32   34 1    
    66   32  155 1    
    67   33  156 1    
    68   33  157 1    
    69   33  158 1    
    70   34   35 am   BACKBONE|DICT|INTERRES
    71   34  159 1    
    72   35   36 2    
    73   35   37 1    
    74   37   38 1    
    75   37   39 1    
    76   37  160 1    
    77   38  161 1    
    78   38  162 1    
    79   38  163 1    
    80   39   40 am   BACKBONE|DICT|INTERRES
    81   39  164 1    
    82   40   41 2    
    83   40   42 1    
    84   42   43 1    
    85   42   44 1    
    86   42  165 1    
    87   43  166 1    
    88   43  167 1    
    89   43  168 1    
    90   44   45 am   BACKBONE|DICT|INTERRES
    91   44  169 1    
    92   45   46 2    
    93   45   47 1    
    94   47   48 1    
    95   47   49 1    
    96   47  170 1    
    97   48  171 1    
    98   48  172 1    
    99   48  173 1    
   100   49   50 am   BACKBONE|DICT|INTERRES
   101   49  174 1    
   102   50   51 2    
   103   50   52 1    
   104   52   53 1    
   105   52   54 1    
   106   52  175 1    
   107   53  176 1    
   108   53  177 1    
   109   53  178 1    
   110   54   55 am   BACKBONE|DICT|INTERRES
   111   54  179 1    
   112   55   56 2    
   113   55   57 1    
   114   57   58 1    
   115   57   59 1    
   116   57  180 1    
   117   58  181 1    
   118   58  182 1    
   119   58  183 1    
   120   59   60 am   BACKBONE|DICT|INTERRES
   121   59  184 1    
   122   60   61 2    
   123   60   62 1    
   124   62   63 1    
   125   62   64 1    
   126   62  185 1    
   127   63  186 1    
   128   63  187 1    
   129   63  188 1    
   130   64   65 am   BACKBONE|DICT|INTERRES
   131   64  189 1    
   132   65   66 2    
   133   67   68 2    
   134   67   69 am   BACKBONE|DICT|INTERRES
   135   69   70 1    
   136   69  190 1    
   137   70   71 1    
   138   70   72 1    
   139   70  191 1    
   140   71  192 1    
   141   71  193 1    
   142   71  194 1    
   143   72   73 2    
   144   72   74 am   BACKBONE|DICT|INTERRES
   145   74   75 1    
   146   74  195 1    
   147   75   76 1    
   148   75   77 1    
   149   75  196 1    
   150   76  197 1    
   151   76  198 1    
   152   76  199 1    
   153   77   78 2    
   154   77   79 am   BACKBONE|DICT|INTERRES
   155   79   80 1    
   156   79  200 1    
   157   80   81 1    
   158   80   82 1    
   159   80  201 1    
   160   81  202 1    
   161   81  203 1    
   162   81  204 1    
   163   82   83 2    
   164   82   84 am   BACKBONE|DICT|INTERRES
   165   84   85 1    
   166   84  205 1    
   167   85   86 1    
   168   85   87 1    
   169   85  206 1    
   170   86  207 1    
   171   86  208 1    
   172   86  209 1    
   173   87   88 2    
   174   87   89 am   BACKBONE|DICT|INTERRES
   175   89   90 1    
   176   89  210 1    
   177   90   91 1    
   178   90   92 1    
   179   90  211 1    
   180   91  212 1    
   181   91  213 1    
   182   91  214 1    
   183   92   93 2    
   184   92   94 am   BACKBONE|DICT|INTERRES
   185   94   95 1    
   186   94  215 1    
   187   95   96 1    
   188   95   97 1    
   189   95  216 1    
   190   96  217 1    
   191   96  218 1    
   192   96  219 1    
   193   97   98 2    
   194   97   99 am   BACKBONE|DICT|INTERRES
   195   99  100 1    
   196   99  220 1    
   197  100  101 1    
   198  100  102 1    
   199  100  221 1    
   200  101  222 1    
   201  101  223 1    
   202  101  224 1    
   203  102  103 2    
   204  102  104 am   BACKBONE|DICT|INTERRES
   205  104  105 1    
   206  104  225 1    
   207  105  106 1    
   208  105  107 1    
   209  105  226 1    
   210  106  227 1    
   211  106  228 1    
   212  106  229 1    
   213  107  108 2    
   214  107  109 am   BACKBONE|DICT|INTERRES
   215  109  110 1    
   216  109  230 1    
   217  110  111 1    
   218  110  112 1    
   219  110  231 1    
   220  111  232 1    
   221  111  233 1    
   222  111  234 1    
   223  112  113 2    
   224  112  114 am   BACKBONE|DICT|INTERRES
   225  114  115 1    
   226  114  235 1    
   227  115  116 1    
   228  115  117 1    
   229  115  236 1    
   230  116  237 1    
   231  116  238 1    
   232  116  239 1    
   233  117  118 2    
   234  117  119 am   BACKBONE|DICT|INTERRES
   235  119  120 1    
   236  119  240 1    
   237  120  121 1    
   238  120  124 1    
   239  120  241 1    
   240  121  122 am   BACKBONE|DICT|INTERRES
   241  121  123 2    
   242  122  242 1    
   243  122  243 1    
   244  124  125 1    
   245  124  244 1    
   246  124  245 1    
   247  125  126 1    
   248  126  246 1    
   249  126  247 1    
@<TRIPOS>SUBSTRUCTURE
     1 UNK         1 GROUP             0       ****    0 ROOT    
