@<TRIPOS>MOLECULE
3R540
247   249    1
SMALL
USER_CHARGES


@<TRIPOS>ATOM
      1 CA          0.5320  -16.7529  -41.9173 C.3       0 UNK        -0.1800 
      2 C           1.2845  -15.7566  -42.7854 C.2       0 UNK         0.5000 
      3 O           0.9040  -14.5891  -42.8228 O.2       0 UNK        -0.5000 
      4 N           2.3631  -16.1922  -43.4554 N.am      1 UNK        -0.5000 
      5 CA          3.2001  -15.3885  -44.3652 C.3       1 UNK         0.1400 
      6 C6          4.3471  -16.2216  -44.9940 C.3       23 UNK        -0.0398 
      7 S7          3.7322  -17.6003  -46.0171 S.3       23 UNK        -0.2404 
      8 C8          4.3737  -17.1711  -47.6642 C.3       23 UNK        -0.0205 
      9 C9          3.6260  -17.9090  -48.7658 C.ar      23 UNK        -0.0193 
     10 C10         2.8331  -17.1969  -49.6676 C.ar      23 UNK        -0.1150 
     11 C11         2.1431  -17.8484  -50.6934 C.ar      23 UNK        -0.0193 
     12 C12         2.2594  -19.2377  -50.8080 C.ar      23 UNK        -0.1150 
     13 C13         3.0308  -19.9742  -49.9008 C.ar      23 UNK        -0.0193 
     14 C14         3.7229  -19.2979  -48.8906 C.ar      23 UNK        -0.1150 
     15 C15         3.1491  -21.4948  -49.9926 C.3       23 UNK        -0.0205 
     16 S16         1.7173  -22.3520  -50.7424 S.3       23 UNK        -0.2404 
     17 C17         0.3289  -21.8868  -49.6512 C.3       23 UNK        -0.0398 
     18 CA          0.1176  -22.9276  -48.5291 C.3       11 UNK         0.1400 
     19 N           1.1256  -22.8130  -47.4740 N.am      11 UNK        -0.5000 
     20 C           1.4255  -23.7951  -46.6160 C.2       10 UNK         0.5000 
     21 O           0.8850  -24.8996  -46.6276 O.2       10 UNK        -0.5000 
     22 CA          2.4579  -23.4618  -45.5259 C.3       10 UNK         0.1400 
     23 CB          3.8851  -23.6783  -46.0501 C.3       10 UNK        -0.1800 
     24 N           2.3353  -22.0979  -45.0018 N.am      10 UNK        -0.5000 
     25 C           1.2462  -21.6018  -44.3962 C.2       9 UNK         0.5000 
     26 O           0.1875  -22.2206  -44.2909 O.2       9 UNK        -0.5000 
     27 CA          1.3514  -20.1720  -43.8459 C.3       9 UNK         0.1400 
     28 CB          2.7271  -19.9049  -43.1998 C.3       9 UNK        -0.1800 
     29 N           1.1270  -19.2192  -44.9323 N.am      9 UNK        -0.5000 
     30 C           0.0091  -18.5086  -45.1351 C.2       8 UNK         0.5000 
     31 O          -0.9644  -18.5408  -44.3815 O.2       8 UNK        -0.5000 
     32 CA          0.0252  -17.5968  -46.3822 C.3       8 UNK         0.1400 
     33 CB          0.0327  -18.4268  -47.6822 C.3       8 UNK        -0.1800 
     34 N          -1.0321  -16.5812  -46.4088 N.am      8 UNK        -0.5000 
     35 C          -2.3515  -16.7532  -46.5842 C.2       7 UNK         0.5000 
     36 O          -2.9052  -17.8380  -46.7599 O.2       7 UNK        -0.5000 
     37 CA         -3.1966  -15.4686  -46.6082 C.3       7 UNK         0.1400 
     38 CB         -3.4157  -14.9269  -45.1858 C.3       7 UNK        -0.1800 
     39 N          -2.5674  -14.4378  -47.4343 N.am      7 UNK        -0.5000 
     40 C          -2.6801  -14.3616  -48.7692 C.2       6 UNK         0.5000 
     41 O          -3.3849  -15.1111  -49.4463 O.2       6 UNK        -0.5000 
     42 CA         -1.8594  -13.2658  -49.4796 C.3       6 UNK         0.1400 
     43 CB         -2.6678  -11.9629  -49.5721 C.3       6 UNK        -0.1800 
     44 N          -0.5814  -12.9912  -48.8234 N.am      6 UNK        -0.5000 
     45 C           0.4343  -13.8630  -48.7445 C.2       5 UNK         0.5000 
     46 O           0.4329  -14.9549  -49.3047 O.2       5 UNK        -0.5000 
     47 CA          1.6333  -13.4707  -47.8583 C.3       5 UNK         0.1400 
     48 CB          2.7815  -12.9102  -48.7096 C.3       5 UNK        -0.1800 
     49 N           1.2842  -12.5020  -46.8140 N.am      5 UNK        -0.5000 
     50 C           0.4331  -12.7514  -45.8115 C.2       4 UNK         0.5000 
     51 O          -0.1050  -13.8469  -45.6356 O.2       4 UNK        -0.5000 
     52 CA          0.0618  -11.5672  -44.9136 C.3       4 UNK         0.1400 
     53 CB         -1.4413  -11.2482  -45.0316 C.3       4 UNK        -0.1800 
     54 N           0.4148  -11.8816  -43.5365 N.am      4 UNK        -0.5000 
     55 C           0.5644  -10.9812  -42.5572 C.2       3 UNK         0.5000 
     56 O           0.3941   -9.7702  -42.7056 O.2       3 UNK        -0.5000 
     57 CA          1.0106  -11.5186  -41.1890 C.3       3 UNK         0.1400 
     58 CB         -0.1333  -12.2682  -40.4859 C.3       3 UNK        -0.1800 
     59 N           2.1637  -12.4036  -41.3390 N.am      3 UNK        -0.5000 
     60 C           3.4402  -11.9952  -41.3227 C.2       2 UNK         0.5000 
     61 O           3.7820  -10.8322  -41.1044 O.2       2 UNK        -0.5000 
     62 CA          4.5262  -13.0572  -41.5890 C.3       2 UNK         0.1400 
     63 CB          5.0812  -13.6003  -40.2632 C.3       2 UNK        -0.1800 
     64 N           4.0530  -14.1802  -42.3990 N.am      2 UNK        -0.5000 
     65 C           3.7817  -14.1157  -43.7103 C.2       1 UNK         0.5000 
     66 O           3.9547  -13.1076  -44.3955 O.2       1 UNK        -0.5000 
     67 C          -1.3201  -22.8821  -47.9734 C.2       11 UNK         0.5000 
     68 O          -2.2165  -23.4110  -48.6285 O.2       11 UNK        -0.5000 
     69 N          -1.5364  -22.2985  -46.7858 N.am      12 UNK        -0.5000 
     70 CA         -2.8229  -22.3660  -46.0889 C.3       12 UNK         0.1400 
     71 CB         -2.9526  -21.2150  -45.0828 C.3       12 UNK        -0.1800 
     72 C          -3.0074  -23.7315  -45.4099 C.2       12 UNK         0.5000 
     73 O          -4.0884  -24.3109  -45.5075 O.2       12 UNK        -0.5000 
     74 N          -1.9345  -24.2504  -44.7946 N.am      13 UNK        -0.5000 
     75 CA         -1.8813  -25.5849  -44.1909 C.3       13 UNK         0.1400 
     76 CB         -0.5566  -25.7493  -43.4308 C.3       13 UNK        -0.1800 
     77 C          -2.0724  -26.7172  -45.2206 C.2       13 UNK         0.5000 
     78 O          -2.7756  -27.6871  -44.9366 O.2       13 UNK        -0.5000 
     79 N          -1.4805  -26.5507  -46.4115 N.am      14 UNK        -0.5000 
     80 CA         -1.6317  -27.4457  -47.5623 C.3       14 UNK         0.1400 
     81 CB         -0.4602  -27.2061  -48.5282 C.3       14 UNK        -0.1800 
     82 C          -2.9744  -27.2820  -48.3069 C.2       14 UNK         0.5000 
     83 O          -3.2679  -28.0896  -49.1886 O.2       14 UNK        -0.5000 
     84 N          -3.7450  -26.2372  -47.9667 N.am      15 UNK        -0.5000 
     85 CA         -5.0290  -25.8310  -48.5520 C.3       15 UNK         0.1400 
     86 CB         -6.1004  -26.9263  -48.3748 C.3       15 UNK        -0.1800 
     87 C          -4.9331  -25.3254  -50.0083 C.2       15 UNK         0.5000 
     88 O          -5.9591  -25.1806  -50.6724 O.2       15 UNK        -0.5000 
     89 N          -3.7193  -25.0001  -50.4684 N.am      16 UNK        -0.5000 
     90 CA         -3.4520  -24.3746  -51.7622 C.3       16 UNK         0.1400 
     91 CB         -1.9477  -24.4552  -52.0632 C.3       16 UNK        -0.1800 
     92 C          -3.9429  -22.9174  -51.7967 C.2       16 UNK         0.5000 
     93 O          -4.5359  -22.4941  -52.7881 O.2       16 UNK        -0.5000 
     94 N          -3.7385  -22.1862  -50.6925 N.am      17 UNK        -0.5000 
     95 CA         -4.2398  -20.8222  -50.5195 C.3       17 UNK         0.1400 
     96 CB         -3.5062  -20.1341  -49.3603 C.3       17 UNK        -0.1800 
     97 C          -5.7677  -20.7840  -50.3254 C.2       17 UNK         0.5000 
     98 O          -6.4127  -19.8404  -50.7792 O.2       17 UNK        -0.5000 
     99 N          -6.3342  -21.8392  -49.7197 N.am      18 UNK        -0.5000 
    100 CA        -7.7820  -22.0443  -49.6015 C.3       18 UNK         0.1400 
    101 CB        -8.0659  -23.1695  -48.5950 C.3       18 UNK        -0.1800 
    102 C         -8.4429  -22.3374  -50.9642 C.2       18 UNK         0.5000 
    103 O         -9.5611  -21.8853  -51.2098 O.2       18 UNK        -0.5000 
    104 N         -7.7135  -23.0381  -51.8441 N.am      19 UNK        -0.5000 
    105 CA        -8.0616  -23.2739  -53.2478 C.3       19 UNK         0.1400 
    106 CB        -7.3086  -24.5219  -53.7379 C.3       19 UNK        -0.1800 
    107 C         -7.7768  -22.0624  -54.1655 C.2       19 UNK         0.5000 
    108 O         -8.0549  -22.1414  -55.3627 O.2       19 UNK        -0.5000 
    109 N         -7.2341  -20.9737  -53.5992 N.am      20 UNK        -0.5000 
    110 CA        -6.8904  -19.6992  -54.2355 C.3       20 UNK         0.1400 
    111 CB        -8.1437  -19.0072  -54.8122 C.3       20 UNK        -0.1800 
    112 C         -5.7295  -19.7940  -55.2474 C.2       20 UNK         0.5000 
    113 O         -5.6512  -18.9740  -56.1641 O.2       20 UNK        -0.5000 
    114 N         -4.8174  -20.7574  -55.0487 N.am      21 UNK        -0.5000 
    115 CA        -3.5622  -20.8666  -55.8005 C.3       21 UNK         0.1400 
    116 CB        -3.0396  -22.3088  -55.7139 C.3       21 UNK        -0.1800 
    117 C         -2.4938  -19.8696  -55.3029 C.2       21 UNK         0.5000 
    118 O         -1.5278  -19.6064  -56.0194 O.2       21 UNK        -0.5000 
    119 N         -2.6927  -19.3269  -54.0972 N.am      22 UNK        -0.5000 
    120 CA        -1.8986  -18.2680  -53.4687 C.3       22 UNK         0.1400 
    121 C         -2.7725  -17.4767  -52.4536 C.2       22 UNK         0.5000 
    122 N         -2.2432  -16.4315  -51.8370 N.am      22 UNK        -0.7600 
    123 O         -3.9339  -17.8017  -52.2166 O.2       22 UNK        -0.5000 
    124 C124       -0.5714  -18.8095  -52.8568 C.3       23 UNK        -0.0398 
    125 S125        0.8596  -17.7400  -53.2415 S.3       23 UNK        -0.2404 
    126 C126        1.2534  -17.0123  -51.6133 C.3       23 UNK        -0.0205 
    127 H127        0.9222  -17.7635  -42.0142 H         1 UNK         0.0600 
    128 H128       -0.5203  -16.7701  -42.2011 H         1 UNK         0.0600 
    129 H129        0.5973  -16.4599  -40.8697 H         1 UNK         0.0600 
    130 H130        2.6282  -17.1627  -43.3789 H         1 UNK         0.3000 
    131 H131        2.5459  -15.0499  -45.1699 H         1 UNK         0.0600 
    132 H132        4.9931  -15.5888  -45.6056 H         1 UNK         0.0800 
    133 H133        4.9883  -16.6370  -44.2146 H         1 UNK         0.0800 
    134 H134        5.4354  -17.4166  -47.7148 H         1 UNK         0.0800 
    135 H135        4.2954  -16.0932  -47.8149 H         1 UNK         0.0800 
    136 H136        2.7455  -16.1249  -49.5676 H         1 UNK         0.1150 
    137 H137        1.7370  -19.7548  -51.5969 H         1 UNK         0.1150 
    138 H138        4.3343  -19.8515  -48.1916 H         1 UNK         0.1150 
    139 H139        3.3251  -21.9175  -49.0034 H         1 UNK         0.0800 
    140 H140        4.0344  -21.7299  -50.5846 H         1 UNK         0.0800 
    141 H141       -0.5520  -21.8187  -50.2924 H         1 UNK         0.0800 
    142 H142        0.4745  -20.8876  -49.2425 H         1 UNK         0.0800 
    143 H143        0.2208  -23.9170  -48.9795 H         1 UNK         0.0600 
    144 H144        1.6061  -21.9308  -47.3881 H         1 UNK         0.3000 
    145 H145        2.2908  -24.1514  -44.6959 H         1 UNK         0.0600 
    146 H146        4.0080  -24.6886  -46.4432 H         1 UNK         0.0600 
    147 H147        4.6202  -23.5496  -45.2555 H         1 UNK         0.0600 
    148 H148        4.1322  -22.9816  -46.8517 H         1 UNK         0.0600 
    149 H149        3.1668  -21.5273  -45.0419 H         1 UNK         0.3000 
    150 H150        0.5880  -20.0634  -43.0726 H         1 UNK         0.0600 
    151 H151        3.5377  -19.9044  -43.9290 H         1 UNK         0.0600 
    152 H152        2.9590  -20.6631  -42.4504 H         1 UNK         0.0600 
    153 H153        2.7514  -18.9436  -42.6915 H         1 UNK         0.0600 
    154 H154        1.8897  -19.1071  -45.5870 H         1 UNK         0.3000 
    155 H155        0.9495  -17.0211  -46.3478 H         1 UNK         0.0600 
    156 H156       -0.8094  -19.1177  -47.7306 H         1 UNK         0.0600 
    157 H157       -0.0101  -17.7832  -48.5611 H         1 UNK         0.0600 
    158 H158        0.9444  -19.0180  -47.7611 H         1 UNK         0.0600 
    159 H159       -0.7149  -15.6359  -46.2158 H         1 UNK         0.3000 
    160 H160       -4.1750  -15.7140  -47.0273 H         1 UNK         0.0600 
    161 H161       -2.4753  -14.6758  -44.6943 H         1 UNK         0.0600 
    162 H162       -3.9198  -15.6674  -44.5637 H         1 UNK         0.0600 
    163 H163       -4.0379  -14.0319  -45.1961 H         1 UNK         0.0600 
    164 H164       -1.9147  -13.8259  -46.9648 H         1 UNK         0.3000 
    165 H165       -1.6510  -13.6117  -50.4943 H         1 UNK         0.0600 
    166 H166       -2.1283  -11.2027  -50.1373 H         1 UNK         0.0600 
    167 H167       -3.6188  -12.1296  -50.0799 H         1 UNK         0.0600 
    168 H168       -2.8899  -11.5548  -48.5853 H         1 UNK         0.0600 
    169 H169       -0.4905  -12.1030  -48.3542 H         1 UNK         0.3000 
    170 H170        1.9852  -14.3832  -47.3734 H         1 UNK         0.0600 
    171 H171        2.4995  -11.9796  -49.2036 H         1 UNK         0.0600 
    172 H172        3.6638  -12.7148  -48.0998 H         1 UNK         0.0600 
    173 H173        3.0751  -13.6179  -49.4860 H         1 UNK         0.0600 
    174 H174        1.6949  -11.5829  -46.8971 H         1 UNK         0.3000 
    175 H175        0.6333  -10.6926  -45.2319 H         1 UNK         0.0600 
    176 H176       -2.0559  -12.0692  -44.6603 H         1 UNK         0.0600 
    177 H177       -1.7047  -10.3543  -44.4663 H         1 UNK         0.0600 
    178 H178       -1.7245  -11.0676  -46.0692 H         1 UNK         0.0600 
    179 H179        0.5708  -12.8706  -43.3400 H         1 UNK         0.3000 
    180 H180        1.2809  -10.6664  -40.5615 H         1 UNK         0.0600 
    181 H181       -0.4706  -13.1330  -41.0577 H         1 UNK         0.0600 
    182 H182       -0.9949  -11.6149  -40.3438 H         1 UNK         0.0600 
    183 H183        0.1747  -12.6191  -39.5009 H         1 UNK         0.0600 
    184 H184        1.9575  -13.3580  -41.6095 H         1 UNK         0.3000 
    185 H185        5.3421  -12.5671  -42.1246 H         1 UNK         0.0600 
    186 H186        5.4707  -12.7921  -39.6425 H         1 UNK         0.0600 
    187 H187        4.3127  -14.1160  -39.6860 H         1 UNK         0.0600 
    188 H188        5.8998  -14.2995  -40.4346 H         1 UNK         0.0600 
    189 H189        3.8767  -15.0477  -41.9136 H         1 UNK         0.3000 
    190 H190       -0.7552  -21.9403  -46.2537 H         1 UNK         0.3000 
    191 H191       -3.6294  -22.2551  -46.8158 H         1 UNK         0.0600 
    192 H192       -2.8471  -20.2508  -45.5787 H         1 UNK         0.0600 
    193 H193       -3.9320  -21.2271  -44.6036 H         1 UNK         0.0600 
    194 H194       -2.2040  -21.2673  -44.2932 H         1 UNK         0.0600 
    195 H195       -1.0959  -23.6824  -44.7253 H         1 UNK         0.3000 
    196 H196       -2.6974  -25.6536  -43.4687 H         1 UNK         0.0600 
    197 H197       -0.5139  -26.7158  -42.9273 H         1 UNK         0.0600 
    198 H198       -0.4412  -24.9789  -42.6682 H         1 UNK         0.0600 
    199 H199        0.3029  -25.6898  -44.0983 H         1 UNK         0.0600 
    200 H200       -0.8361  -25.7733  -46.5265 H         1 UNK         0.3000 
    201 H201       -1.5772  -28.4775  -47.2093 H         1 UNK         0.0600 
    202 H202       -0.4958  -27.8991  -49.3697 H         1 UNK         0.0600 
    203 H203        0.4989  -27.3512  -48.0305 H         1 UNK         0.0600 
    204 H204       -0.4776  -26.1953  -48.9357 H         1 UNK         0.0600 
    205 H205       -3.4155  -25.6423  -47.2176 H         1 UNK         0.3000 
    206 H206       -5.3522  -24.9690  -47.9672 H         1 UNK         0.0600 
    207 H207       -6.1596  -27.2547  -47.3371 H         1 UNK         0.0600 
    208 H208       -7.0883  -26.5580  -48.6532 H         1 UNK         0.0600 
    209 H209       -5.8960  -27.8000  -48.9938 H         1 UNK         0.0600 
    210 H210       -2.9450  -25.0452  -49.8192 H         1 UNK         0.3000 
    211 H211       -3.9884  -24.9298  -52.5344 H         1 UNK         0.0600 
    212 H212       -1.7145  -24.0032  -53.0276 H         1 UNK         0.0600 
    213 H213       -1.6110  -25.4913  -52.1014 H         1 UNK         0.0600 
    214 H214       -1.3541  -23.9409  -51.3075 H         1 UNK         0.0600 
    215 H215       -3.2472  -22.6119  -49.9099 H         1 UNK         0.3000 
    216 H216       -4.0124  -20.2699  -51.4316 H         1 UNK         0.0600 
    217 H217       -3.8070  -19.0884  -49.2798 H         1 UNK         0.0600 
    218 H218       -2.4268  -20.1459  -49.5097 H         1 UNK         0.0600 
    219 H219       -3.7214  -20.6075  -48.4040 H         1 UNK         0.0600 
    220 H220       -5.7375  -22.5824  -49.3922 H         1 UNK         0.3000 
    221 H221       -8.2217  -21.1242  -49.2103 H         1 UNK         0.0600 
    222 H222       -7.6959  -24.1317  -48.9461 H         1 UNK         0.0600 
    223 H223       -7.6064  -22.9630  -47.6283 H         1 UNK         0.0600 
    224 H224       -9.1385  -23.2767  -48.4284 H         1 UNK         0.0600 
    225 H225       -6.8367  -23.4396  -51.5338 H         1 UNK         0.3000 
    226 H226       -9.1320  -23.4797  -53.3098 H         1 UNK         0.0600 
    227 H227       -7.5938  -24.7782  -54.7588 H         1 UNK         0.0600 
    228 H228       -6.2291  -24.3712  -53.7277 H         1 UNK         0.0600 
    229 H229       -7.5308  -25.3872  -53.1131 H         1 UNK         0.0600 
    230 H230       -7.0336  -21.0182  -52.6091 H         1 UNK         0.3000 
    231 H231       -6.5179  -19.0633  -53.4312 H         1 UNK         0.0600 
    232 H232       -8.5344  -19.5330  -55.6835 H         1 UNK         0.0600 
    233 H233       -7.9185  -17.9863  -55.1227 H         1 UNK         0.0600 
    234 H234       -8.9389  -18.9494  -54.0689 H         1 UNK         0.0600 
    235 H235       -4.9303  -21.3998  -54.2673 H         1 UNK         0.3000 
    236 H236       -3.7611  -20.6444  -56.8510 H         1 UNK         0.0600 
    237 H237       -2.7200  -22.5613  -54.7038 H         1 UNK         0.0600 
    238 H238       -3.8021  -23.0269  -56.0162 H         1 UNK         0.0600 
    239 H239       -2.1800  -22.4494  -56.3702 H         1 UNK         0.0600 
    240 H240       -3.5416  -19.5553  -53.5984 H         1 UNK         0.3000 
    241 H241       -1.6701  -17.5560  -54.2642 H         1 UNK         0.0600 
    242 H242       -1.3056  -16.1218  -52.0316 H         1 UNK         0.3800 
    243 H243       -2.7973  -15.9548  -51.1327 H         1 UNK         0.3800 
    244 H244       -0.3331  -19.7915  -53.2677 H         1 UNK         0.0800 
    245 H245       -0.6563  -18.9675  -51.7799 H         1 UNK         0.0800 
    246 H246        1.7322  -16.0481  -51.7906 H         1 UNK         0.0800 
    247 H247        0.3286  -16.8014  -51.0799 H         1 UNK         0.0800 
@<TRIPOS>BOND
     1    1    2 1    
     2    1  127 1    
     3    1  128 1    
     4    1  129 1    
     5    2    3 2    
     6    2    4 am   BACKBONE|DICT|INTERRES
     7    4    5 1    
     8    4  130 1    
     9    5    6 1    
    10    5   65 1    
    11    5  131 1    
    12    6    7 1    
    13    6  132 1    
    14    6  133 1    
    15    7    8 1    
    16    8    9 1    
    17    8  134 1    
    18    8  135 1    
    19    9   10 ar   
    20    9   14 ar   
    21   10   11 ar   
    22   10  136 1    
    23   11   12 ar   
    24   11  126 1    
    25   12   13 ar   
    26   12  137 1    
    27   13   14 ar   
    28   13   15 1    
    29   14  138 1    
    30   15   16 1    
    31   15  139 1    
    32   15  140 1    
    33   16   17 1    
    34   17   18 1    
    35   17  141 1    
    36   17  142 1    
    37   18   19 1    
    38   18   67 1    
    39   18  143 1    
    40   19   20 am   BACKBONE|DICT|INTERRES
    41   19  144 1    
    42   20   21 2    
    43   20   22 1    
    44   22   23 1    
    45   22   24 1    
    46   22  145 1    
    47   23  146 1    
    48   23  147 1    
    49   23  148 1    
    50   24   25 am   BACKBONE|DICT|INTERRES
    51   24  149 1    
    52   25   26 2    
    53   25   27 1    
    54   27   28 1    
    55   27   29 1    
    56   27  150 1    
    57   28  151 1    
    58   28  152 1    
    59   28  153 1    
    60   29   30 am   BACKBONE|DICT|INTERRES
    61   29  154 1    
    62   30   31 2    
    63   30   32 1    
    64   32   33 1    
    65   32   34 1    
    66   32  155 1    
    67   33  156 1    
    68   33  157 1    
    69   33  158 1    
    70   34   35 am   BACKBONE|DICT|INTERRES
    71   34  159 1    
    72   35   36 2    
    73   35   37 1    
    74   37   38 1    
    75   37   39 1    
    76   37  160 1    
    77   38  161 1    
    78   38  162 1    
    79   38  163 1    
    80   39   40 am   BACKBONE|DICT|INTERRES
    81   39  164 1    
    82   40   41 2    
    83   40   42 1    
    84   42   43 1    
    85   42   44 1    
    86   42  165 1    
    87   43  166 1    
    88   43  167 1    
    89   43  168 1    
    90   44   45 am   BACKBONE|DICT|INTERRES
    91   44  169 1    
    92   45   46 2    
    93   45   47 1    
    94   47   48 1    
    95   47   49 1    
    96   47  170 1    
    97   48  171 1    
    98   48  172 1    
    99   48  173 1    
   100   49   50 am   BACKBONE|DICT|INTERRES
   101   49  174 1    
   102   50   51 2    
   103   50   52 1    
   104   52   53 1    
   105   52   54 1    
   106   52  175 1    
   107   53  176 1    
   108   53  177 1    
   109   53  178 1    
   110   54   55 am   BACKBONE|DICT|INTERRES
   111   54  179 1    
   112   55   56 2    
   113   55   57 1    
   114   57   58 1    
   115   57   59 1    
   116   57  180 1    
   117   58  181 1    
   118   58  182 1    
   119   58  183 1    
   120   59   60 am   BACKBONE|DICT|INTERRES
   121   59  184 1    
   122   60   61 2    
   123   60   62 1    
   124   62   63 1    
   125   62   64 1    
   126   62  185 1    
   127   63  186 1    
   128   63  187 1    
   129   63  188 1    
   130   64   65 am   BACKBONE|DICT|INTERRES
   131   64  189 1    
   132   65   66 2    
   133   67   68 2    
   134   67   69 am   BACKBONE|DICT|INTERRES
   135   69   70 1    
   136   69  190 1    
   137   70   71 1    
   138   70   72 1    
   139   70  191 1    
   140   71  192 1    
   141   71  193 1    
   142   71  194 1    
   143   72   73 2    
   144   72   74 am   BACKBONE|DICT|INTERRES
   145   74   75 1    
   146   74  195 1    
   147   75   76 1    
   148   75   77 1    
   149   75  196 1    
   150   76  197 1    
   151   76  198 1    
   152   76  199 1    
   153   77   78 2    
   154   77   79 am   BACKBONE|DICT|INTERRES
   155   79   80 1    
   156   79  200 1    
   157   80   81 1    
   158   80   82 1    
   159   80  201 1    
   160   81  202 1    
   161   81  203 1    
   162   81  204 1    
   163   82   83 2    
   164   82   84 am   BACKBONE|DICT|INTERRES
   165   84   85 1    
   166   84  205 1    
   167   85   86 1    
   168   85   87 1    
   169   85  206 1    
   170   86  207 1    
   171   86  208 1    
   172   86  209 1    
   173   87   88 2    
   174   87   89 am   BACKBONE|DICT|INTERRES
   175   89   90 1    
   176   89  210 1    
   177   90   91 1    
   178   90   92 1    
   179   90  211 1    
   180   91  212 1    
   181   91  213 1    
   182   91  214 1    
   183   92   93 2    
   184   92   94 am   BACKBONE|DICT|INTERRES
   185   94   95 1    
   186   94  215 1    
   187   95   96 1    
   188   95   97 1    
   189   95  216 1    
   190   96  217 1    
   191   96  218 1    
   192   96  219 1    
   193   97   98 2    
   194   97   99 am   BACKBONE|DICT|INTERRES
   195   99  100 1    
   196   99  220 1    
   197  100  101 1    
   198  100  102 1    
   199  100  221 1    
   200  101  222 1    
   201  101  223 1    
   202  101  224 1    
   203  102  103 2    
   204  102  104 am   BACKBONE|DICT|INTERRES
   205  104  105 1    
   206  104  225 1    
   207  105  106 1    
   208  105  107 1    
   209  105  226 1    
   210  106  227 1    
   211  106  228 1    
   212  106  229 1    
   213  107  108 2    
   214  107  109 am   BACKBONE|DICT|INTERRES
   215  109  110 1    
   216  109  230 1    
   217  110  111 1    
   218  110  112 1    
   219  110  231 1    
   220  111  232 1    
   221  111  233 1    
   222  111  234 1    
   223  112  113 2    
   224  112  114 am   BACKBONE|DICT|INTERRES
   225  114  115 1    
   226  114  235 1    
   227  115  116 1    
   228  115  117 1    
   229  115  236 1    
   230  116  237 1    
   231  116  238 1    
   232  116  239 1    
   233  117  118 2    
   234  117  119 am   BACKBONE|DICT|INTERRES
   235  119  120 1    
   236  119  240 1    
   237  120  121 1    
   238  120  124 1    
   239  120  241 1    
   240  121  122 am   BACKBONE|DICT|INTERRES
   241  121  123 2    
   242  122  242 1    
   243  122  243 1    
   244  124  125 1    
   245  124  244 1    
   246  124  245 1    
   247  125  126 1    
   248  126  246 1    
   249  126  247 1    
@<TRIPOS>SUBSTRUCTURE
     1 UNK         1 GROUP             0       ****    0 ROOT    
