@<TRIPOS>MOLECULE
3R540
247   249    1
SMALL
USER_CHARGES


@<TRIPOS>ATOM
      1 CA          6.2030  -17.6926  -47.4461 C.3       0 UNK        -0.1800 
      2 C           5.7163  -16.8134  -48.5973 C.2       0 UNK         0.5000 
      3 O           6.1764  -16.9867  -49.7241 O.2       0 UNK        -0.5000 
      4 N           4.7878  -15.8735  -48.3768 N.am      1 UNK        -0.5000 
      5 CA          4.2117  -15.4890  -47.0846 C.3       1 UNK         0.1400 
      6 C6          2.8803  -14.7209  -47.2548 C.3       23 UNK        -0.0398 
      7 S7          1.5589  -15.7808  -47.9314 S.3       23 UNK        -0.2404 
      8 C8          1.2177  -14.9879  -49.5342 C.3       23 UNK        -0.0205 
      9 C9         -0.1039  -15.4621  -50.1227 C.ar      23 UNK        -0.0193 
     10 C10        -0.1594  -16.0597  -51.3865 C.ar      23 UNK        -0.1150 
     11 C11        -1.3865  -16.4470  -51.9397 C.ar      23 UNK        -0.0193 
     12 C12        -2.5604  -16.2500  -51.2028 C.ar      23 UNK        -0.1150 
     13 C13        -2.5138  -15.6714  -49.9319 C.ar      23 UNK        -0.0193 
     14 C14        -1.2868  -15.2635  -49.4079 C.ar      23 UNK        -0.1150 
     15 C15        -3.7851  -15.4798  -49.1211 C.3       23 UNK        -0.0205 
     16 S16        -4.3118  -17.0229  -48.3126 S.3       23 UNK        -0.2404 
     17 C17        -2.8962  -17.4027  -47.2146 C.3       23 UNK        -0.0398 
     18 CA         -1.9661  -18.5281  -47.7413 C.3       11 UNK         0.1400 
     19 N          -0.7938  -18.7257  -46.8823 N.am      11 UNK        -0.5000 
     20 C           0.2257  -19.5593  -47.1423 C.2       10 UNK         0.5000 
     21 O           0.3341  -20.2002  -48.1857 O.2       10 UNK        -0.5000 
     22 CA          1.2644  -19.7823  -46.0266 C.3       10 UNK         0.1400 
     23 CB          2.3395  -18.6906  -46.0263 C.3       10 UNK        -0.1800 
     24 N           0.6584  -19.8755  -44.7001 N.am      10 UNK        -0.5000 
     25 C          -0.1807  -20.8475  -44.3180 C.2       9 UNK         0.5000 
     26 O          -0.4978  -21.7978  -45.0323 O.2       9 UNK        -0.5000 
     27 CA         -0.8083  -20.7053  -42.9216 C.3       9 UNK         0.1400 
     28 CB          0.1591  -21.1849  -41.8288 C.3       9 UNK        -0.1800 
     29 N          -1.2175  -19.3282  -42.6483 N.am      9 UNK        -0.5000 
     30 C          -2.2277  -18.7029  -43.2686 C.2       8 UNK         0.5000 
     31 O          -2.9491  -19.2367  -44.1124 O.2       8 UNK        -0.5000 
     32 CA         -2.4303  -17.2176  -42.9166 C.3       8 UNK         0.1400 
     33 CB         -3.1930  -17.0692  -41.5920 C.3       8 UNK        -0.1800 
     34 N          -1.1623  -16.4885  -42.8373 N.am      8 UNK        -0.5000 
     35 C          -0.3766  -16.2437  -43.8975 C.2       7 UNK         0.5000 
     36 O          -0.6663  -16.5779  -45.0430 O.2       7 UNK        -0.5000 
     37 CA          0.9739  -15.5471  -43.6453 C.3       7 UNK         0.1400 
     38 CB          0.7942  -14.0260  -43.7372 C.3       7 UNK        -0.1800 
     39 N           1.5823  -15.8956  -42.3602 N.am      7 UNK        -0.5000 
     40 C           1.8645  -17.1445  -41.9542 C.2       6 UNK         0.5000 
     41 O           1.7558  -18.1298  -42.6837 O.2       6 UNK        -0.5000 
     42 CA          2.2812  -17.3517  -40.4821 C.3       6 UNK         0.1400 
     43 CB          3.7866  -17.6394  -40.3852 C.3       6 UNK        -0.1800 
     44 N           1.9569  -16.2303  -39.5975 N.am      6 UNK        -0.5000 
     45 C           0.7372  -15.7176  -39.3749 C.2       5 UNK         0.5000 
     46 O          -0.3004  -16.2054  -39.8259 O.2       5 UNK        -0.5000 
     47 CA          0.6770  -14.3966  -38.5771 C.3       5 UNK         0.1400 
     48 CB          0.2757  -14.6698  -37.1199 C.3       5 UNK        -0.1800 
     49 N           1.9266  -13.6204  -38.5930 N.am      5 UNK        -0.5000 
     50 C           2.5433  -13.1576  -39.6905 C.2       4 UNK         0.5000 
     51 O           2.1164  -13.3323  -40.8348 O.2       4 UNK        -0.5000 
     52 CA          3.8847  -12.4399  -39.4736 C.3       4 UNK         0.1400 
     53 CB          4.9324  -13.3998  -38.8721 C.3       4 UNK        -0.1800 
     54 N           4.3651  -11.9352  -40.7557 N.am      4 UNK        -0.5000 
     55 C           5.3060  -11.0048  -40.9421 C.2       3 UNK         0.5000 
     56 O           5.8613  -10.4065  -40.0183 O.2       3 UNK        -0.5000 
     57 CA          5.7215  -10.7408  -42.4062 C.3       3 UNK         0.1400 
     58 CB          6.7997   -9.6491  -42.5337 C.3       3 UNK        -0.1800 
     59 N           6.2189  -11.9693  -43.0321 N.am      3 UNK        -0.5000 
     60 C           5.4460  -12.9165  -43.5747 C.2       2 UNK         0.5000 
     61 O           4.2206  -12.8207  -43.6641 O.2       2 UNK        -0.5000 
     62 CA          6.1519  -14.2095  -44.0208 C.3       2 UNK         0.1400 
     63 CB          6.4114  -15.1124  -42.8041 C.3       2 UNK        -0.1800 
     64 N           5.3397  -14.9553  -44.9813 N.am      2 UNK        -0.5000 
     65 C           5.2174  -14.6456  -46.2769 C.2       1 UNK         0.5000 
     66 O           5.8471  -13.7421  -46.8321 O.2       1 UNK        -0.5000 
     67 C          -2.7280  -19.8522  -47.9471 C.2       11 UNK         0.5000 
     68 O          -2.9738  -20.2320  -49.0903 O.2       11 UNK        -0.5000 
     69 N          -3.0451  -20.5530  -46.8473 N.am      12 UNK        -0.5000 
     70 CA         -3.7305  -21.8471  -46.8674 C.3       12 UNK         0.1400 
     71 CB         -4.0429  -22.2898  -45.4308 C.3       12 UNK        -0.1800 
     72 C          -2.9486  -22.9388  -47.6221 C.2       12 UNK         0.5000 
     73 O          -3.5593  -23.7191  -48.3543 O.2       12 UNK        -0.5000 
     74 N          -1.6186  -22.9503  -47.4582 N.am      13 UNK        -0.5000 
     75 CA         -0.6963  -23.8336  -48.1686 C.3       13 UNK         0.1400 
     76 CB          0.6906  -23.7718  -47.5113 C.3       13 UNK        -0.1800 
     77 C          -0.6092  -23.5143  -49.6721 C.2       13 UNK         0.5000 
     78 O          -0.7050  -24.4336  -50.4846 O.2       13 UNK        -0.5000 
     79 N          -0.4620  -22.2271  -50.0204 N.am      14 UNK        -0.5000 
     80 CA         -0.4086  -21.7329  -51.4007 C.3       14 UNK         0.1400 
     81 CB         -0.0163  -20.2470  -51.4048 C.3       14 UNK        -0.1800 
     82 C          -1.7300  -21.9466  -52.1596 C.2       14 UNK         0.5000 
     83 O          -1.7121  -22.3231  -53.3324 O.2       14 UNK        -0.5000 
     84 N          -2.8540  -21.7446  -51.4613 N.am      15 UNK        -0.5000 
     85 CA         -4.1988  -22.0184  -51.9554 C.3       15 UNK         0.1400 
     86 CB         -5.2204  -21.2867  -51.0735 C.3       15 UNK        -0.1800 
     87 C          -4.5275  -23.5200  -52.0218 C.2       15 UNK         0.5000 
     88 O          -5.4969  -23.8817  -52.6902 O.2       15 UNK        -0.5000 
     89 N          -3.7512  -24.3531  -51.3145 N.am      16 UNK        -0.5000 
     90 CA         -3.9229  -25.7954  -51.1180 C.3       16 UNK         0.1400 
     91 CB         -3.6504  -26.5590  -52.4290 C.3       16 UNK        -0.1800 
     92 C          -5.2985  -26.1206  -50.5049 C.2       16 UNK         0.5000 
     93 O          -6.0376  -26.9459  -51.0404 O.2       16 UNK        -0.5000 
     94 N          -5.6495  -25.3931  -49.4336 N.am      17 UNK        -0.5000 
     95 CA         -6.9616  -25.3910  -48.7706 C.3       17 UNK         0.1400 
     96 CB         -7.2082  -26.7286  -48.0428 C.3       17 UNK        -0.1800 
     97 C          -8.1132  -24.9998  -49.7281 C.2       17 UNK         0.5000 
     98 O          -9.2120  -25.5495  -49.6417 O.2       17 UNK        -0.5000 
     99 N          -7.8097  -24.0607  -50.6363 N.am      18 UNK        -0.5000 
    100 CA        -8.6437  -23.5220  -51.7165 C.3       18 UNK         0.1400 
    101 CB        -9.9561  -22.9168  -51.1762 C.3       18 UNK        -0.1800 
    102 C         -8.8737  -24.4886  -52.8984 C.2       18 UNK         0.5000 
    103 O         -9.6903  -24.1788  -53.7672 O.2       18 UNK        -0.5000 
    104 N         -8.1444  -25.6138  -52.9535 N.am      19 UNK        -0.5000 
    105 CA        -8.1927  -26.5552  -54.0752 C.3       19 UNK         0.1400 
    106 CB        -7.6650  -27.9268  -53.6291 C.3       19 UNK        -0.1800 
    107 C         -7.4077  -26.0540  -55.3023 C.2       19 UNK         0.5000 
    108 O         -7.8161  -26.3333  -56.4304 O.2       19 UNK        -0.5000 
    109 N         -6.3042  -25.3312  -55.0660 N.am      20 UNK        -0.5000 
    110 CA        -5.4514  -24.7510  -56.1059 C.3       20 UNK         0.1400 
    111 CB        -3.9757  -24.9879  -55.7469 C.3       20 UNK        -0.1800 
    112 C         -5.7143  -23.2473  -56.2783 C.2       20 UNK         0.5000 
    113 O         -5.5666  -22.7332  -57.3877 O.2       20 UNK        -0.5000 
    114 N         -6.0728  -22.5664  -55.1776 N.am      21 UNK        -0.5000 
    115 CA        -6.3987  -21.1367  -55.0806 C.3       21 UNK         0.1400 
    116 CB        -7.7641  -20.8627  -55.7425 C.3       21 UNK        -0.1800 
    117 C         -5.2786  -20.2042  -55.6009 C.2       21 UNK         0.5000 
    118 O         -5.5685  -19.1448  -56.1587 O.2       21 UNK        -0.5000 
    119 N         -4.0214  -20.6361  -55.4237 N.am      22 UNK        -0.5000 
    120 CA        -2.7889  -20.0039  -55.9259 C.3       22 UNK         0.1400 
    121 C         -2.6082  -20.0912  -57.4745 C.2       22 UNK         0.5000 
    122 N         -3.3871  -20.8852  -58.2015 N.am      22 UNK        -0.7600 
    123 O         -1.7198  -19.4525  -58.0325 O.2       22 UNK        -0.5000 
    124 C124       -2.5547  -18.5641  -55.3834 C.3       23 UNK        -0.0398 
    125 S125       -2.5154  -18.4581  -53.5597 S.3       23 UNK        -0.2404 
    126 C126       -1.4384  -16.9983  -53.3617 C.3       23 UNK        -0.0205 
    127 H127        6.7413  -17.1036  -46.7041 H         1 UNK         0.0600 
    128 H128        6.8841  -18.4594  -47.8156 H         1 UNK         0.0600 
    129 H129        5.3711  -18.2014  -46.9600 H         1 UNK         0.0600 
    130 H130        4.4994  -15.3000  -49.1552 H         1 UNK         0.3000 
    131 H131        3.9967  -16.3946  -46.5166 H         1 UNK         0.0600 
    132 H132        2.5274  -14.3468  -46.2920 H         1 UNK         0.0800 
    133 H133        3.0197  -13.8405  -47.8845 H         1 UNK         0.0800 
    134 H134        2.0456  -15.1885  -50.2157 H         1 UNK         0.0800 
    135 H135        1.1681  -13.9058  -49.4061 H         1 UNK         0.0800 
    136 H136        0.7513  -16.1966  -51.9525 H         1 UNK         0.1150 
    137 H137       -3.5139  -16.5435  -51.6189 H         1 UNK         0.1150 
    138 H138       -1.2458  -14.7996  -48.4323 H         1 UNK         0.1150 
    139 H139       -3.6500  -14.7035  -48.3663 H         1 UNK         0.0800 
    140 H140       -4.5855  -15.1322  -49.7758 H         1 UNK         0.0800 
    141 H141       -3.2954  -17.6667  -46.2351 H         1 UNK         0.0800 
    142 H142       -2.3212  -16.4909  -47.0567 H         1 UNK         0.0800 
    143 H143       -1.5873  -18.2176  -48.7174 H         1 UNK         0.0600 
    144 H144       -0.7645  -18.1661  -46.0344 H         1 UNK         0.3000 
    145 H145        1.7602  -20.7338  -46.2292 H         1 UNK         0.0600 
    146 H146        3.1351  -18.9192  -45.3171 H         1 UNK         0.0600 
    147 H147        2.7948  -18.5910  -47.0124 H         1 UNK         0.0600 
    148 H148        1.9181  -17.7247  -45.7549 H         1 UNK         0.0600 
    149 H149        0.9106  -19.1556  -44.0279 H         1 UNK         0.3000 
    150 H150       -1.6978  -21.3381  -42.8890 H         1 UNK         0.0600 
    151 H151        0.4511  -22.2222  -41.9974 H         1 UNK         0.0600 
    152 H152       -0.3035  -21.1341  -40.8431 H         1 UNK         0.0600 
    153 H153        1.0716  -20.5889  -41.8022 H         1 UNK         0.0600 
    154 H154       -0.6443  -18.8013  -42.0062 H         1 UNK         0.3000 
    155 H155       -3.0336  -16.7666  -43.7074 H         1 UNK         0.0600 
    156 H156       -3.3911  -16.0211  -41.3670 H         1 UNK         0.0600 
    157 H157       -4.1555  -17.5803  -41.6368 H         1 UNK         0.0600 
    158 H158       -2.6353  -17.4909  -40.7548 H         1 UNK         0.0600 
    159 H159       -0.8489  -16.2126  -41.9135 H         1 UNK         0.3000 
    160 H160        1.6639  -15.8564  -44.4307 H         1 UNK         0.0600 
    161 H161        0.1325  -13.6514  -42.9552 H         1 UNK         0.0600 
    162 H162        0.3662  -13.7392  -44.6988 H         1 UNK         0.0600 
    163 H163        1.7467  -13.5089  -43.6408 H         1 UNK         0.0600 
    164 H164        1.7225  -15.1259  -41.7136 H         1 UNK         0.3000 
    165 H165        1.7395  -18.2267  -40.1177 H         1 UNK         0.0600 
    166 H166        4.0721  -17.9064  -39.3676 H         1 UNK         0.0600 
    167 H167        4.0699  -18.4732  -41.0292 H         1 UNK         0.0600 
    168 H168        4.3806  -16.7758  -40.6842 H         1 UNK         0.0600 
    169 H169        2.7418  -15.7536  -39.1802 H         1 UNK         0.3000 
    170 H170       -0.0983  -13.7803  -39.0366 H         1 UNK         0.0600 
    171 H171       -0.6640  -15.2217  -37.0697 H         1 UNK         0.0600 
    172 H172        1.0310  -15.2593  -36.5986 H         1 UNK         0.0600 
    173 H173        0.1337  -13.7403  -36.5682 H         1 UNK         0.0600 
    174 H174        2.3448  -13.4400  -37.6915 H         1 UNK         0.3000 
    175 H175        3.7156  -11.6005  -38.7963 H         1 UNK         0.0600 
    176 H176        5.1160  -14.2524  -39.5275 H         1 UNK         0.0600 
    177 H177        5.8856  -12.8972  -38.7085 H         1 UNK         0.0600 
    178 H178        4.6118  -13.7892  -37.9055 H         1 UNK         0.0600 
    179 H179        3.9186  -12.3568  -41.5658 H         1 UNK         0.3000 
    180 H180        4.8342  -10.3922  -42.9392 H         1 UNK         0.0600 
    181 H181        6.4561   -8.7078  -42.1029 H         1 UNK         0.0600 
    182 H182        7.0422   -9.4562  -43.5789 H         1 UNK         0.0600 
    183 H183        7.7214   -9.9291  -42.0221 H         1 UNK         0.0600 
    184 H184        7.2120  -12.1354  -42.9522 H         1 UNK         0.3000 
    185 H185        7.1074  -13.9505  -44.4822 H         1 UNK         0.0600 
    186 H186        7.0503  -14.6157  -42.0727 H         1 UNK         0.0600 
    187 H187        5.4825  -15.3782  -42.2986 H         1 UNK         0.0600 
    188 H188        6.9118  -16.0360  -43.0959 H         1 UNK         0.0600 
    189 H189        4.7617  -15.6845  -44.5911 H         1 UNK         0.3000 
    190 H190       -2.8207  -20.1698  -45.9346 H         1 UNK         0.3000 
    191 H191       -4.6785  -21.7053  -47.3903 H         1 UNK         0.0600 
    192 H192       -3.1346  -22.4291  -44.8445 H         1 UNK         0.0600 
    193 H193       -4.5872  -23.2351  -45.4233 H         1 UNK         0.0600 
    194 H194       -4.6615  -21.5535  -44.9174 H         1 UNK         0.0600 
    195 H195       -1.2086  -22.3123  -46.7823 H         1 UNK         0.3000 
    196 H196       -1.0696  -24.8549  -48.0675 H         1 UNK         0.0600 
    197 H197        1.3882  -24.4478  -48.0071 H         1 UNK         0.0600 
    198 H198        0.6424  -24.0649  -46.4624 H         1 UNK         0.0600 
    199 H199        1.1157  -22.7692  -47.5579 H         1 UNK         0.0600 
    200 H200       -0.3566  -21.5260  -49.2898 H         1 UNK         0.3000 
    201 H201        0.3691  -22.2914  -51.9252 H         1 UNK         0.0600 
    202 H202        0.9521  -20.0920  -50.9292 H         1 UNK         0.0600 
    203 H203       -0.7494  -19.6348  -50.8772 H         1 UNK         0.0600 
    204 H204        0.0573  -19.8648  -52.4235 H         1 UNK         0.0600 
    205 H205       -2.7875  -21.3511  -50.5235 H         1 UNK         0.3000 
    206 H206       -4.2766  -21.6181  -52.9636 H         1 UNK         0.0600 
    207 H207       -5.0121  -20.2168  -51.0388 H         1 UNK         0.0600 
    208 H208       -6.2327  -21.4026  -51.4587 H         1 UNK         0.0600 
    209 H209       -5.2094  -21.6618  -50.0493 H         1 UNK         0.0600 
    210 H210       -2.9883  -23.9427  -50.7925 H         1 UNK         0.3000 
    211 H211       -3.1723  -26.1018  -50.3881 H         1 UNK         0.0600 
    212 H212       -4.4140  -26.3611  -53.1798 H         1 UNK         0.0600 
    213 H213       -3.6379  -27.6355  -52.2558 H         1 UNK         0.0600 
    214 H214       -2.6836  -26.2850  -52.8514 H         1 UNK         0.0600 
    215 H215       -4.9592  -24.7431  -49.0606 H         1 UNK         0.3000 
    216 H216       -6.9186  -24.6075  -48.0128 H         1 UNK         0.0600 
    217 H217       -8.1152  -26.6837  -47.4389 H         1 UNK         0.0600 
    218 H218       -6.3842  -26.9688  -47.3711 H         1 UNK         0.0600 
    219 H219       -7.3230  -27.5568  -48.7427 H         1 UNK         0.0600 
    220 H220       -6.8551  -23.7334  -50.6418 H         1 UNK         0.3000 
    221 H221       -8.0701  -22.6979  -52.1404 H         1 UNK         0.0600 
    222 H222      -10.6450  -23.6852  -50.8252 H         1 UNK         0.0600 
    223 H223       -9.7648  -22.2318  -50.3503 H         1 UNK         0.0600 
    224 H224      -10.4730  -22.3501  -51.9515 H         1 UNK         0.0600 
    225 H225       -7.4855  -25.8200  -52.2117 H         1 UNK         0.3000 
    226 H226       -9.2354  -26.6838  -54.3738 H         1 UNK         0.0600 
    227 H227       -8.1790  -28.2789  -52.7345 H         1 UNK         0.0600 
    228 H228       -7.8189  -28.6730  -54.4094 H         1 UNK         0.0600 
    229 H229       -6.5964  -27.8985  -53.4151 H         1 UNK         0.0600 
    230 H230       -6.0631  -25.1085  -54.1056 H         1 UNK         0.3000 
    231 H231       -5.6424  -25.2327  -57.0670 H         1 UNK         0.0600 
    232 H232       -3.7598  -26.0523  -55.6541 H         1 UNK         0.0600 
    233 H233       -3.7008  -24.5067  -54.8079 H         1 UNK         0.0600 
    234 H234       -3.3179  -24.5905  -56.5209 H         1 UNK         0.0600 
    235 H235       -6.1073  -23.0839  -54.3052 H         1 UNK         0.3000 
    236 H236       -6.5024  -20.9169  -54.0175 H         1 UNK         0.0600 
    237 H237       -7.7263  -21.0156  -56.8216 H         1 UNK         0.0600 
    238 H238       -8.5355  -21.5184  -55.3380 H         1 UNK         0.0600 
    239 H239       -8.0880  -19.8362  -55.5671 H         1 UNK         0.0600 
    240 H240       -3.8832  -21.5305  -54.9785 H         1 UNK         0.3000 
    241 H241       -1.9800  -20.6200  -55.5324 H         1 UNK         0.0600 
    242 H242       -3.2428  -20.9330  -59.1975 H         1 UNK         0.3800 
    243 H243       -4.1329  -21.4312  -57.7823 H         1 UNK         0.3800 
    244 H244       -3.3166  -17.8787  -55.7558 H         1 UNK         0.0800 
    245 H245       -1.6034  -18.1820  -55.7572 H         1 UNK         0.0800 
    246 H246       -1.7935  -16.2028  -54.0182 H         1 UNK         0.0800 
    247 H247       -0.4365  -17.2615  -53.7044 H         1 UNK         0.0800 
@<TRIPOS>BOND
     1    1    2 1    
     2    1  127 1    
     3    1  128 1    
     4    1  129 1    
     5    2    3 2    
     6    2    4 am   BACKBONE|DICT|INTERRES
     7    4    5 1    
     8    4  130 1    
     9    5    6 1    
    10    5   65 1    
    11    5  131 1    
    12    6    7 1    
    13    6  132 1    
    14    6  133 1    
    15    7    8 1    
    16    8    9 1    
    17    8  134 1    
    18    8  135 1    
    19    9   10 ar   
    20    9   14 ar   
    21   10   11 ar   
    22   10  136 1    
    23   11   12 ar   
    24   11  126 1    
    25   12   13 ar   
    26   12  137 1    
    27   13   14 ar   
    28   13   15 1    
    29   14  138 1    
    30   15   16 1    
    31   15  139 1    
    32   15  140 1    
    33   16   17 1    
    34   17   18 1    
    35   17  141 1    
    36   17  142 1    
    37   18   19 1    
    38   18   67 1    
    39   18  143 1    
    40   19   20 am   BACKBONE|DICT|INTERRES
    41   19  144 1    
    42   20   21 2    
    43   20   22 1    
    44   22   23 1    
    45   22   24 1    
    46   22  145 1    
    47   23  146 1    
    48   23  147 1    
    49   23  148 1    
    50   24   25 am   BACKBONE|DICT|INTERRES
    51   24  149 1    
    52   25   26 2    
    53   25   27 1    
    54   27   28 1    
    55   27   29 1    
    56   27  150 1    
    57   28  151 1    
    58   28  152 1    
    59   28  153 1    
    60   29   30 am   BACKBONE|DICT|INTERRES
    61   29  154 1    
    62   30   31 2    
    63   30   32 1    
    64   32   33 1    
    65   32   34 1    
    66   32  155 1    
    67   33  156 1    
    68   33  157 1    
    69   33  158 1    
    70   34   35 am   BACKBONE|DICT|INTERRES
    71   34  159 1    
    72   35   36 2    
    73   35   37 1    
    74   37   38 1    
    75   37   39 1    
    76   37  160 1    
    77   38  161 1    
    78   38  162 1    
    79   38  163 1    
    80   39   40 am   BACKBONE|DICT|INTERRES
    81   39  164 1    
    82   40   41 2    
    83   40   42 1    
    84   42   43 1    
    85   42   44 1    
    86   42  165 1    
    87   43  166 1    
    88   43  167 1    
    89   43  168 1    
    90   44   45 am   BACKBONE|DICT|INTERRES
    91   44  169 1    
    92   45   46 2    
    93   45   47 1    
    94   47   48 1    
    95   47   49 1    
    96   47  170 1    
    97   48  171 1    
    98   48  172 1    
    99   48  173 1    
   100   49   50 am   BACKBONE|DICT|INTERRES
   101   49  174 1    
   102   50   51 2    
   103   50   52 1    
   104   52   53 1    
   105   52   54 1    
   106   52  175 1    
   107   53  176 1    
   108   53  177 1    
   109   53  178 1    
   110   54   55 am   BACKBONE|DICT|INTERRES
   111   54  179 1    
   112   55   56 2    
   113   55   57 1    
   114   57   58 1    
   115   57   59 1    
   116   57  180 1    
   117   58  181 1    
   118   58  182 1    
   119   58  183 1    
   120   59   60 am   BACKBONE|DICT|INTERRES
   121   59  184 1    
   122   60   61 2    
   123   60   62 1    
   124   62   63 1    
   125   62   64 1    
   126   62  185 1    
   127   63  186 1    
   128   63  187 1    
   129   63  188 1    
   130   64   65 am   BACKBONE|DICT|INTERRES
   131   64  189 1    
   132   65   66 2    
   133   67   68 2    
   134   67   69 am   BACKBONE|DICT|INTERRES
   135   69   70 1    
   136   69  190 1    
   137   70   71 1    
   138   70   72 1    
   139   70  191 1    
   140   71  192 1    
   141   71  193 1    
   142   71  194 1    
   143   72   73 2    
   144   72   74 am   BACKBONE|DICT|INTERRES
   145   74   75 1    
   146   74  195 1    
   147   75   76 1    
   148   75   77 1    
   149   75  196 1    
   150   76  197 1    
   151   76  198 1    
   152   76  199 1    
   153   77   78 2    
   154   77   79 am   BACKBONE|DICT|INTERRES
   155   79   80 1    
   156   79  200 1    
   157   80   81 1    
   158   80   82 1    
   159   80  201 1    
   160   81  202 1    
   161   81  203 1    
   162   81  204 1    
   163   82   83 2    
   164   82   84 am   BACKBONE|DICT|INTERRES
   165   84   85 1    
   166   84  205 1    
   167   85   86 1    
   168   85   87 1    
   169   85  206 1    
   170   86  207 1    
   171   86  208 1    
   172   86  209 1    
   173   87   88 2    
   174   87   89 am   BACKBONE|DICT|INTERRES
   175   89   90 1    
   176   89  210 1    
   177   90   91 1    
   178   90   92 1    
   179   90  211 1    
   180   91  212 1    
   181   91  213 1    
   182   91  214 1    
   183   92   93 2    
   184   92   94 am   BACKBONE|DICT|INTERRES
   185   94   95 1    
   186   94  215 1    
   187   95   96 1    
   188   95   97 1    
   189   95  216 1    
   190   96  217 1    
   191   96  218 1    
   192   96  219 1    
   193   97   98 2    
   194   97   99 am   BACKBONE|DICT|INTERRES
   195   99  100 1    
   196   99  220 1    
   197  100  101 1    
   198  100  102 1    
   199  100  221 1    
   200  101  222 1    
   201  101  223 1    
   202  101  224 1    
   203  102  103 2    
   204  102  104 am   BACKBONE|DICT|INTERRES
   205  104  105 1    
   206  104  225 1    
   207  105  106 1    
   208  105  107 1    
   209  105  226 1    
   210  106  227 1    
   211  106  228 1    
   212  106  229 1    
   213  107  108 2    
   214  107  109 am   BACKBONE|DICT|INTERRES
   215  109  110 1    
   216  109  230 1    
   217  110  111 1    
   218  110  112 1    
   219  110  231 1    
   220  111  232 1    
   221  111  233 1    
   222  111  234 1    
   223  112  113 2    
   224  112  114 am   BACKBONE|DICT|INTERRES
   225  114  115 1    
   226  114  235 1    
   227  115  116 1    
   228  115  117 1    
   229  115  236 1    
   230  116  237 1    
   231  116  238 1    
   232  116  239 1    
   233  117  118 2    
   234  117  119 am   BACKBONE|DICT|INTERRES
   235  119  120 1    
   236  119  240 1    
   237  120  121 1    
   238  120  124 1    
   239  120  241 1    
   240  121  122 am   BACKBONE|DICT|INTERRES
   241  121  123 2    
   242  122  242 1    
   243  122  243 1    
   244  124  125 1    
   245  124  244 1    
   246  124  245 1    
   247  125  126 1    
   248  126  246 1    
   249  126  247 1    
@<TRIPOS>SUBSTRUCTURE
     1 UNK         1 GROUP             0       ****    0 ROOT    
