@<TRIPOS>MOLECULE
3R540
247   249    1
SMALL
USER_CHARGES


@<TRIPOS>ATOM
      1 CA         -2.7860   -8.6456  -44.7890 C.3       0 UNK        -0.1800 
      2 C          -2.1921   -9.2697  -46.0440 C.2       0 UNK         0.5000 
      3 O          -1.7495   -8.5462  -46.9362 O.2       0 UNK        -0.5000 
      4 N          -2.1849  -10.6075  -46.1154 N.am      1 UNK        -0.5000 
      5 CA         -1.6236  -11.3932  -47.2225 C.3       1 UNK         0.1400 
      6 C6         -2.0407  -12.8813  -47.1103 C.3       23 UNK        -0.0398 
      7 S7         -2.0258  -13.7781  -48.6979 S.3       23 UNK        -0.2404 
      8 C8         -0.4034  -14.6181  -48.6340 C.3       23 UNK        -0.0205 
      9 C9         -0.1860  -15.6651  -49.7270 C.ar      23 UNK        -0.0193 
     10 C10        -0.7865  -15.5615  -50.9901 C.ar      23 UNK        -0.1150 
     11 C11        -0.5753  -16.5408  -51.9649 C.ar      23 UNK        -0.0193 
     12 C12         0.2586  -17.6235  -51.6775 C.ar      23 UNK        -0.1150 
     13 C13         0.8936  -17.7242  -50.4394 C.ar      23 UNK        -0.0193 
     14 C14         0.6634  -16.7469  -49.4668 C.ar      23 UNK        -0.1150 
     15 C15         1.8389  -18.8846  -50.1740 C.3       23 UNK        -0.0205 
     16 S16         0.9311  -20.4115  -49.7907 S.3       23 UNK        -0.2404 
     17 C17         0.4610  -20.0872  -48.0623 C.3       23 UNK        -0.0398 
     18 CA         -0.2061  -21.3154  -47.3995 C.3       11 UNK         0.1400 
     19 N           0.0655  -21.3654  -45.9620 N.am      11 UNK        -0.5000 
     20 C          -0.0378  -22.4650  -45.2051 C.2       10 UNK         0.5000 
     21 O          -0.3121  -23.5776  -45.6525 O.2       10 UNK        -0.5000 
     22 CA          0.1858  -22.2943  -43.6895 C.3       10 UNK         0.1400 
     23 CB          1.6689  -22.4772  -43.3349 C.3       10 UNK        -0.1800 
     24 N          -0.2841  -21.0042  -43.1795 N.am      10 UNK        -0.5000 
     25 C          -1.5683  -20.6192  -43.1712 C.2       9 UNK         0.5000 
     26 O          -2.4951  -21.3307  -43.5571 O.2       9 UNK        -0.5000 
     27 CA         -1.8642  -19.1827  -42.7041 C.3       9 UNK         0.1400 
     28 CB         -1.8758  -19.0986  -41.1707 C.3       9 UNK        -0.1800 
     29 N          -0.9225  -18.2023  -43.2475 N.am      9 UNK        -0.5000 
     30 C          -0.7662  -17.9384  -44.5529 C.2       8 UNK         0.5000 
     31 O          -1.4231  -18.4760  -45.4432 O.2       8 UNK        -0.5000 
     32 CA          0.3536  -16.9548  -44.9360 C.3       8 UNK         0.1400 
     33 CB         -0.0789  -15.5050  -44.6794 C.3       8 UNK        -0.1800 
     34 N           1.6074  -17.2343  -44.2364 N.am      8 UNK        -0.5000 
     35 C           2.2923  -18.3826  -44.3396 C.2       7 UNK         0.5000 
     36 O           1.9748  -19.3037  -45.0900 O.2       7 UNK        -0.5000 
     37 CA          3.4992  -18.5553  -43.4048 C.3       7 UNK         0.1400 
     38 CB          4.7427  -17.8596  -43.9772 C.3       7 UNK        -0.1800 
     39 N           3.2142  -18.0519  -42.0611 N.am      7 UNK        -0.5000 
     40 C           2.3681  -18.6402  -41.2029 C.2       6 UNK         0.5000 
     41 O           1.7701  -19.6890  -41.4437 O.2       6 UNK        -0.5000 
     42 CA          2.1194  -17.9135  -39.8684 C.3       6 UNK         0.1400 
     43 CB          3.2264  -18.2440  -38.8564 C.3       6 UNK        -0.1800 
     44 N           2.0238  -16.4615  -40.0275 N.am      6 UNK        -0.5000 
     45 C           1.0337  -15.8369  -40.6804 C.2       5 UNK         0.5000 
     46 O           0.0756  -16.4205  -41.1854 O.2       5 UNK        -0.5000 
     47 CA          1.1582  -14.3093  -40.8363 C.3       5 UNK         0.1400 
     48 CB          0.5428  -13.5905  -39.6271 C.3       5 UNK        -0.1800 
     49 N           2.5344  -13.8432  -41.0273 N.am      5 UNK        -0.5000 
     50 C           3.3406  -14.2124  -42.0306 C.2       4 UNK         0.5000 
     51 O           3.0197  -15.0265  -42.8987 O.2       4 UNK        -0.5000 
     52 CA          4.7167  -13.5249  -42.0815 C.3       4 UNK         0.1400 
     53 CB          5.7395  -14.3172  -42.9139 C.3       4 UNK        -0.1800 
     54 N           4.5717  -12.1927  -42.6580 N.am      4 UNK        -0.5000 
     55 C           4.1592  -11.1017  -41.9989 C.2       3 UNK         0.5000 
     56 O           3.9591  -11.0716  -40.7837 O.2       3 UNK        -0.5000 
     57 CA          3.8951   -9.8451  -42.8522 C.3       3 UNK         0.1400 
     58 CB          5.1579   -8.9745  -42.9381 C.3       3 UNK        -0.1800 
     59 N           3.4386  -10.1723  -44.2075 N.am      3 UNK        -0.5000 
     60 C           2.2458  -10.7133  -44.4874 C.2       2 UNK         0.5000 
     61 O           1.3721  -10.9276  -43.6414 O.2       2 UNK        -0.5000 
     62 CA          2.0024  -11.1125  -45.9487 C.3       2 UNK         0.1400 
     63 CB          2.7226  -12.4344  -46.2803 C.3       2 UNK        -0.1800 
     64 N           0.5662  -11.2637  -46.1384 N.am      2 UNK        -0.5000 
     65 C          -0.0877  -11.2485  -47.3047 C.2       1 UNK         0.5000 
     66 O           0.4627  -11.1123  -48.3982 O.2       1 UNK        -0.5000 
     67 C          -1.7188  -21.3732  -47.7024 C.2       11 UNK         0.5000 
     68 O          -2.1175  -22.0152  -48.6720 O.2       11 UNK        -0.5000 
     69 N          -2.5350  -20.7108  -46.8692 N.am      12 UNK        -0.5000 
     70 CA         -3.9969  -20.7098  -46.9567 C.3       12 UNK         0.1400 
     71 CB         -4.5589  -19.6041  -46.0513 C.3       12 UNK        -0.1800 
     72 C          -4.6235  -22.0719  -46.6014 C.2       12 UNK         0.5000 
     73 O          -5.6655  -22.4253  -47.1584 O.2       12 UNK        -0.5000 
     74 N          -3.9746  -22.8145  -45.6944 N.am      13 UNK        -0.5000 
     75 CA         -4.3333  -24.1750  -45.2967 C.3       13 UNK         0.1400 
     76 CB         -3.4227  -24.6154  -44.1396 C.3       13 UNK        -0.1800 
     77 C          -4.2652  -25.1843  -46.4614 C.2       13 UNK         0.5000 
     78 O          -3.6288  -24.9242  -47.4867 O.2       13 UNK        -0.5000 
     79 N          -4.9476  -26.3235  -46.2743 N.am      14 UNK        -0.5000 
     80 CA         -5.1202  -27.4081  -47.2492 C.3       14 UNK         0.1400 
     81 CB         -3.7811  -28.1295  -47.5139 C.3       14 UNK        -0.1800 
     82 C          -5.8116  -26.9267  -48.5424 C.2       14 UNK         0.5000 
     83 O          -5.4194  -27.3303  -49.6374 O.2       14 UNK        -0.5000 
     84 N          -6.8121  -26.0462  -48.3785 N.am      15 UNK        -0.5000 
     85 CA         -7.5893  -25.3808  -49.4286 C.3       15 UNK         0.1400 
     86 CB         -8.4971  -26.3963  -50.1548 C.3       15 UNK        -0.1800 
     87 C          -6.6894  -24.5832  -50.3929 C.2       15 UNK         0.5000 
     88 O          -6.6618  -24.8715  -51.5895 O.2       15 UNK        -0.5000 
     89 N          -5.9396  -23.6190  -49.8393 N.am      16 UNK        -0.5000 
     90 CA         -4.9675  -22.7650  -50.5303 C.3       16 UNK         0.1400 
     91 CB         -5.6779  -21.8059  -51.5081 C.3       16 UNK        -0.1800 
     92 C          -3.8371  -23.5784  -51.1929 C.2       16 UNK         0.5000 
     93 O          -3.5454  -23.3802  -52.3760 O.2       16 UNK        -0.5000 
     94 N          -3.2518  -24.4984  -50.4103 N.am      17 UNK        -0.5000 
     95 CA         -2.1702  -25.4153  -50.7755 C.3       17 UNK         0.1400 
     96 CB         -0.8534  -24.6378  -50.9817 C.3       17 UNK        -0.1800 
     97 C          -2.5424  -26.3143  -51.9722 C.2       17 UNK         0.5000 
     98 O          -1.8300  -26.3377  -52.9771 O.2       17 UNK        -0.5000 
     99 N          -3.6734  -27.0222  -51.8372 N.am      18 UNK        -0.5000 
    100 CA        -4.2988  -27.8973  -52.8324 C.3       18 UNK         0.1400 
    101 CB        -3.4101  -29.1231  -53.1318 C.3       18 UNK        -0.1800 
    102 C         -4.7342  -27.1275  -54.0956 C.2       18 UNK         0.5000 
    103 O         -4.4621  -27.5635  -55.2161 O.2       18 UNK        -0.5000 
    104 N         -5.4101  -25.9909  -53.8742 N.am      19 UNK        -0.5000 
    105 CA        -5.9549  -25.0647  -54.8681 C.3       19 UNK         0.1400 
    106 CB        -7.1185  -25.7201  -55.6411 C.3       19 UNK        -0.1800 
    107 C         -4.8811  -24.4492  -55.7879 C.2       19 UNK         0.5000 
    108 O         -5.1212  -24.2781  -56.9850 O.2       19 UNK        -0.5000 
    109 N         -3.7177  -24.1132  -55.2129 N.am      20 UNK        -0.5000 
    110 CA        -2.6552  -23.3751  -55.8926 C.3       20 UNK         0.1400 
    111 CB        -1.3293  -23.5409  -55.1327 C.3       20 UNK        -0.1800 
    112 C         -3.0523  -21.8969  -56.0279 C.2       20 UNK         0.5000 
    113 O         -3.1371  -21.3882  -57.1463 O.2       20 UNK        -0.5000 
    114 N         -3.3308  -21.2609  -54.8780 N.am      21 UNK        -0.5000 
    115 CA        -3.9548  -19.9403  -54.7062 C.3       21 UNK         0.1400 
    116 CB        -5.4694  -20.0661  -54.9714 C.3       21 UNK        -0.1800 
    117 C         -3.3219  -18.7795  -55.5126 C.2       21 UNK         0.5000 
    118 O         -4.0253  -17.8280  -55.8566 O.2       21 UNK        -0.5000 
    119 N         -2.0168  -18.8748  -55.8079 N.am      22 UNK        -0.5000 
    120 CA        -1.2662  -17.9715  -56.7045 C.3       22 UNK         0.1400 
    121 C         -1.7372  -18.0066  -58.1951 C.2       22 UNK         0.5000 
    122 N         -2.4361  -19.0407  -58.6484 N.am      22 UNK        -0.7600 
    123 O         -1.4382  -17.1021  -58.9708 O.2       22 UNK        -0.5000 
    124 C124       -1.1286  -16.5229  -56.1456 C.3       23 UNK        -0.0398 
    125 S125       -0.0464  -16.4413  -54.6813 S.3       23 UNK        -0.2404 
    126 C126       -1.2572  -16.4461  -53.3220 C.3       23 UNK        -0.0205 
    127 H127       -3.1468   -9.4015  -44.0911 H         1 UNK         0.0600 
    128 H128       -3.6228   -7.9983  -45.0515 H         1 UNK         0.0600 
    129 H129       -2.0344   -8.0433  -44.2785 H         1 UNK         0.0600 
    130 H130       -2.5741  -11.1386  -45.3494 H         1 UNK         0.3000 
    131 H131       -2.0439  -10.9864  -48.1450 H         1 UNK         0.0600 
    132 H132       -1.4401  -13.4070  -46.3685 H         1 UNK         0.0800 
    133 H133       -3.0677  -12.9453  -46.7477 H         1 UNK         0.0800 
    134 H134        0.3909  -13.8749  -48.7070 H         1 UNK         0.0800 
    135 H135       -0.3004  -15.0929  -47.6577 H         1 UNK         0.0800 
    136 H136       -1.4270  -14.7221  -51.2189 H         1 UNK         0.1150 
    137 H137        0.4259  -18.3846  -52.4271 H         1 UNK         0.1150 
    138 H138        1.1520  -16.8274  -48.5059 H         1 UNK         0.1150 
    139 H139        2.4548  -19.0560  -51.0581 H         1 UNK         0.0800 
    140 H140        2.5314  -18.6472  -49.3648 H         1 UNK         0.0800 
    141 H141       -0.1706  -19.1987  -48.0024 H         1 UNK         0.0800 
    142 H142        1.3827  -19.8358  -47.5378 H         1 UNK         0.0800 
    143 H143        0.2396  -22.2158  -47.8293 H         1 UNK         0.0600 
    144 H144        0.3721  -20.5028  -45.5253 H         1 UNK         0.3000 
    145 H145       -0.3823  -23.0782  -43.1841 H         1 UNK         0.0600 
    146 H146        1.8247  -22.4335  -42.2569 H         1 UNK         0.0600 
    147 H147        2.0361  -23.4452  -43.6779 H         1 UNK         0.0600 
    148 H148        2.2904  -21.7085  -43.7942 H         1 UNK         0.0600 
    149 H149        0.4202  -20.3794  -42.8006 H         1 UNK         0.3000 
    150 H150       -2.8602  -18.9174  -43.0641 H         1 UNK         0.0600 
    151 H151       -2.5804  -19.8142  -40.7452 H         1 UNK         0.0600 
    152 H152       -2.1766  -18.1066  -40.8335 H         1 UNK         0.0600 
    153 H153       -0.8940  -19.3116  -40.7474 H         1 UNK         0.0600 
    154 H154       -0.3743  -17.6780  -42.5710 H         1 UNK         0.3000 
    155 H155        0.5381  -17.0687  -46.0061 H         1 UNK         0.0600 
    156 H156       -1.0385  -15.3022  -45.1542 H         1 UNK         0.0600 
    157 H157        0.6466  -14.7979  -45.0805 H         1 UNK         0.0600 
    158 H158       -0.1951  -15.2994  -43.6164 H         1 UNK         0.0600 
    159 H159        1.9699  -16.5066  -43.6270 H         1 UNK         0.3000 
    160 H160        3.7160  -19.6229  -43.3286 H         1 UNK         0.0600 
    161 H161        4.5740  -16.7955  -44.1392 H         1 UNK         0.0600 
    162 H162        5.0189  -18.2934  -44.9390 H         1 UNK         0.0600 
    163 H163        5.6000  -17.9690  -43.3129 H         1 UNK         0.0600 
    164 H164        3.6129  -17.1576  -41.8172 H         1 UNK         0.3000 
    165 H165        1.1705  -18.2741  -39.4655 H         1 UNK         0.0600 
    166 H166        3.0180  -17.7966  -37.8843 H         1 UNK         0.0600 
    167 H167        3.3079  -19.3214  -38.7062 H         1 UNK         0.0600 
    168 H168        4.2004  -17.8844  -39.1903 H         1 UNK         0.0600 
    169 H169        2.7728  -15.9057  -39.6419 H         1 UNK         0.3000 
    170 H170        0.5919  -14.0223  -41.7242 H         1 UNK         0.0600 
    171 H171       -0.4919  -13.9002  -39.4735 H         1 UNK         0.0600 
    172 H172        1.0905  -13.8054  -38.7087 H         1 UNK         0.0600 
    173 H173        0.5392  -12.5099  -39.7715 H         1 UNK         0.0600 
    174 H174        2.8604  -13.1230  -40.3958 H         1 UNK         0.3000 
    175 H175        5.1014  -13.4463  -41.0624 H         1 UNK         0.0600 
    176 H176        5.4290  -14.4147  -43.9551 H         1 UNK         0.0600 
    177 H177        6.7155  -13.8319  -42.9016 H         1 UNK         0.0600 
    178 H178        5.8732  -15.3223  -42.5124 H         1 UNK         0.0600 
    179 H179        4.6813  -12.1271  -43.6586 H         1 UNK         0.3000 
    180 H180        3.1133   -9.2656  -42.3562 H         1 UNK         0.0600 
    181 H181        5.9743   -9.4954  -43.4399 H         1 UNK         0.0600 
    182 H182        5.5083   -8.6967  -41.9431 H         1 UNK         0.0600 
    183 H183        4.9635   -8.0502  -43.4824 H         1 UNK         0.0600 
    184 H184        4.0973  -10.0135  -44.9567 H         1 UNK         0.3000 
    185 H185        2.3684  -10.3138  -46.5971 H         1 UNK         0.0600 
    186 H186        3.8032  -12.3281  -46.1812 H         1 UNK         0.0600 
    187 H187        2.4117  -13.2396  -45.6136 H         1 UNK         0.0600 
    188 H188        2.5246  -12.7527  -47.3038 H         1 UNK         0.0600 
    189 H189        0.0477  -11.3140  -45.2697 H         1 UNK         0.3000 
    190 H190       -2.1244  -20.1339  -46.1405 H         1 UNK         0.3000 
    191 H191       -4.2733  -20.4754  -47.9864 H         1 UNK         0.0600 
    192 H192       -4.1707  -18.6259  -46.3360 H         1 UNK         0.0600 
    193 H193       -5.6463  -19.5563  -46.1217 H         1 UNK         0.0600 
    194 H194       -4.3042  -19.7733  -45.0048 H         1 UNK         0.0600 
    195 H195       -3.1545  -22.4169  -45.2526 H         1 UNK         0.3000 
    196 H196       -5.3630  -24.1458  -44.9352 H         1 UNK         0.0600 
    197 H197       -3.7093  -25.5979  -43.7629 H         1 UNK         0.0600 
    198 H198       -3.4818  -23.9200  -43.3022 H         1 UNK         0.0600 
    199 H199       -2.3805  -24.6781  -44.4507 H         1 UNK         0.0600 
    200 H200       -5.4334  -26.4513  -45.3971 H         1 UNK         0.3000 
    201 H201       -5.7984  -28.1309  -46.7936 H         1 UNK         0.0600 
    202 H202       -3.3234  -28.4638  -46.5830 H         1 UNK         0.0600 
    203 H203       -3.0655  -27.4866  -48.0267 H         1 UNK         0.0600 
    204 H204       -3.9297  -29.0124  -48.1368 H         1 UNK         0.0600 
    205 H205       -7.0313  -25.7643  -47.4338 H         1 UNK         0.3000 
    206 H206       -8.2355  -24.6552  -48.9325 H         1 UNK         0.0600 
    207 H207       -9.1493  -26.9144  -49.4519 H         1 UNK         0.0600 
    208 H208       -9.1364  -25.8952  -50.8825 H         1 UNK         0.0600 
    209 H209       -7.9196  -27.1489  -50.6927 H         1 UNK         0.0600 
    210 H210       -6.0022  -23.4617  -48.8377 H         1 UNK         0.3000 
    211 H211       -4.4964  -22.1531  -49.7628 H         1 UNK         0.0600 
    212 H212       -6.1333  -22.3389  -52.3431 H         1 UNK         0.0600 
    213 H213       -4.9725  -21.0866  -51.9239 H         1 UNK         0.0600 
    214 H214       -6.4602  -21.2381  -51.0049 H         1 UNK         0.0600 
    215 H215       -3.5529  -24.5620  -49.4412 H         1 UNK         0.3000 
    216 H216       -2.0295  -26.0785  -49.9210 H         1 UNK         0.0600 
    217 H217       -0.0226  -25.3187  -51.1693 H         1 UNK         0.0600 
    218 H218       -0.6012  -24.0524  -50.0972 H         1 UNK         0.0600 
    219 H219       -0.9133  -23.9528  -51.8274 H         1 UNK         0.0600 
    220 H220       -4.2039  -26.9343  -50.9722 H         1 UNK         0.3000 
    221 H221       -5.2168  -28.2664  -52.3728 H         1 UNK         0.0600 
    222 H222       -2.4878  -28.8443  -53.6421 H         1 UNK         0.0600 
    223 H223       -3.1415  -29.6476  -52.2149 H         1 UNK         0.0600 
    224 H224       -3.9331  -29.8351  -53.7711 H         1 UNK         0.0600 
    225 H225       -5.6045  -25.7214  -52.9124 H         1 UNK         0.3000 
    226 H226       -6.3706  -24.2304  -54.3015 H         1 UNK         0.0600 
    227 H227       -7.8698  -26.1166  -54.9580 H         1 UNK         0.0600 
    228 H228       -7.6184  -24.9954  -56.2847 H         1 UNK         0.0600 
    229 H229       -6.7748  -26.5383  -56.2746 H         1 UNK         0.0600 
    230 H230       -3.6145  -24.2353  -54.2102 H         1 UNK         0.3000 
    231 H231       -2.5219  -23.7868  -56.8953 H         1 UNK         0.0600 
    232 H232       -1.3953  -23.1762  -54.1076 H         1 UNK         0.0600 
    233 H233       -0.5256  -22.9936  -55.6263 H         1 UNK         0.0600 
    234 H234       -1.0318  -24.5889  -55.0912 H         1 UNK         0.0600 
    235 H235       -3.2223  -21.7970  -54.0249 H         1 UNK         0.3000 
    236 H236       -3.8222  -19.6773  -53.6562 H         1 UNK         0.0600 
    237 H237       -5.9088  -20.8751  -54.3885 H         1 UNK         0.0600 
    238 H238       -5.9973  -19.1512  -54.6999 H         1 UNK         0.0600 
    239 H239       -5.6746  -20.2660  -56.0237 H         1 UNK         0.0600 
    240 H240       -1.5185  -19.6940  -55.4932 H         1 UNK         0.3000 
    241 H241       -0.2600  -18.3895  -56.7508 H         1 UNK         0.0600 
    242 H242       -2.7232  -19.0566  -59.6138 H         1 UNK         0.3800 
    243 H243       -2.6812  -19.8205  -58.0416 H         1 UNK         0.3800 
    244 H244       -0.6714  -15.8648  -56.8857 H         1 UNK         0.0800 
    245 H245       -2.1008  -16.0825  -55.9240 H         1 UNK         0.0800 
    246 H246       -1.8729  -15.5478  -53.3888 H         1 UNK         0.0800 
    247 H247       -1.9300  -17.2960  -53.4287 H         1 UNK         0.0800 
@<TRIPOS>BOND
     1    1    2 1    
     2    1  127 1    
     3    1  128 1    
     4    1  129 1    
     5    2    3 2    
     6    2    4 am   BACKBONE|DICT|INTERRES
     7    4    5 1    
     8    4  130 1    
     9    5    6 1    
    10    5   65 1    
    11    5  131 1    
    12    6    7 1    
    13    6  132 1    
    14    6  133 1    
    15    7    8 1    
    16    8    9 1    
    17    8  134 1    
    18    8  135 1    
    19    9   10 ar   
    20    9   14 ar   
    21   10   11 ar   
    22   10  136 1    
    23   11   12 ar   
    24   11  126 1    
    25   12   13 ar   
    26   12  137 1    
    27   13   14 ar   
    28   13   15 1    
    29   14  138 1    
    30   15   16 1    
    31   15  139 1    
    32   15  140 1    
    33   16   17 1    
    34   17   18 1    
    35   17  141 1    
    36   17  142 1    
    37   18   19 1    
    38   18   67 1    
    39   18  143 1    
    40   19   20 am   BACKBONE|DICT|INTERRES
    41   19  144 1    
    42   20   21 2    
    43   20   22 1    
    44   22   23 1    
    45   22   24 1    
    46   22  145 1    
    47   23  146 1    
    48   23  147 1    
    49   23  148 1    
    50   24   25 am   BACKBONE|DICT|INTERRES
    51   24  149 1    
    52   25   26 2    
    53   25   27 1    
    54   27   28 1    
    55   27   29 1    
    56   27  150 1    
    57   28  151 1    
    58   28  152 1    
    59   28  153 1    
    60   29   30 am   BACKBONE|DICT|INTERRES
    61   29  154 1    
    62   30   31 2    
    63   30   32 1    
    64   32   33 1    
    65   32   34 1    
    66   32  155 1    
    67   33  156 1    
    68   33  157 1    
    69   33  158 1    
    70   34   35 am   BACKBONE|DICT|INTERRES
    71   34  159 1    
    72   35   36 2    
    73   35   37 1    
    74   37   38 1    
    75   37   39 1    
    76   37  160 1    
    77   38  161 1    
    78   38  162 1    
    79   38  163 1    
    80   39   40 am   BACKBONE|DICT|INTERRES
    81   39  164 1    
    82   40   41 2    
    83   40   42 1    
    84   42   43 1    
    85   42   44 1    
    86   42  165 1    
    87   43  166 1    
    88   43  167 1    
    89   43  168 1    
    90   44   45 am   BACKBONE|DICT|INTERRES
    91   44  169 1    
    92   45   46 2    
    93   45   47 1    
    94   47   48 1    
    95   47   49 1    
    96   47  170 1    
    97   48  171 1    
    98   48  172 1    
    99   48  173 1    
   100   49   50 am   BACKBONE|DICT|INTERRES
   101   49  174 1    
   102   50   51 2    
   103   50   52 1    
   104   52   53 1    
   105   52   54 1    
   106   52  175 1    
   107   53  176 1    
   108   53  177 1    
   109   53  178 1    
   110   54   55 am   BACKBONE|DICT|INTERRES
   111   54  179 1    
   112   55   56 2    
   113   55   57 1    
   114   57   58 1    
   115   57   59 1    
   116   57  180 1    
   117   58  181 1    
   118   58  182 1    
   119   58  183 1    
   120   59   60 am   BACKBONE|DICT|INTERRES
   121   59  184 1    
   122   60   61 2    
   123   60   62 1    
   124   62   63 1    
   125   62   64 1    
   126   62  185 1    
   127   63  186 1    
   128   63  187 1    
   129   63  188 1    
   130   64   65 am   BACKBONE|DICT|INTERRES
   131   64  189 1    
   132   65   66 2    
   133   67   68 2    
   134   67   69 am   BACKBONE|DICT|INTERRES
   135   69   70 1    
   136   69  190 1    
   137   70   71 1    
   138   70   72 1    
   139   70  191 1    
   140   71  192 1    
   141   71  193 1    
   142   71  194 1    
   143   72   73 2    
   144   72   74 am   BACKBONE|DICT|INTERRES
   145   74   75 1    
   146   74  195 1    
   147   75   76 1    
   148   75   77 1    
   149   75  196 1    
   150   76  197 1    
   151   76  198 1    
   152   76  199 1    
   153   77   78 2    
   154   77   79 am   BACKBONE|DICT|INTERRES
   155   79   80 1    
   156   79  200 1    
   157   80   81 1    
   158   80   82 1    
   159   80  201 1    
   160   81  202 1    
   161   81  203 1    
   162   81  204 1    
   163   82   83 2    
   164   82   84 am   BACKBONE|DICT|INTERRES
   165   84   85 1    
   166   84  205 1    
   167   85   86 1    
   168   85   87 1    
   169   85  206 1    
   170   86  207 1    
   171   86  208 1    
   172   86  209 1    
   173   87   88 2    
   174   87   89 am   BACKBONE|DICT|INTERRES
   175   89   90 1    
   176   89  210 1    
   177   90   91 1    
   178   90   92 1    
   179   90  211 1    
   180   91  212 1    
   181   91  213 1    
   182   91  214 1    
   183   92   93 2    
   184   92   94 am   BACKBONE|DICT|INTERRES
   185   94   95 1    
   186   94  215 1    
   187   95   96 1    
   188   95   97 1    
   189   95  216 1    
   190   96  217 1    
   191   96  218 1    
   192   96  219 1    
   193   97   98 2    
   194   97   99 am   BACKBONE|DICT|INTERRES
   195   99  100 1    
   196   99  220 1    
   197  100  101 1    
   198  100  102 1    
   199  100  221 1    
   200  101  222 1    
   201  101  223 1    
   202  101  224 1    
   203  102  103 2    
   204  102  104 am   BACKBONE|DICT|INTERRES
   205  104  105 1    
   206  104  225 1    
   207  105  106 1    
   208  105  107 1    
   209  105  226 1    
   210  106  227 1    
   211  106  228 1    
   212  106  229 1    
   213  107  108 2    
   214  107  109 am   BACKBONE|DICT|INTERRES
   215  109  110 1    
   216  109  230 1    
   217  110  111 1    
   218  110  112 1    
   219  110  231 1    
   220  111  232 1    
   221  111  233 1    
   222  111  234 1    
   223  112  113 2    
   224  112  114 am   BACKBONE|DICT|INTERRES
   225  114  115 1    
   226  114  235 1    
   227  115  116 1    
   228  115  117 1    
   229  115  236 1    
   230  116  237 1    
   231  116  238 1    
   232  116  239 1    
   233  117  118 2    
   234  117  119 am   BACKBONE|DICT|INTERRES
   235  119  120 1    
   236  119  240 1    
   237  120  121 1    
   238  120  124 1    
   239  120  241 1    
   240  121  122 am   BACKBONE|DICT|INTERRES
   241  121  123 2    
   242  122  242 1    
   243  122  243 1    
   244  124  125 1    
   245  124  244 1    
   246  124  245 1    
   247  125  126 1    
   248  126  246 1    
   249  126  247 1    
@<TRIPOS>SUBSTRUCTURE
     1 UNK         1 GROUP             0       ****    0 ROOT    
