@<TRIPOS>MOLECULE
3R540
247   249    1
SMALL
USER_CHARGES


@<TRIPOS>ATOM
      1 CA          5.0650  -13.5329  -49.3564 C.3       0 UNK        -0.1800 
      2 C           3.6600  -13.8700  -48.8777 C.2       0 UNK         0.5000 
      3 O           3.5093  -14.5800  -47.8825 O.2       0 UNK        -0.5000 
      4 N           2.6390  -13.3667  -49.5861 N.am      1 UNK        -0.5000 
      5 CA          1.2112  -13.5505  -49.3026 C.3       1 UNK         0.1400 
      6 C6          0.3134  -12.8941  -50.3836 C.3       23 UNK        -0.0398 
      7 S7          0.5306  -13.6117  -52.0503 S.3       23 UNK        -0.2404 
      8 C8         -1.1977  -13.9261  -52.5587 C.3       23 UNK        -0.0205 
      9 C9         -1.6625  -15.3553  -52.2918 C.ar      23 UNK        -0.0193 
     10 C10        -2.2940  -16.0820  -53.3069 C.ar      23 UNK        -0.1150 
     11 C11        -2.7161  -17.3980  -53.0905 C.ar      23 UNK        -0.0193 
     12 C12        -2.5092  -17.9866  -51.8393 C.ar      23 UNK        -0.1150 
     13 C13        -1.8868  -17.2712  -50.8144 C.ar      23 UNK        -0.0193 
     14 C14        -1.4810  -15.9541  -51.0412 C.ar      23 UNK        -0.1150 
     15 C15        -1.6236  -17.9236  -49.4688 C.3       23 UNK        -0.0205 
     16 S16         0.0455  -18.6433  -49.4372 S.3       23 UNK        -0.2404 
     17 C17         0.2190  -19.0609  -47.6726 C.3       23 UNK        -0.0398 
     18 CA          0.1406  -20.5790  -47.3880 C.3       11 UNK         0.1400 
     19 N           0.6847  -20.9093  -46.0716 N.am      11 UNK        -0.5000 
     20 C           0.8974  -22.1481  -45.6084 C.2       10 UNK         0.5000 
     21 O           0.6838  -23.1710  -46.2586 O.2       10 UNK        -0.5000 
     22 CA          1.3872  -22.2619  -44.1540 C.3       10 UNK         0.1400 
     23 CB          2.8887  -21.9547  -44.0560 C.3       10 UNK        -0.1800 
     24 N           0.6439  -21.3912  -43.2414 N.am      10 UNK        -0.5000 
     25 C          -0.6699  -21.5032  -42.9949 C.2       9 UNK         0.5000 
     26 O          -1.3898  -22.3695  -43.4928 O.2       9 UNK        -0.5000 
     27 CA         -1.2942  -20.4462  -42.0678 C.3       9 UNK         0.1400 
     28 CB         -0.9648  -20.7468  -40.5980 C.3       9 UNK        -0.1800 
     29 N          -0.8720  -19.0850  -42.3962 N.am      9 UNK        -0.5000 
     30 C          -1.1265  -18.4655  -43.5576 C.2       8 UNK         0.5000 
     31 O          -1.7640  -18.9681  -44.4822 O.2       8 UNK        -0.5000 
     32 CA         -0.5117  -17.0677  -43.7423 C.3       8 UNK         0.1400 
     33 CB         -1.2910  -16.0152  -42.9384 C.3       8 UNK        -0.1800 
     34 N           0.9052  -17.0282  -43.3762 N.am      8 UNK        -0.5000 
     35 C           1.8589  -17.7793  -43.9478 C.2       7 UNK         0.5000 
     36 O           1.6530  -18.5603  -44.8730 O.2       7 UNK        -0.5000 
     37 CA          3.2739  -17.6763  -43.3648 C.3       7 UNK         0.1400 
     38 CB          4.0026  -16.4609  -43.9489 C.3       7 UNK        -0.1800 
     39 N           3.2495  -17.6000  -41.9058 N.am      7 UNK        -0.5000 
     40 C           2.9105  -18.6249  -41.1102 C.2       6 UNK         0.5000 
     41 O           2.6210  -19.7488  -41.5233 O.2       6 UNK        -0.5000 
     42 CA          2.8342  -18.3243  -39.6029 C.3       6 UNK         0.1400 
     43 CB          4.2363  -18.3117  -38.9756 C.3       6 UNK        -0.1800 
     44 N           2.1620  -17.0547  -39.3221 N.am      6 UNK        -0.5000 
     45 C           0.8708  -16.8117  -39.5860 C.2       5 UNK         0.5000 
     46 O           0.1034  -17.6434  -40.0695 O.2       5 UNK        -0.5000 
     47 CA          0.3548  -15.3919  -39.2926 C.3       5 UNK         0.1400 
     48 CB         -0.1535  -15.2955  -37.8465 C.3       5 UNK        -0.1800 
     49 N           1.3348  -14.3280  -39.5321 N.am      5 UNK        -0.5000 
     50 C           1.9174  -14.0591  -40.7085 C.2       4 UNK         0.5000 
     51 O           1.7703  -14.7553  -41.7175 O.2       4 UNK        -0.5000 
     52 CA          2.7791  -12.7821  -40.7455 C.3       4 UNK         0.1400 
     53 CB          4.0396  -12.9026  -39.8633 C.3       4 UNK        -0.1800 
     54 N           3.0765  -12.3670  -42.1209 N.am      4 UNK        -0.5000 
     55 C           4.0088  -12.8256  -42.9663 C.2       3 UNK         0.5000 
     56 O           4.9286  -13.5813  -42.6496 O.2       3 UNK        -0.5000 
     57 CA          3.8452  -12.3786  -44.4369 C.3       3 UNK         0.1400 
     58 CB          5.0966  -12.6630  -45.2859 C.3       3 UNK        -0.1800 
     59 N           2.6949  -13.0259  -45.0734 N.am      3 UNK        -0.5000 
     60 C           1.4063  -12.7597  -44.8164 C.2       2 UNK         0.5000 
     61 O           1.0372  -11.8620  -44.0554 O.2       2 UNK        -0.5000 
     62 CA          0.3689  -13.6533  -45.5288 C.3       2 UNK         0.1400 
     63 CB         -1.0795  -13.1406  -45.3872 C.3       2 UNK        -0.1800 
     64 N           0.6900  -13.9127  -46.9355 N.am      2 UNK        -0.5000 
     65 C           0.8511  -13.0015  -47.9059 C.2       1 UNK         0.5000 
     66 O           0.7453  -11.7843  -47.7418 O.2       1 UNK        -0.5000 
     67 C          -1.2882  -21.1258  -47.5614 C.2       11 UNK         0.5000 
     68 O          -1.5602  -21.7803  -48.5656 O.2       11 UNK        -0.5000 
     69 N          -2.1611  -20.8974  -46.5687 N.am      12 UNK        -0.5000 
     70 CA         -3.5351  -21.4007  -46.5513 C.3       12 UNK         0.1400 
     71 CB         -4.2843  -20.8405  -45.3343 C.3       12 UNK        -0.1800 
     72 C          -3.6148  -22.9367  -46.5808 C.2       12 UNK         0.5000 
     73 O          -4.4563  -23.4773  -47.2976 O.2       12 UNK        -0.5000 
     74 N          -2.7238  -23.6102  -45.8412 N.am      13 UNK        -0.5000 
     75 CA         -2.5917  -25.0661  -45.8452 C.3       13 UNK         0.1400 
     76 CB         -1.6589  -25.5045  -44.7058 C.3       13 UNK        -0.1800 
     77 C          -2.1032  -25.6098  -47.2009 C.2       13 UNK         0.5000 
     78 O          -2.6962  -26.5545  -47.7229 O.2       13 UNK        -0.5000 
     79 N          -1.0476  -24.9956  -47.7532 N.am      14 UNK        -0.5000 
     80 CA         -0.4309  -25.3828  -49.0231 C.3       14 UNK         0.1400 
     81 CB          0.9039  -24.6400  -49.1883 C.3       14 UNK        -0.1800 
     82 C          -1.3358  -25.1350  -50.2430 C.2       14 UNK         0.5000 
     83 O          -1.4132  -25.9884  -51.1274 O.2       14 UNK        -0.5000 
     84 N          -2.0008  -23.9741  -50.2688 N.am      15 UNK        -0.5000 
     85 CA         -2.8429  -23.5188  -51.3740 C.3       15 UNK         0.1400 
     86 CB         -2.7641  -21.9874  -51.4469 C.3       15 UNK        -0.1800 
     87 C          -4.3089  -23.9755  -51.2634 C.2       15 UNK         0.5000 
     88 O          -5.1060  -23.5959  -52.1216 O.2       15 UNK        -0.5000 
     89 N          -4.6493  -24.7370  -50.2124 N.am      16 UNK        -0.5000 
     90 CA         -5.9799  -25.2713  -49.8982 C.3       16 UNK         0.1400 
     91 CB         -6.3839  -26.3497  -50.9251 C.3       16 UNK        -0.1800 
     92 C          -7.0344  -24.1550  -49.7456 C.2       16 UNK         0.5000 
     93 O          -8.0480  -24.1511  -50.4446 O.2       16 UNK        -0.5000 
     94 N          -6.7380  -23.2079  -48.8453 N.am      17 UNK        -0.5000 
     95 CA         -7.4841  -21.9768  -48.5642 C.3       17 UNK         0.1400 
     96 CB         -8.8947  -22.2841  -48.0186 C.3       17 UNK        -0.1800 
     97 C          -7.4842  -21.0019  -49.7612 C.2       17 UNK         0.5000 
     98 O          -8.5027  -20.3714  -50.0495 O.2       17 UNK        -0.5000 
     99 N          -6.3197  -20.8952  -50.4204 N.am      18 UNK        -0.5000 
    100 CA        -6.0245  -20.0352  -51.5725 C.3       18 UNK         0.1400 
    101 CB        -6.0829  -18.5442  -51.1799 C.3       18 UNK        -0.1800 
    102 C         -6.8690  -20.3749  -52.8179 C.2       18 UNK         0.5000 
    103 O         -7.3246  -19.4753  -53.5268 O.2       18 UNK        -0.5000 
    104 N         -7.0398  -21.6753  -53.0875 N.am      19 UNK        -0.5000 
    105 CA        -7.8062  -22.2210  -54.2084 C.3       19 UNK         0.1400 
    106 CB        -8.2923  -23.6322  -53.8346 C.3       19 UNK        -0.1800 
    107 C         -6.9994  -22.1995  -55.5237 C.2       19 UNK         0.5000 
    108 O         -6.7939  -23.2437  -56.1435 O.2       19 UNK        -0.5000 
    109 N         -6.5286  -21.0052  -55.9088 N.am      20 UNK        -0.5000 
    110 CA        -5.8085  -20.6380  -57.1390 C.3       20 UNK         0.1400 
    111 CB        -6.6925  -20.8885  -58.3765 C.3       20 UNK        -0.1800 
    112 C         -4.4062  -21.2593  -57.3299 C.2       20 UNK         0.5000 
    113 O         -3.6469  -20.7581  -58.1600 O.2       20 UNK        -0.5000 
    114 N         -4.0726  -22.3173  -56.5795 N.am      21 UNK        -0.5000 
    115 CA        -2.7769  -22.9982  -56.6079 C.3       21 UNK         0.1400 
    116 CB        -2.8826  -24.3108  -55.8150 C.3       21 UNK        -0.1800 
    117 C         -1.6372  -22.1208  -56.0589 C.2       21 UNK         0.5000 
    118 O         -0.5573  -22.0807  -56.6489 O.2       21 UNK        -0.5000 
    119 N         -1.9206  -21.4305  -54.9461 N.am      22 UNK        -0.5000 
    120 CA        -1.0453  -20.4552  -54.2680 C.3       22 UNK         0.1400 
    121 C          0.2942  -21.0282  -53.7065 C.2       22 UNK         0.5000 
    122 N          0.4262  -22.3360  -53.5203 N.am      22 UNK        -0.7600 
    123 O          1.2202  -20.2798  -53.4073 O.2       22 UNK        -0.5000 
    124 C124       -0.8415  -19.1497  -55.0880 C.3       23 UNK        -0.0398 
    125 S125       -2.3780  -18.3622  -55.6988 S.3       23 UNK        -0.2404 
    126 C126       -3.4059  -18.1803  -54.2013 C.3       23 UNK        -0.0205 
    127 H127        5.0508  -12.8927  -50.2388 H         1 UNK         0.0600 
    128 H128        5.6033  -14.4467  -49.6078 H         1 UNK         0.0600 
    129 H129        5.6171  -13.0172  -48.5712 H         1 UNK         0.0600 
    130 H130        2.8415  -12.7923  -50.3916 H         1 UNK         0.3000 
    131 H131        1.0174  -14.6250  -49.3094 H         1 UNK         0.0600 
    132 H132       -0.7355  -12.9773  -50.0942 H         1 UNK         0.0800 
    133 H133        0.5176  -11.8240  -50.4529 H         1 UNK         0.0800 
    134 H134       -1.8774  -13.2258  -52.0722 H         1 UNK         0.0800 
    135 H135       -1.2647  -13.7101  -53.6261 H         1 UNK         0.0800 
    136 H136       -2.4525  -15.6286  -54.2755 H         1 UNK         0.1150 
    137 H137       -2.8241  -19.0037  -51.6587 H         1 UNK         0.1150 
    138 H138       -1.0025  -15.4065  -50.2446 H         1 UNK         0.1150 
    139 H139       -1.7249  -17.1822  -48.6747 H         1 UNK         0.0800 
    140 H140       -2.3624  -18.7014  -49.2684 H         1 UNK         0.0800 
    141 H141       -0.4967  -18.5036  -47.0657 H         1 UNK         0.0800 
    142 H142        1.2028  -18.6905  -47.3842 H         1 UNK         0.0800 
    143 H143        0.7729  -21.0894  -48.1179 H         1 UNK         0.0600 
    144 H144        0.9233  -20.1173  -45.4780 H         1 UNK         0.3000 
    145 H145        1.2301  -23.2933  -43.8317 H         1 UNK         0.0600 
    146 H146        3.2574  -22.1134  -43.0425 H         1 UNK         0.0600 
    147 H147        3.4642  -22.6035  -44.7174 H         1 UNK         0.0600 
    148 H148        3.1086  -20.9235  -44.3333 H         1 UNK         0.0600 
    149 H149        1.1728  -20.6629  -42.7740 H         1 UNK         0.3000 
    150 H150       -2.3780  -20.4966  -42.1906 H         1 UNK         0.0600 
    151 H151       -1.2712  -21.7577  -40.3263 H         1 UNK         0.0600 
    152 H152       -1.4839  -20.0587  -39.9305 H         1 UNK         0.0600 
    153 H153        0.1042  -20.6604  -40.3989 H         1 UNK         0.0600 
    154 H154       -0.3626  -18.5829  -41.6735 H         1 UNK         0.3000 
    155 H155       -0.5827  -16.8109  -44.8010 H         1 UNK         0.0600 
    156 H156       -1.3787  -16.2916  -41.8885 H         1 UNK         0.0600 
    157 H157       -0.8124  -15.0376  -42.9823 H         1 UNK         0.0600 
    158 H158       -2.3029  -15.9030  -43.3292 H         1 UNK         0.0600 
    159 H159        1.1741  -16.3807  -42.6409 H         1 UNK         0.3000 
    160 H160        3.8271  -18.5734  -43.6510 H         1 UNK         0.0600 
    161 H161        3.4499  -15.5426  -43.7578 H         1 UNK         0.0600 
    162 H162        4.1132  -16.5538  -45.0301 H         1 UNK         0.0600 
    163 H163        5.0010  -16.3505  -43.5255 H         1 UNK         0.0600 
    164 H164        3.4116  -16.6917  -41.4951 H         1 UNK         0.3000 
    165 H165        2.2571  -19.1239  -39.1334 H         1 UNK         0.0600 
    166 H166        4.1830  -18.1802  -37.8948 H         1 UNK         0.0600 
    167 H167        4.7550  -19.2530  -39.1623 H         1 UNK         0.0600 
    168 H168        4.8544  -17.5098  -39.3815 H         1 UNK         0.0600 
    169 H169        2.7219  -16.3126  -38.9293 H         1 UNK         0.3000 
    170 H170       -0.4903  -15.2088  -39.9583 H         1 UNK         0.0600 
    171 H171        0.6545  -15.4273  -37.1257 H         1 UNK         0.0600 
    172 H172       -0.6209  -14.3293  -37.6553 H         1 UNK         0.0600 
    173 H173       -0.9028  -16.0622  -37.6436 H         1 UNK         0.0600 
    174 H174        1.5127  -13.7100  -38.7536 H         1 UNK         0.3000 
    175 H175        2.1660  -11.9788  -40.3344 H         1 UNK         0.0600 
    176 H176        4.6883  -12.0341  -39.9779 H         1 UNK         0.0600 
    177 H177        4.6221  -13.7933  -40.1002 H         1 UNK         0.0600 
    178 H178        3.7728  -12.9676  -38.8081 H         1 UNK         0.0600 
    179 H179        2.3283  -11.8383  -42.5598 H         1 UNK         0.3000 
    180 H180        3.6832  -11.2987  -44.4377 H         1 UNK         0.0600 
    181 H181        5.2847  -13.7333  -45.3825 H         1 UNK         0.0600 
    182 H182        5.9836  -12.2098  -44.8416 H         1 UNK         0.0600 
    183 H183        4.9900  -12.2501  -46.2888 H         1 UNK         0.0600 
    184 H184        2.9096  -13.7563  -45.7403 H         1 UNK         0.3000 
    185 H185        0.4277  -14.6177  -45.0265 H         1 UNK         0.0600 
    186 H186       -1.3603  -13.0386  -44.3385 H         1 UNK         0.0600 
    187 H187       -1.2113  -12.1646  -45.8549 H         1 UNK         0.0600 
    188 H188       -1.7877  -13.8311  -45.8450 H         1 UNK         0.0600 
    189 H189        0.8696  -14.8797  -47.1671 H         1 UNK         0.3000 
    190 H190       -1.8777  -20.3309  -45.7724 H         1 UNK         0.3000 
    191 H191       -4.0302  -21.0306  -47.4516 H         1 UNK         0.0600 
    192 H192       -4.3231  -19.7515  -45.3635 H         1 UNK         0.0600 
    193 H193       -5.3130  -21.2019  -45.3062 H         1 UNK         0.0600 
    194 H194       -3.8059  -21.1328  -44.3988 H         1 UNK         0.0600 
    195 H195       -2.0919  -23.0934  -45.2373 H         1 UNK         0.3000 
    196 H196       -3.5787  -25.4923  -45.6532 H         1 UNK         0.0600 
    197 H197       -1.5532  -26.5897  -44.6824 H         1 UNK         0.0600 
    198 H198       -2.0504  -25.1944  -43.7367 H         1 UNK         0.0600 
    199 H199       -0.6610  -25.0786  -44.8125 H         1 UNK         0.0600 
    200 H200       -0.5992  -24.2369  -47.2462 H         1 UNK         0.3000 
    201 H201       -0.2190  -26.4532  -48.9799 H         1 UNK         0.0600 
    202 H202        1.5917  -24.8815  -48.3778 H         1 UNK         0.0600 
    203 H203        0.7632  -23.5582  -49.1954 H         1 UNK         0.0600 
    204 H204        1.3933  -24.9150  -50.1235 H         1 UNK         0.0600 
    205 H205       -1.8555  -23.3038  -49.5148 H         1 UNK         0.3000 
    206 H206       -2.4491  -23.9182  -52.3106 H         1 UNK         0.0600 
    207 H207       -1.7292  -21.6457  -51.4521 H         1 UNK         0.0600 
    208 H208       -3.2377  -21.6206  -52.3560 H         1 UNK         0.0600 
    209 H209       -3.2601  -21.5172  -50.5975 H         1 UNK         0.0600 
    210 H210       -3.9246  -24.9498  -49.5403 H         1 UNK         0.3000 
    211 H211       -5.8972  -25.7563  -48.9243 H         1 UNK         0.0600 
    212 H212       -6.5011  -25.9352  -51.9267 H         1 UNK         0.0600 
    213 H213       -7.3319  -26.8134  -50.6505 H         1 UNK         0.0600 
    214 H214       -5.6374  -27.1423  -50.9765 H         1 UNK         0.0600 
    215 H215       -5.8774  -23.3276  -48.3095 H         1 UNK         0.3000 
    216 H216       -6.9351  -21.4715  -47.7683 H         1 UNK         0.0600 
    217 H217       -9.3828  -21.3740  -47.6682 H         1 UNK         0.0600 
    218 H218       -8.8495  -22.9725  -47.1748 H         1 UNK         0.0600 
    219 H219       -9.5395  -22.7257  -48.7788 H         1 UNK         0.0600 
    220 H220       -5.5676  -21.4956  -50.1176 H         1 UNK         0.3000 
    221 H221       -4.9951  -20.2442  -51.8546 H         1 UNK         0.0600 
    222 H222       -7.0952  -18.2297  -50.9256 H         1 UNK         0.0600 
    223 H223       -5.4408  -18.3368  -50.3238 H         1 UNK         0.0600 
    224 H224       -5.7410  -17.9099  -51.9986 H         1 UNK         0.0600 
    225 H225       -6.5549  -22.3613  -52.5149 H         1 UNK         0.3000 
    226 H226       -8.6911  -21.6013  -54.3666 H         1 UNK         0.0600 
    227 H227       -8.9294  -23.6049  -52.9508 H         1 UNK         0.0600 
    228 H228       -8.8790  -24.0747  -54.6404 H         1 UNK         0.0600 
    229 H229       -7.4577  -24.3023  -53.6249 H         1 UNK         0.0600 
    230 H230       -6.7360  -20.2298  -55.2863 H         1 UNK         0.3000 
    231 H231       -5.6456  -19.5614  -57.0666 H         1 UNK         0.0600 
    232 H232       -6.8820  -21.9510  -58.5320 H         1 UNK         0.0600 
    233 H233       -6.2161  -20.5082  -59.2810 H         1 UNK         0.0600 
    234 H234       -7.6550  -20.3855  -58.2825 H         1 UNK         0.0600 
    235 H235       -4.7998  -22.7270  -56.0064 H         1 UNK         0.3000 
    236 H236       -2.5423  -23.2421  -57.6461 H         1 UNK         0.0600 
    237 H237       -3.6243  -24.9767  -56.2565 H         1 UNK         0.0600 
    238 H238       -1.9307  -24.8436  -55.8100 H         1 UNK         0.0600 
    239 H239       -3.1691  -24.1362  -54.7771 H         1 UNK         0.0600 
    240 H240       -2.8465  -21.5349  -54.5624 H         1 UNK         0.3000 
    241 H241       -1.5831  -20.1714  -53.3677 H         1 UNK         0.0600 
    242 H242       -0.3103  -22.9701  -53.7793 H         1 UNK         0.3800 
    243 H243        1.2928  -22.6948  -53.1528 H         1 UNK         0.3800 
    244 H244       -0.3109  -18.4066  -54.4901 H         1 UNK         0.0800 
    245 H245       -0.2051  -19.3494  -55.9512 H         1 UNK         0.0800 
    246 H246       -4.3256  -17.6606  -54.4733 H         1 UNK         0.0800 
    247 H247       -3.7129  -19.1676  -53.8561 H         1 UNK         0.0800 
@<TRIPOS>BOND
     1    1    2 1    
     2    1  127 1    
     3    1  128 1    
     4    1  129 1    
     5    2    3 2    
     6    2    4 am   BACKBONE|DICT|INTERRES
     7    4    5 1    
     8    4  130 1    
     9    5    6 1    
    10    5   65 1    
    11    5  131 1    
    12    6    7 1    
    13    6  132 1    
    14    6  133 1    
    15    7    8 1    
    16    8    9 1    
    17    8  134 1    
    18    8  135 1    
    19    9   10 ar   
    20    9   14 ar   
    21   10   11 ar   
    22   10  136 1    
    23   11   12 ar   
    24   11  126 1    
    25   12   13 ar   
    26   12  137 1    
    27   13   14 ar   
    28   13   15 1    
    29   14  138 1    
    30   15   16 1    
    31   15  139 1    
    32   15  140 1    
    33   16   17 1    
    34   17   18 1    
    35   17  141 1    
    36   17  142 1    
    37   18   19 1    
    38   18   67 1    
    39   18  143 1    
    40   19   20 am   BACKBONE|DICT|INTERRES
    41   19  144 1    
    42   20   21 2    
    43   20   22 1    
    44   22   23 1    
    45   22   24 1    
    46   22  145 1    
    47   23  146 1    
    48   23  147 1    
    49   23  148 1    
    50   24   25 am   BACKBONE|DICT|INTERRES
    51   24  149 1    
    52   25   26 2    
    53   25   27 1    
    54   27   28 1    
    55   27   29 1    
    56   27  150 1    
    57   28  151 1    
    58   28  152 1    
    59   28  153 1    
    60   29   30 am   BACKBONE|DICT|INTERRES
    61   29  154 1    
    62   30   31 2    
    63   30   32 1    
    64   32   33 1    
    65   32   34 1    
    66   32  155 1    
    67   33  156 1    
    68   33  157 1    
    69   33  158 1    
    70   34   35 am   BACKBONE|DICT|INTERRES
    71   34  159 1    
    72   35   36 2    
    73   35   37 1    
    74   37   38 1    
    75   37   39 1    
    76   37  160 1    
    77   38  161 1    
    78   38  162 1    
    79   38  163 1    
    80   39   40 am   BACKBONE|DICT|INTERRES
    81   39  164 1    
    82   40   41 2    
    83   40   42 1    
    84   42   43 1    
    85   42   44 1    
    86   42  165 1    
    87   43  166 1    
    88   43  167 1    
    89   43  168 1    
    90   44   45 am   BACKBONE|DICT|INTERRES
    91   44  169 1    
    92   45   46 2    
    93   45   47 1    
    94   47   48 1    
    95   47   49 1    
    96   47  170 1    
    97   48  171 1    
    98   48  172 1    
    99   48  173 1    
   100   49   50 am   BACKBONE|DICT|INTERRES
   101   49  174 1    
   102   50   51 2    
   103   50   52 1    
   104   52   53 1    
   105   52   54 1    
   106   52  175 1    
   107   53  176 1    
   108   53  177 1    
   109   53  178 1    
   110   54   55 am   BACKBONE|DICT|INTERRES
   111   54  179 1    
   112   55   56 2    
   113   55   57 1    
   114   57   58 1    
   115   57   59 1    
   116   57  180 1    
   117   58  181 1    
   118   58  182 1    
   119   58  183 1    
   120   59   60 am   BACKBONE|DICT|INTERRES
   121   59  184 1    
   122   60   61 2    
   123   60   62 1    
   124   62   63 1    
   125   62   64 1    
   126   62  185 1    
   127   63  186 1    
   128   63  187 1    
   129   63  188 1    
   130   64   65 am   BACKBONE|DICT|INTERRES
   131   64  189 1    
   132   65   66 2    
   133   67   68 2    
   134   67   69 am   BACKBONE|DICT|INTERRES
   135   69   70 1    
   136   69  190 1    
   137   70   71 1    
   138   70   72 1    
   139   70  191 1    
   140   71  192 1    
   141   71  193 1    
   142   71  194 1    
   143   72   73 2    
   144   72   74 am   BACKBONE|DICT|INTERRES
   145   74   75 1    
   146   74  195 1    
   147   75   76 1    
   148   75   77 1    
   149   75  196 1    
   150   76  197 1    
   151   76  198 1    
   152   76  199 1    
   153   77   78 2    
   154   77   79 am   BACKBONE|DICT|INTERRES
   155   79   80 1    
   156   79  200 1    
   157   80   81 1    
   158   80   82 1    
   159   80  201 1    
   160   81  202 1    
   161   81  203 1    
   162   81  204 1    
   163   82   83 2    
   164   82   84 am   BACKBONE|DICT|INTERRES
   165   84   85 1    
   166   84  205 1    
   167   85   86 1    
   168   85   87 1    
   169   85  206 1    
   170   86  207 1    
   171   86  208 1    
   172   86  209 1    
   173   87   88 2    
   174   87   89 am   BACKBONE|DICT|INTERRES
   175   89   90 1    
   176   89  210 1    
   177   90   91 1    
   178   90   92 1    
   179   90  211 1    
   180   91  212 1    
   181   91  213 1    
   182   91  214 1    
   183   92   93 2    
   184   92   94 am   BACKBONE|DICT|INTERRES
   185   94   95 1    
   186   94  215 1    
   187   95   96 1    
   188   95   97 1    
   189   95  216 1    
   190   96  217 1    
   191   96  218 1    
   192   96  219 1    
   193   97   98 2    
   194   97   99 am   BACKBONE|DICT|INTERRES
   195   99  100 1    
   196   99  220 1    
   197  100  101 1    
   198  100  102 1    
   199  100  221 1    
   200  101  222 1    
   201  101  223 1    
   202  101  224 1    
   203  102  103 2    
   204  102  104 am   BACKBONE|DICT|INTERRES
   205  104  105 1    
   206  104  225 1    
   207  105  106 1    
   208  105  107 1    
   209  105  226 1    
   210  106  227 1    
   211  106  228 1    
   212  106  229 1    
   213  107  108 2    
   214  107  109 am   BACKBONE|DICT|INTERRES
   215  109  110 1    
   216  109  230 1    
   217  110  111 1    
   218  110  112 1    
   219  110  231 1    
   220  111  232 1    
   221  111  233 1    
   222  111  234 1    
   223  112  113 2    
   224  112  114 am   BACKBONE|DICT|INTERRES
   225  114  115 1    
   226  114  235 1    
   227  115  116 1    
   228  115  117 1    
   229  115  236 1    
   230  116  237 1    
   231  116  238 1    
   232  116  239 1    
   233  117  118 2    
   234  117  119 am   BACKBONE|DICT|INTERRES
   235  119  120 1    
   236  119  240 1    
   237  120  121 1    
   238  120  124 1    
   239  120  241 1    
   240  121  122 am   BACKBONE|DICT|INTERRES
   241  121  123 2    
   242  122  242 1    
   243  122  243 1    
   244  124  125 1    
   245  124  244 1    
   246  124  245 1    
   247  125  126 1    
   248  126  246 1    
   249  126  247 1    
@<TRIPOS>SUBSTRUCTURE
     1 UNK         1 GROUP             0       ****    0 ROOT    
