@<TRIPOS>MOLECULE
3R540
247   249    1
SMALL
USER_CHARGES


@<TRIPOS>ATOM
      1 CA          2.1377  -10.1257  -52.0902 C.3       0 UNK        -0.1800 
      2 C           1.5808  -11.2340  -51.2072 C.2       0 UNK         0.5000 
      3 O           1.8138  -11.2231  -49.9982 O.2       0 UNK        -0.5000 
      4 N           0.8421  -12.1773  -51.8099 N.am      1 UNK        -0.5000 
      5 CA          0.2523  -13.3696  -51.1839 C.3       1 UNK         0.1400 
      6 C6         -0.6586  -13.0229  -49.9666 C.3       23 UNK        -0.0398 
      7 S7         -2.0713  -14.1615  -49.7789 S.3       23 UNK        -0.2404 
      8 C8         -1.7083  -14.9540  -48.1748 C.3       23 UNK        -0.0205 
      9 C9         -2.6281  -16.1368  -47.8987 C.ar      23 UNK        -0.0193 
     10 C10        -2.8116  -17.1297  -48.8658 C.ar      23 UNK        -0.1150 
     11 C11        -3.7023  -18.1819  -48.6487 C.ar      23 UNK        -0.0193 
     12 C12        -4.3832  -18.2628  -47.4329 C.ar      23 UNK        -0.1150 
     13 C13        -4.1701  -17.3088  -46.4317 C.ar      23 UNK        -0.0193 
     14 C14        -3.2970  -16.2437  -46.6751 C.ar      23 UNK        -0.1150 
     15 C15        -4.9065  -17.4056  -45.1015 C.3       23 UNK        -0.0205 
     16 S16        -3.9881  -18.3831  -43.8638 S.3       23 UNK        -0.2404 
     17 C17        -4.1255  -20.0654  -44.5565 C.3       23 UNK        -0.0398 
     18 CA         -2.7445  -20.5738  -45.0625 C.3       11 UNK         0.1400 
     19 N          -1.9070  -21.0396  -43.9526 N.am      11 UNK        -0.5000 
     20 C          -2.0708  -22.1785  -43.2598 C.2       10 UNK         0.5000 
     21 O          -2.9378  -23.0177  -43.5084 O.2       10 UNK        -0.5000 
     22 CA         -1.1233  -22.4061  -42.0741 C.3       10 UNK         0.1400 
     23 CB          0.1912  -23.0469  -42.5395 C.3       10 UNK        -0.1800 
     24 N          -0.8202  -21.1506  -41.3980 N.am      10 UNK        -0.5000 
     25 C          -1.5496  -20.6005  -40.4200 C.2       9 UNK         0.5000 
     26 O          -2.5653  -21.1181  -39.9525 O.2       9 UNK        -0.5000 
     27 CA         -1.0502  -19.2414  -39.8824 C.3       9 UNK         0.1400 
     28 CB         -1.4428  -18.9913  -38.4119 C.3       9 UNK        -0.1800 
     29 N           0.3895  -19.0420  -40.0881 N.am      9 UNK        -0.5000 
     30 C           1.4022  -19.7615  -39.5773 C.2       8 UNK         0.5000 
     31 O           1.2565  -20.6642  -38.7525 O.2       8 UNK        -0.5000 
     32 CA          2.8186  -19.4564  -40.1075 C.3       8 UNK         0.1400 
     33 CB          3.2883  -20.5911  -41.0326 C.3       8 UNK        -0.1800 
     34 N           2.9081  -18.1898  -40.8366 N.am      8 UNK        -0.5000 
     35 C           2.8610  -16.9780  -40.2670 C.2       7 UNK         0.5000 
     36 O           2.8224  -16.7950  -39.0498 O.2       7 UNK        -0.5000 
     37 CA          2.8065  -15.7697  -41.2187 C.3       7 UNK         0.1400 
     38 CB          4.2255  -15.3378  -41.6174 C.3       7 UNK        -0.1800 
     39 N           2.0076  -16.0179  -42.4235 N.am      7 UNK        -0.5000 
     40 C           0.6871  -16.2569  -42.4340 C.2       6 UNK         0.5000 
     41 O          -0.0061  -16.2984  -41.4183 O.2       6 UNK        -0.5000 
     42 CA          0.0367  -16.5414  -43.7997 C.3       6 UNK         0.1400 
     43 CB         -0.1523  -15.2462  -44.6014 C.3       6 UNK        -0.1800 
     44 N           0.8126  -17.4917  -44.5909 N.am      6 UNK        -0.5000 
     45 C           0.9817  -18.7843  -44.2846 C.2       5 UNK         0.5000 
     46 O           0.4404  -19.3488  -43.3318 O.2       5 UNK        -0.5000 
     47 CA          1.9392  -19.5749  -45.1895 C.3       5 UNK         0.1400 
     48 CB          1.2047  -20.0735  -46.4416 C.3       5 UNK        -0.1800 
     49 N           3.1021  -18.7815  -45.5871 N.am      5 UNK        -0.5000 
     50 C           4.0760  -18.3916  -44.7525 C.2       4 UNK         0.5000 
     51 O           4.1061  -18.6757  -43.5555 O.2       4 UNK        -0.5000 
     52 CA          5.1800  -17.5001  -45.3502 C.3       4 UNK         0.1400 
     53 CB          6.2337  -18.3518  -46.0735 C.3       4 UNK        -0.1800 
     54 N           4.6534  -16.4907  -46.2708 N.am      4 UNK        -0.5000 
     55 C           3.8654  -15.4729  -45.8984 C.2       3 UNK         0.5000 
     56 O           3.5179  -15.2679  -44.7372 O.2       3 UNK        -0.5000 
     57 CA          3.3336  -14.5562  -47.0130 C.3       3 UNK         0.1400 
     58 CB          4.3470  -13.4493  -47.3375 C.3       3 UNK        -0.1800 
     59 N           2.9694  -15.2542  -48.2475 N.am      3 UNK        -0.5000 
     60 C           2.0837  -16.2534  -48.3474 C.2       2 UNK         0.5000 
     61 O           1.5458  -16.7861  -47.3757 O.2       2 UNK        -0.5000 
     62 CA          1.6836  -16.6602  -49.7804 C.3       2 UNK         0.1400 
     63 CB          0.9026  -17.9862  -49.8206 C.3       2 UNK        -0.1800 
     64 N           0.8615  -15.6062  -50.3769 N.am      2 UNK        -0.5000 
     65 C           1.3204  -14.4378  -50.8420 C.2       1 UNK         0.5000 
     66 O           2.5245  -14.2039  -50.9835 O.2       1 UNK        -0.5000 
     67 C          -2.8053  -21.6405  -46.1816 C.2       11 UNK         0.5000 
     68 O          -1.7535  -22.0201  -46.6993 O.2       11 UNK        -0.5000 
     69 N          -3.9998  -22.1501  -46.5108 N.am      12 UNK        -0.5000 
     70 CA         -4.2369  -23.1542  -47.5510 C.3       12 UNK         0.1400 
     71 CB         -5.7525  -23.3603  -47.6946 C.3       12 UNK        -0.1800 
     72 C          -3.5236  -24.5060  -47.3326 C.2       12 UNK         0.5000 
     73 O          -3.3805  -25.2644  -48.2913 O.2       12 UNK        -0.5000 
     74 N          -3.0814  -24.7882  -46.0980 N.am      13 UNK        -0.5000 
     75 CA         -2.3033  -25.9809  -45.7625 C.3       13 UNK         0.1400 
     76 CB         -2.3999  -26.2411  -44.2511 C.3       13 UNK        -0.1800 
     77 C          -0.8266  -25.8914  -46.1995 C.2       13 UNK         0.5000 
     78 O          -0.1838  -26.9365  -46.3108 O.2       13 UNK        -0.5000 
     79 N          -0.3088  -24.6737  -46.4222 N.am      14 UNK        -0.5000 
     80 CA          1.0867  -24.4269  -46.7986 C.3       14 UNK         0.1400 
     81 CB          1.7812  -23.6377  -45.6795 C.3       14 UNK        -0.1800 
     82 C           1.2243  -23.6967  -48.1447 C.2       14 UNK         0.5000 
     83 O           2.2214  -23.9114  -48.8359 O.2       14 UNK        -0.5000 
     84 N           0.2480  -22.8514  -48.5032 N.am      15 UNK        -0.5000 
     85 CA          0.2000  -22.1338  -49.7769 C.3       15 UNK         0.1400 
     86 CB         -0.9454  -21.1119  -49.7325 C.3       15 UNK        -0.1800 
     87 C           0.0124  -23.0893  -50.9704 C.2       15 UNK         0.5000 
     88 O          -0.7216  -24.0745  -50.8604 O.2       15 UNK        -0.5000 
     89 N           0.6601  -22.7672  -52.0964 N.am      16 UNK        -0.5000 
     90 CA          0.5317  -23.4985  -53.3557 C.3       16 UNK         0.1400 
     91 CB          1.6458  -23.0545  -54.3159 C.3       16 UNK        -0.1800 
     92 C          -0.8534  -23.2622  -53.9814 C.2       16 UNK         0.5000 
     93 O          -1.2729  -22.1082  -54.0962 O.2       16 UNK        -0.5000 
     94 N          -1.5324  -24.3546  -54.3577 N.am      17 UNK        -0.5000 
     95 CA         -2.8703  -24.4534  -54.9635 C.3       17 UNK         0.1400 
     96 CB         -2.9196  -23.7412  -56.3290 C.3       17 UNK        -0.1800 
     97 C          -4.0385  -23.9986  -54.0617 C.2       17 UNK         0.5000 
     98 O          -5.0609  -24.6845  -54.0179 O.2       17 UNK        -0.5000 
     99 N          -3.8625  -22.8696  -53.3639 N.am      18 UNK        -0.5000 
    100 CA        -4.8292  -22.1669  -52.5179 C.3       18 UNK         0.1400 
    101 CB        -5.1815  -23.0119  -51.2757 C.3       18 UNK        -0.1800 
    102 C         -6.0649  -21.6790  -53.3087 C.2       18 UNK         0.5000 
    103 O         -5.9866  -21.5187  -54.5301 O.2       18 UNK        -0.5000 
    104 N         -7.1681  -21.4018  -52.5974 N.am      19 UNK        -0.5000 
    105 CA        -8.4367  -20.8673  -53.1033 C.3       19 UNK         0.1400 
    106 CB        -9.1839  -21.9403  -53.9267 C.3       19 UNK        -0.1800 
    107 C         -8.2265  -19.5344  -53.8511 C.2       19 UNK         0.5000 
    108 O         -7.9532  -18.5201  -53.2092 O.2       19 UNK        -0.5000 
    109 N         -8.3023  -19.5629  -55.1880 N.am      20 UNK        -0.5000 
    110 CA        -8.0347  -18.4280  -56.0737 C.3       20 UNK         0.1400 
    111 CB        -8.4097  -18.8214  -57.5107 C.3       20 UNK        -0.1800 
    112 C         -6.5798  -17.9158  -56.0164 C.2       20 UNK         0.5000 
    113 O         -6.3427  -16.7529  -56.3452 O.2       20 UNK        -0.5000 
    114 N         -5.6359  -18.7708  -55.5938 N.am      21 UNK        -0.5000 
    115 CA        -4.2262  -18.4182  -55.4136 C.3       21 UNK         0.1400 
    116 CB        -3.3742  -19.6956  -55.4321 C.3       21 UNK        -0.1800 
    117 C         -3.9552  -17.6058  -54.1312 C.2       21 UNK         0.5000 
    118 O         -2.8782  -17.0172  -54.0202 O.2       21 UNK        -0.5000 
    119 N         -4.9128  -17.5635  -53.1927 N.am      22 UNK        -0.5000 
    120 CA        -4.8437  -16.7909  -51.9394 C.3       22 UNK         0.1400 
    121 C         -5.0018  -15.2524  -52.1518 C.2       22 UNK         0.5000 
    122 N         -4.2181  -14.6458  -53.0325 N.am      22 UNK        -0.7600 
    123 O         -5.8359  -14.5992  -51.5299 O.2       22 UNK        -0.5000 
    124 C124       -5.8082  -17.3405  -50.8530 C.3       23 UNK        -0.0398 
    125 S125       -5.6117  -19.1160  -50.4626 S.3       23 UNK        -0.2404 
    126 C126       -3.9419  -19.2160  -49.7384 C.3       23 UNK        -0.0205 
    127 H127        1.8455  -10.2510  -53.1331 H         1 UNK         0.0600 
    128 H128        3.2266  -10.1195  -52.0408 H         1 UNK         0.0600 
    129 H129        1.7743   -9.1561  -51.7496 H         1 UNK         0.0600 
    130 H130        0.7181  -12.1221  -52.8112 H         1 UNK         0.3000 
    131 H131       -0.3717  -13.8052  -51.9662 H         1 UNK         0.0600 
    132 H132       -1.0931  -12.0313  -50.1008 H         1 UNK         0.0800 
    133 H133       -0.0853  -12.9642  -49.0393 H         1 UNK         0.0800 
    134 H134       -0.6778  -15.3014  -48.1426 H         1 UNK         0.0800 
    135 H135       -1.8053  -14.2012  -47.3911 H         1 UNK         0.0800 
    136 H136       -2.2821  -17.0634  -49.8049 H         1 UNK         0.1150 
    137 H137       -5.0896  -19.0653  -47.2828 H         1 UNK         0.1150 
    138 H138       -3.1479  -15.4924  -45.9125 H         1 UNK         0.1150 
    139 H139       -5.0709  -16.4046  -44.7001 H         1 UNK         0.0800 
    140 H140       -5.8991  -17.8344  -45.2480 H         1 UNK         0.0800 
    141 H141       -4.8811  -20.0460  -45.3379 H         1 UNK         0.0800 
    142 H142       -4.5295  -20.7248  -43.7869 H         1 UNK         0.0800 
    143 H143       -2.2156  -19.7338  -45.5168 H         1 UNK         0.0600 
    144 H144       -1.1550  -20.4166  -43.6770 H         1 UNK         0.3000 
    145 H145       -1.6110  -23.0916  -41.3778 H         1 UNK         0.0600 
    146 H146        0.8175  -23.3159  -41.6888 H         1 UNK         0.0600 
    147 H147        0.0058  -23.9580  -43.1093 H         1 UNK         0.0600 
    148 H148        0.7647  -22.3676  -43.1701 H         1 UNK         0.0600 
    149 H149       -0.0514  -20.6072  -41.7733 H         1 UNK         0.3000 
    150 H150       -1.5468  -18.4822  -40.4882 H         1 UNK         0.0600 
    151 H151       -2.5269  -18.9802  -38.2938 H         1 UNK         0.0600 
    152 H152       -1.0700  -18.0279  -38.0639 H         1 UNK         0.0600 
    153 H153       -1.0513  -19.7632  -37.7490 H         1 UNK         0.0600 
    154 H154        0.6225  -18.3088  -40.7462 H         1 UNK         0.3000 
    155 H155        3.4905  -19.4121  -39.2480 H         1 UNK         0.0600 
    156 H156        2.6629  -20.6681  -41.9230 H         1 UNK         0.0600 
    157 H157        3.2547  -21.5551  -40.5233 H         1 UNK         0.0600 
    158 H158        4.3164  -20.4334  -41.3587 H         1 UNK         0.0600 
    159 H159        3.0140  -18.2538  -41.8438 H         1 UNK         0.3000 
    160 H160        2.3406  -14.9445  -40.6763 H         1 UNK         0.0600 
    161 H161        4.7259  -16.1033  -42.2116 H         1 UNK         0.0600 
    162 H162        4.8407  -15.1495  -40.7366 H         1 UNK         0.0600 
    163 H163        4.2073  -14.4180  -42.2020 H         1 UNK         0.0600 
    164 H164        2.5032  -15.9518  -43.3094 H         1 UNK         0.3000 
    165 H165       -0.9486  -16.9783  -43.6220 H         1 UNK         0.0600 
    166 H166       -0.6150  -15.4515  -45.5649 H         1 UNK         0.0600 
    167 H167       -0.7980  -14.5474  -44.0685 H         1 UNK         0.0600 
    168 H168        0.7959  -14.7427  -44.7896 H         1 UNK         0.0600 
    169 H169        1.2501  -17.1378  -45.4362 H         1 UNK         0.3000 
    170 H170        2.2919  -20.4428  -44.6283 H         1 UNK         0.0600 
    171 H171        0.3602  -20.7005  -46.1634 H         1 UNK         0.0600 
    172 H172        0.8069  -19.2539  -47.0385 H         1 UNK         0.0600 
    173 H173        1.8594  -20.6683  -47.0783 H         1 UNK         0.0600 
    174 H174        3.1100  -18.4369  -46.5360 H         1 UNK         0.3000 
    175 H175        5.6708  -16.9815  -44.5238 H         1 UNK         0.0600 
    176 H176        5.8108  -18.8763  -46.9312 H         1 UNK         0.0600 
    177 H177        7.0604  -17.7369  -46.4298 H         1 UNK         0.0600 
    178 H178        6.6541  -19.1030  -45.4036 H         1 UNK         0.0600 
    179 H179        4.8838  -16.5907  -47.2484 H         1 UNK         0.3000 
    180 H180        2.4261  -14.0814  -46.6347 H         1 UNK         0.0600 
    181 H181        5.2639  -13.8557  -47.7659 H         1 UNK         0.0600 
    182 H182        4.6207  -12.8936  -46.4395 H         1 UNK         0.0600 
    183 H183        3.9329  -12.7331  -48.0481 H         1 UNK         0.0600 
    184 H184        3.2994  -14.8397  -49.1118 H         1 UNK         0.3000 
    185 H185        2.5956  -16.7871  -50.3675 H         1 UNK         0.0600 
    186 H186       -0.0109  -17.9386  -49.2273 H         1 UNK         0.0600 
    187 H187        0.6254  -18.2515  -50.8409 H         1 UNK         0.0600 
    188 H188        1.5061  -18.8043  -49.4259 H         1 UNK         0.0600 
    189 H189       -0.1381  -15.7215  -50.2887 H         1 UNK         0.3000 
    190 H190       -4.8162  -21.8478  -46.0013 H         1 UNK         0.3000 
    191 H191       -3.8570  -22.7448  -48.4884 H         1 UNK         0.0600 
    192 H192       -6.2548  -22.4295  -47.9591 H         1 UNK         0.0600 
    193 H193       -5.9782  -24.0836  -48.4794 H         1 UNK         0.0600 
    194 H194       -6.1959  -23.7322  -46.7701 H         1 UNK         0.0600 
    195 H195       -3.2287  -24.1172  -45.3521 H         1 UNK         0.3000 
    196 H196       -2.7459  -26.8373  -46.2759 H         1 UNK         0.0600 
    197 H197       -1.9193  -27.1841  -43.9879 H         1 UNK         0.0600 
    198 H198       -3.4380  -26.3033  -43.9244 H         1 UNK         0.0600 
    199 H199       -1.9116  -25.4566  -43.6737 H         1 UNK         0.0600 
    200 H200       -0.9125  -23.8630  -46.3470 H         1 UNK         0.3000 
    201 H201        1.6249  -25.3699  -46.9131 H         1 UNK         0.0600 
    202 H202        1.8612  -24.2366  -44.7726 H         1 UNK         0.0600 
    203 H203        1.2330  -22.7302  -45.4353 H         1 UNK         0.0600 
    204 H204        2.7931  -23.3475  -45.9657 H         1 UNK         0.0600 
    205 H205       -0.5298  -22.6838  -47.8715 H         1 UNK         0.3000 
    206 H206        1.1422  -21.5946  -49.8953 H         1 UNK         0.0600 
    207 H207       -0.9821  -20.5229  -50.6497 H         1 UNK         0.0600 
    208 H208       -1.9095  -21.6080  -49.6202 H         1 UNK         0.0600 
    209 H209       -0.8273  -20.4164  -48.9012 H         1 UNK         0.0600 
    210 H210        1.2124  -21.9229  -52.1250 H         1 UNK         0.3000 
    211 H211        0.6598  -24.5638  -53.1513 H         1 UNK         0.0600 
    212 H212        1.5806  -21.9900  -54.5453 H         1 UNK         0.0600 
    213 H213        1.5855  -23.5975  -55.2600 H         1 UNK         0.0600 
    214 H214        2.6319  -23.2474  -53.8929 H         1 UNK         0.0600 
    215 H215       -1.0984  -25.2488  -54.1749 H         1 UNK         0.3000 
    216 H216       -3.0247  -25.5173  -55.1505 H         1 UNK         0.0600 
    217 H217       -3.8854  -23.8946  -56.8120 H         1 UNK         0.0600 
    218 H218       -2.1538  -24.1256  -57.0025 H         1 UNK         0.0600 
    219 H219       -2.7738  -22.6653  -56.2342 H         1 UNK         0.0600 
    220 H220       -2.9803  -22.3877  -53.5215 H         1 UNK         0.3000 
    221 H221       -4.3141  -21.2694  -52.1743 H         1 UNK         0.0600 
    222 H222       -4.2823  -23.4149  -50.8092 H         1 UNK         0.0600 
    223 H223       -5.6914  -22.4122  -50.5219 H         1 UNK         0.0600 
    224 H224       -5.8293  -23.8527  -51.5261 H         1 UNK         0.0600 
    225 H225       -7.1192  -21.5080  -51.5944 H         1 UNK         0.3000 
    226 H226       -9.0492  -20.6346  -52.2310 H         1 UNK         0.0600 
    227 H227       -9.4042  -22.8134  -53.3124 H         1 UNK         0.0600 
    228 H228      -10.1375  -21.5597  -54.2951 H         1 UNK         0.0600 
    229 H229       -8.6071  -22.2843  -54.7858 H         1 UNK         0.0600 
    230 H230       -8.4858  -20.4496  -55.6347 H         1 UNK         0.3000 
    231 H231       -8.6814  -17.6045  -55.7640 H         1 UNK         0.0600 
    232 H232       -7.8090  -19.6592  -57.8672 H         1 UNK         0.0600 
    233 H233       -8.2528  -17.9889  -58.1979 H         1 UNK         0.0600 
    234 H234       -9.4598  -19.1054  -57.5815 H         1 UNK         0.0600 
    235 H235       -5.9029  -19.7174  -55.3374 H         1 UNK         0.3000 
    236 H236       -3.9164  -17.8015  -56.2599 H         1 UNK         0.0600 
    237 H237       -3.5732  -20.2938  -56.3212 H         1 UNK         0.0600 
    238 H238       -2.3101  -19.4561  -55.4324 H         1 UNK         0.0600 
    239 H239       -3.5624  -20.3167  -54.5581 H         1 UNK         0.0600 
    240 H240       -5.7924  -18.0333  -53.3669 H         1 UNK         0.3000 
    241 H241       -3.8352  -16.9115  -51.5450 H         1 UNK         0.0600 
    242 H242       -4.3032  -13.6541  -53.1877 H         1 UNK         0.3800 
    243 H243       -3.5352  -15.1924  -53.5450 H         1 UNK         0.3800 
    244 H244       -6.8418  -17.1864  -51.1652 H         1 UNK         0.0800 
    245 H245       -5.6970  -16.7758  -49.9259 H         1 UNK         0.0800 
    246 H246       -3.2037  -19.1194  -50.5358 H         1 UNK         0.0800 
    247 H247       -3.8097  -20.2122  -49.3159 H         1 UNK         0.0800 
@<TRIPOS>BOND
     1    1    2 1    
     2    1  127 1    
     3    1  128 1    
     4    1  129 1    
     5    2    3 2    
     6    2    4 am   BACKBONE|DICT|INTERRES
     7    4    5 1    
     8    4  130 1    
     9    5    6 1    
    10    5   65 1    
    11    5  131 1    
    12    6    7 1    
    13    6  132 1    
    14    6  133 1    
    15    7    8 1    
    16    8    9 1    
    17    8  134 1    
    18    8  135 1    
    19    9   10 ar   
    20    9   14 ar   
    21   10   11 ar   
    22   10  136 1    
    23   11   12 ar   
    24   11  126 1    
    25   12   13 ar   
    26   12  137 1    
    27   13   14 ar   
    28   13   15 1    
    29   14  138 1    
    30   15   16 1    
    31   15  139 1    
    32   15  140 1    
    33   16   17 1    
    34   17   18 1    
    35   17  141 1    
    36   17  142 1    
    37   18   19 1    
    38   18   67 1    
    39   18  143 1    
    40   19   20 am   BACKBONE|DICT|INTERRES
    41   19  144 1    
    42   20   21 2    
    43   20   22 1    
    44   22   23 1    
    45   22   24 1    
    46   22  145 1    
    47   23  146 1    
    48   23  147 1    
    49   23  148 1    
    50   24   25 am   BACKBONE|DICT|INTERRES
    51   24  149 1    
    52   25   26 2    
    53   25   27 1    
    54   27   28 1    
    55   27   29 1    
    56   27  150 1    
    57   28  151 1    
    58   28  152 1    
    59   28  153 1    
    60   29   30 am   BACKBONE|DICT|INTERRES
    61   29  154 1    
    62   30   31 2    
    63   30   32 1    
    64   32   33 1    
    65   32   34 1    
    66   32  155 1    
    67   33  156 1    
    68   33  157 1    
    69   33  158 1    
    70   34   35 am   BACKBONE|DICT|INTERRES
    71   34  159 1    
    72   35   36 2    
    73   35   37 1    
    74   37   38 1    
    75   37   39 1    
    76   37  160 1    
    77   38  161 1    
    78   38  162 1    
    79   38  163 1    
    80   39   40 am   BACKBONE|DICT|INTERRES
    81   39  164 1    
    82   40   41 2    
    83   40   42 1    
    84   42   43 1    
    85   42   44 1    
    86   42  165 1    
    87   43  166 1    
    88   43  167 1    
    89   43  168 1    
    90   44   45 am   BACKBONE|DICT|INTERRES
    91   44  169 1    
    92   45   46 2    
    93   45   47 1    
    94   47   48 1    
    95   47   49 1    
    96   47  170 1    
    97   48  171 1    
    98   48  172 1    
    99   48  173 1    
   100   49   50 am   BACKBONE|DICT|INTERRES
   101   49  174 1    
   102   50   51 2    
   103   50   52 1    
   104   52   53 1    
   105   52   54 1    
   106   52  175 1    
   107   53  176 1    
   108   53  177 1    
   109   53  178 1    
   110   54   55 am   BACKBONE|DICT|INTERRES
   111   54  179 1    
   112   55   56 2    
   113   55   57 1    
   114   57   58 1    
   115   57   59 1    
   116   57  180 1    
   117   58  181 1    
   118   58  182 1    
   119   58  183 1    
   120   59   60 am   BACKBONE|DICT|INTERRES
   121   59  184 1    
   122   60   61 2    
   123   60   62 1    
   124   62   63 1    
   125   62   64 1    
   126   62  185 1    
   127   63  186 1    
   128   63  187 1    
   129   63  188 1    
   130   64   65 am   BACKBONE|DICT|INTERRES
   131   64  189 1    
   132   65   66 2    
   133   67   68 2    
   134   67   69 am   BACKBONE|DICT|INTERRES
   135   69   70 1    
   136   69  190 1    
   137   70   71 1    
   138   70   72 1    
   139   70  191 1    
   140   71  192 1    
   141   71  193 1    
   142   71  194 1    
   143   72   73 2    
   144   72   74 am   BACKBONE|DICT|INTERRES
   145   74   75 1    
   146   74  195 1    
   147   75   76 1    
   148   75   77 1    
   149   75  196 1    
   150   76  197 1    
   151   76  198 1    
   152   76  199 1    
   153   77   78 2    
   154   77   79 am   BACKBONE|DICT|INTERRES
   155   79   80 1    
   156   79  200 1    
   157   80   81 1    
   158   80   82 1    
   159   80  201 1    
   160   81  202 1    
   161   81  203 1    
   162   81  204 1    
   163   82   83 2    
   164   82   84 am   BACKBONE|DICT|INTERRES
   165   84   85 1    
   166   84  205 1    
   167   85   86 1    
   168   85   87 1    
   169   85  206 1    
   170   86  207 1    
   171   86  208 1    
   172   86  209 1    
   173   87   88 2    
   174   87   89 am   BACKBONE|DICT|INTERRES
   175   89   90 1    
   176   89  210 1    
   177   90   91 1    
   178   90   92 1    
   179   90  211 1    
   180   91  212 1    
   181   91  213 1    
   182   91  214 1    
   183   92   93 2    
   184   92   94 am   BACKBONE|DICT|INTERRES
   185   94   95 1    
   186   94  215 1    
   187   95   96 1    
   188   95   97 1    
   189   95  216 1    
   190   96  217 1    
   191   96  218 1    
   192   96  219 1    
   193   97   98 2    
   194   97   99 am   BACKBONE|DICT|INTERRES
   195   99  100 1    
   196   99  220 1    
   197  100  101 1    
   198  100  102 1    
   199  100  221 1    
   200  101  222 1    
   201  101  223 1    
   202  101  224 1    
   203  102  103 2    
   204  102  104 am   BACKBONE|DICT|INTERRES
   205  104  105 1    
   206  104  225 1    
   207  105  106 1    
   208  105  107 1    
   209  105  226 1    
   210  106  227 1    
   211  106  228 1    
   212  106  229 1    
   213  107  108 2    
   214  107  109 am   BACKBONE|DICT|INTERRES
   215  109  110 1    
   216  109  230 1    
   217  110  111 1    
   218  110  112 1    
   219  110  231 1    
   220  111  232 1    
   221  111  233 1    
   222  111  234 1    
   223  112  113 2    
   224  112  114 am   BACKBONE|DICT|INTERRES
   225  114  115 1    
   226  114  235 1    
   227  115  116 1    
   228  115  117 1    
   229  115  236 1    
   230  116  237 1    
   231  116  238 1    
   232  116  239 1    
   233  117  118 2    
   234  117  119 am   BACKBONE|DICT|INTERRES
   235  119  120 1    
   236  119  240 1    
   237  120  121 1    
   238  120  124 1    
   239  120  241 1    
   240  121  122 am   BACKBONE|DICT|INTERRES
   241  121  123 2    
   242  122  242 1    
   243  122  243 1    
   244  124  125 1    
   245  124  244 1    
   246  124  245 1    
   247  125  126 1    
   248  126  246 1    
   249  126  247 1    
@<TRIPOS>SUBSTRUCTURE
     1 UNK         1 GROUP             0       ****    0 ROOT    
