@<TRIPOS>MOLECULE
3R540
247   249    1
SMALL
USER_CHARGES


@<TRIPOS>ATOM
      1 CA          0.5239  -11.3513  -44.1023 C.3       0 UNK        -0.1800 
      2 C          -0.0608  -12.3782  -45.0601 C.2       0 UNK         0.5000 
      3 O           0.6198  -13.3348  -45.4279 O.2       0 UNK        -0.5000 
      4 N          -1.3225  -12.1881  -45.4670 N.am      1 UNK        -0.5000 
      5 CA         -2.0407  -13.0389  -46.4220 C.3       1 UNK         0.1400 
      6 C6         -2.2541  -14.4793  -45.8714 C.3       23 UNK        -0.0398 
      7 S7         -3.7866  -15.2523  -46.4792 S.3       23 UNK        -0.2404 
      8 C8         -3.4648  -17.0086  -46.1271 C.3       23 UNK        -0.0205 
      9 C9         -2.8800  -17.7107  -47.3406 C.ar      23 UNK        -0.0193 
     10 C10        -3.7339  -18.2641  -48.2974 C.ar      23 UNK        -0.1150 
     11 C11        -3.2206  -18.8533  -49.4576 C.ar      23 UNK        -0.0193 
     12 C12        -1.8356  -18.9244  -49.6287 C.ar      23 UNK        -0.1150 
     13 C13        -0.9702  -18.3922  -48.6697 C.ar      23 UNK        -0.0193 
     14 C14        -1.4976  -17.7858  -47.5257 C.ar      23 UNK        -0.1150 
     15 C15         0.5307  -18.4132  -48.9092 C.3       23 UNK        -0.0205 
     16 S16         1.2487  -20.0714  -48.7051 S.3       23 UNK        -0.2404 
     17 C17         1.1405  -20.2824  -46.8986 C.3       23 UNK        -0.0398 
     18 CA          0.6559  -21.6872  -46.4740 C.3       11 UNK         0.1400 
     19 N           0.9568  -21.9347  -45.0645 N.am      11 UNK        -0.5000 
     20 C           0.7961  -23.0971  -44.4208 C.2       10 UNK         0.5000 
     21 O           0.3857  -24.1260  -44.9539 O.2       10 UNK        -0.5000 
     22 CA          1.1074  -23.0916  -42.9159 C.3       10 UNK         0.1400 
     23 CB          2.6156  -23.2421  -42.6664 C.3       10 UNK        -0.1800 
     24 N           0.6232  -21.8700  -42.2744 N.am      10 UNK        -0.5000 
     25 C          -0.6686  -21.6081  -42.0341 C.2       9 UNK         0.5000 
     26 O          -1.5846  -22.3921  -42.2849 O.2       9 UNK        -0.5000 
     27 CA         -0.9895  -20.2225  -41.4437 C.3       9 UNK         0.1400 
     28 CB         -0.7624  -20.2122  -39.9246 C.3       9 UNK        -0.1800 
     29 N          -0.2109  -19.1445  -42.0575 N.am      9 UNK        -0.5000 
     30 C          -0.3296  -18.7660  -43.3368 C.2       8 UNK         0.5000 
     31 O          -1.0923  -19.2961  -44.1421 O.2       8 UNK        -0.5000 
     32 CA          0.5756  -17.6190  -43.8121 C.3       8 UNK         0.1400 
     33 CB         -0.0186  -16.2691  -43.3874 C.3       8 UNK        -0.1800 
     34 N           1.9682  -17.6917  -43.3673 N.am      8 UNK        -0.5000 
     35 C           2.7921  -18.7460  -43.4526 C.2       7 UNK         0.5000 
     36 O           2.4379  -19.8686  -43.8102 O.2       7 UNK        -0.5000 
     37 CA          4.2679  -18.5076  -43.0962 C.3       7 UNK         0.1400 
     38 CB          5.0617  -18.1664  -44.3672 C.3       7 UNK        -0.1800 
     39 N           4.4327  -17.4205  -42.1311 N.am      7 UNK        -0.5000 
     40 C           4.5817  -17.5851  -40.8103 C.2       6 UNK         0.5000 
     41 O           4.6034  -18.6848  -40.2563 O.2       6 UNK        -0.5000 
     42 CA          4.7431  -16.3093  -39.9586 C.3       6 UNK         0.1400 
     43 CB          6.2317  -15.9874  -39.7557 C.3       6 UNK        -0.1800 
     44 N           4.0798  -15.1381  -40.5347 N.am      6 UNK        -0.5000 
     45 C           2.7525  -14.9627  -40.5773 C.2       5 UNK         0.5000 
     46 O           1.9427  -15.7542  -40.0940 O.2       5 UNK        -0.5000 
     47 CA          2.2381  -13.7040  -41.3055 C.3       5 UNK         0.1400 
     48 CB          2.0440  -12.5533  -40.3063 C.3       5 UNK        -0.1800 
     49 N           3.0704  -13.2330  -42.4215 N.am      5 UNK        -0.5000 
     50 C           3.4297  -13.9645  -43.4842 C.2       4 UNK         0.5000 
     51 O           3.2508  -15.1820  -43.5689 O.2       4 UNK        -0.5000 
     52 CA          4.1281  -13.2298  -44.6351 C.3       4 UNK         0.1400 
     53 CB          5.6435  -13.1581  -44.3932 C.3       4 UNK        -0.1800 
     54 N           3.8699  -13.9920  -45.8503 N.am      4 UNK        -0.5000 
     55 C           3.4183  -13.5056  -47.0094 C.2       3 UNK         0.5000 
     56 O           3.3102  -12.3023  -47.2532 O.2       3 UNK        -0.5000 
     57 CA          3.0049  -14.5300  -48.0810 C.3       3 UNK         0.1400 
     58 CB          3.2681  -16.0039  -47.6998 C.3       3 UNK        -0.1800 
     59 N           1.5894  -14.3397  -48.3939 N.am      3 UNK        -0.5000 
     60 C           1.0451  -14.4837  -49.6106 C.2       2 UNK         0.5000 
     61 O           1.6921  -14.8493  -50.5931 O.2       2 UNK        -0.5000 
     62 CA         -0.4609  -14.1721  -49.7777 C.3       2 UNK         0.1400 
     63 CB         -1.1727  -15.2000  -50.6737 C.3       2 UNK        -0.1800 
     64 N          -1.1731  -14.0843  -48.4997 N.am      2 UNK        -0.5000 
     65 C          -1.3729  -12.9495  -47.8179 C.2       1 UNK         0.5000 
     66 O          -1.0329  -11.8425  -48.2431 O.2       1 UNK        -0.5000 
     67 C          -0.8350  -21.9289  -46.7946 C.2       11 UNK         0.5000 
     68 O          -1.1389  -22.6468  -47.7465 O.2       11 UNK        -0.5000 
     69 N          -1.7329  -21.3954  -45.9536 N.am      12 UNK        -0.5000 
     70 CA         -3.1803  -21.5901  -46.0489 C.3       12 UNK         0.1400 
     71 CB         -3.8804  -20.7041  -45.0085 C.3       12 UNK        -0.1800 
     72 C          -3.6134  -23.0567  -45.8664 C.2       12 UNK         0.5000 
     73 O          -4.5633  -23.4897  -46.5181 O.2       12 UNK        -0.5000 
     74 N          -2.9129  -23.7918  -44.9911 N.am      13 UNK        -0.5000 
     75 CA         -3.1368  -25.2168  -44.7495 C.3       13 UNK         0.1400 
     76 CB         -2.4833  -25.6189  -43.4183 C.3       13 UNK        -0.1800 
     77 C          -2.6214  -26.0972  -45.9035 C.2       13 UNK         0.5000 
     78 O          -3.2697  -27.0867  -46.2460 O.2       13 UNK        -0.5000 
     79 N          -1.4677  -25.7278  -46.4762 N.am      14 UNK        -0.5000 
     80 CA         -0.8378  -26.4129  -47.6048 C.3       14 UNK         0.1400 
     81 CB          0.6211  -25.9468  -47.7283 C.3       14 UNK        -0.1800 
     82 C          -1.5853  -26.2017  -48.9343 C.2       14 UNK         0.5000 
     83 O          -1.6162  -27.1160  -49.7598 O.2       14 UNK        -0.5000 
     84 N          -2.1566  -25.0051  -49.1248 N.am      15 UNK        -0.5000 
     85 CA         -2.9274  -24.6165  -50.3040 C.3       15 UNK         0.1400 
     86 CB         -3.2701  -23.1198  -50.2103 C.3       15 UNK        -0.1800 
     87 C          -4.2134  -25.4448  -50.4893 C.2       15 UNK         0.5000 
     88 O          -4.8717  -25.8048  -49.5109 O.2       15 UNK        -0.5000 
     89 N          -4.5685  -25.6805  -51.7545 N.am      16 UNK        -0.5000 
     90 CA         -5.8222  -26.2792  -52.1952 C.3       16 UNK         0.1400 
     91 CB         -5.6049  -27.7651  -52.5203 C.3       16 UNK        -0.1800 
     92 C          -6.2725  -25.4972  -53.4341 C.2       16 UNK         0.5000 
     93 O          -5.4205  -25.0935  -54.2309 O.2       16 UNK        -0.5000 
     94 N          -7.5856  -25.2519  -53.5536 N.am      17 UNK        -0.5000 
     95 CA         -8.2313  -24.4426  -54.6017 C.3       17 UNK         0.1400 
     96 CB         -8.1860  -25.1820  -55.9553 C.3       17 UNK        -0.1800 
     97 C          -7.6700  -23.0024  -54.6886 C.2       17 UNK         0.5000 
     98 O          -7.5553  -22.4432  -55.7802 O.2       17 UNK        -0.5000 
     99 N          -7.2782  -22.4586  -53.5247 N.am      18 UNK        -0.5000 
    100 CA        -6.5894  -21.1796  -53.3025 C.3       18 UNK         0.1400 
    101 CB        -7.4537  -19.9994  -53.7865 C.3       18 UNK        -0.1800 
    102 C         -5.1518  -21.1131  -53.8691 C.2       18 UNK         0.5000 
    103 O         -4.5480  -20.0372  -53.8528 O.2       18 UNK        -0.5000 
    104 N         -4.6267  -22.2455  -54.3689 N.am      19 UNK        -0.5000 
    105 CA        -3.2828  -22.4788  -54.9206 C.3       19 UNK         0.1400 
    106 CB        -2.2417  -22.4293  -53.7841 C.3       19 UNK        -0.1800 
    107 C         -2.8769  -21.5693  -56.1034 C.2       19 UNK         0.5000 
    108 O         -1.6995  -21.5387  -56.4641 O.2       19 UNK        -0.5000 
    109 N         -3.8406  -20.8132  -56.6526 N.am      20 UNK        -0.5000 
    110 CA        -3.6655  -19.6513  -57.5340 C.3       20 UNK         0.1400 
    111 CB        -3.1134  -20.0778  -58.9102 C.3       20 UNK        -0.1800 
    112 C         -2.8401  -18.5142  -56.8801 C.2       20 UNK         0.5000 
    113 O         -2.2624  -17.6907  -57.5920 O.2       20 UNK        -0.5000 
    114 N         -2.7958  -18.4942  -55.5402 N.am      21 UNK        -0.5000 
    115 CA        -1.9989  -17.5797  -54.7268 C.3       21 UNK         0.1400 
    116 CB        -1.1536  -18.3974  -53.7360 C.3       21 UNK        -0.1800 
    117 C         -2.8911  -16.5895  -53.9677 C.2       21 UNK         0.5000 
    118 O         -2.5405  -15.4116  -53.8894 O.2       21 UNK        -0.5000 
    119 N         -4.0218  -17.0729  -53.4355 N.am      22 UNK        -0.5000 
    120 CA        -4.9760  -16.2801  -52.6419 C.3       22 UNK         0.1400 
    121 C         -6.3849  -16.1511  -53.2897 C.2       22 UNK         0.5000 
    122 N         -6.5763  -16.5630  -54.5375 N.am      22 UNK        -0.7600 
    123 O         -7.3123  -15.6389  -52.6687 O.2       22 UNK        -0.5000 
    124 C124       -4.9991  -16.7291  -51.1571 C.3       23 UNK        -0.0398 
    125 S125       -5.6466  -18.4136  -50.8515 S.3       23 UNK        -0.2404 
    126 C126       -4.1364  -19.3993  -50.5490 C.3       23 UNK        -0.0205 
    127 H127       -0.1150  -10.4726  -44.0128 H         1 UNK         0.0600 
    128 H128        1.5022  -11.0241  -44.4536 H         1 UNK         0.0600 
    129 H129        0.6403  -11.7900  -43.1125 H         1 UNK         0.0600 
    130 H130       -1.8225  -11.3663  -45.1582 H         1 UNK         0.3000 
    131 H131       -3.0198  -12.5703  -46.5326 H         1 UNK         0.0600 
    132 H132       -1.3903  -15.1194  -46.0538 H         1 UNK         0.0800 
    133 H133       -2.3562  -14.4389  -44.7861 H         1 UNK         0.0800 
    134 H134       -2.8070  -17.1170  -45.2634 H         1 UNK         0.0800 
    135 H135       -4.4079  -17.4813  -45.8494 H         1 UNK         0.0800 
    136 H136       -4.8029  -18.2025  -48.1523 H         1 UNK         0.1150 
    137 H137       -1.4246  -19.3778  -50.5197 H         1 UNK         0.1150 
    138 H138       -0.8350  -17.3567  -46.7892 H         1 UNK         0.1150 
    139 H139        0.7380  -18.0598  -49.9205 H         1 UNK         0.0800 
    140 H140        1.0308  -17.7184  -48.2358 H         1 UNK         0.0800 
    141 H141        0.5084  -19.5123  -46.4578 H         1 UNK         0.0800 
    142 H142        2.1428  -20.1030  -46.5073 H         1 UNK         0.0800 
    143 H143        1.2296  -22.4234  -47.0412 H         1 UNK         0.0600 
    144 H144        1.3440  -21.1513  -44.5432 H         1 UNK         0.3000 
    145 H145        0.6009  -23.9473  -42.4642 H         1 UNK         0.0600 
    146 H146        2.8350  -23.2913  -41.5998 H         1 UNK         0.0600 
    147 H147        2.9947  -24.1593  -43.1189 H         1 UNK         0.0600 
    148 H148        3.1822  -22.4107  -43.0871 H         1 UNK         0.0600 
    149 H149        1.3052  -21.1439  -42.1062 H         1 UNK         0.3000 
    150 H150       -2.0465  -20.0216  -41.6312 H         1 UNK         0.0600 
    151 H151       -1.0706  -19.2627  -39.4866 H         1 UNK         0.0600 
    152 H152       -1.3428  -20.9972  -39.4380 H         1 UNK         0.0600 
    153 H153        0.2862  -20.3739  -39.6717 H         1 UNK         0.0600 
    154 H154        0.4520  -18.6595  -41.4701 H         1 UNK         0.3000 
    155 H155        0.5942  -17.6497  -44.9021 H         1 UNK         0.0600 
    156 H156        0.0282  -16.1328  -42.3066 H         1 UNK         0.0600 
    157 H157       -1.0649  -16.1891  -43.6816 H         1 UNK         0.0600 
    158 H158        0.5151  -15.4416  -43.8523 H         1 UNK         0.0600 
    159 H159        2.3917  -16.7976  -43.1391 H         1 UNK         0.3000 
    160 H160        4.6661  -19.4390  -42.6882 H         1 UNK         0.0600 
    161 H161        4.7075  -17.2448  -44.8305 H         1 UNK         0.0600 
    162 H162        4.9734  -18.9616  -45.1088 H         1 UNK         0.0600 
    163 H163        6.1223  -18.0439  -44.1471 H         1 UNK         0.0600 
    164 H164        4.3571  -16.4798  -42.5007 H         1 UNK         0.3000 
    165 H165        4.3011  -16.5077  -38.9798 H         1 UNK         0.0600 
    166 H166        6.3638  -15.1310  -39.0942 H         1 UNK         0.0600 
    167 H167        6.7554  -16.8302  -39.3024 H         1 UNK         0.0600 
    168 H168        6.7276  -15.7626  -40.7008 H         1 UNK         0.0600 
    169 H169        4.6708  -14.4374  -40.9571 H         1 UNK         0.3000 
    170 H170        1.2612  -13.9561  -41.7225 H         1 UNK         0.0600 
    171 H171        1.4045  -12.8585  -39.4768 H         1 UNK         0.0600 
    172 H172        2.9943  -12.2243  -39.8841 H         1 UNK         0.0600 
    173 H173        1.5701  -11.6925  -40.7779 H         1 UNK         0.0600 
    174 H174        3.2973  -12.2492  -42.4152 H         1 UNK         0.3000 
    175 H175        3.7149  -12.2223  -44.7138 H         1 UNK         0.0600 
    176 H176        6.0814  -14.1511  -44.2808 H         1 UNK         0.0600 
    177 H177        6.1492  -12.6623  -45.2219 H         1 UNK         0.0600 
    178 H178        5.8705  -12.5927  -43.4886 H         1 UNK         0.0600 
    179 H179        3.8361  -14.9916  -45.7017 H         1 UNK         0.3000 
    180 H180        3.6087  -14.2953  -48.9600 H         1 UNK         0.0600 
    181 H181        2.6413  -16.3290  -46.8680 H         1 UNK         0.0600 
    182 H182        4.3105  -16.1643  -47.4214 H         1 UNK         0.0600 
    183 H183        3.0711  -16.6607  -48.5466 H         1 UNK         0.0600 
    184 H184        1.0234  -13.9809  -47.6339 H         1 UNK         0.3000 
    185 H185       -0.5156  -13.2120  -50.2946 H         1 UNK         0.0600 
    186 H186       -0.7023  -15.2652  -51.6554 H         1 UNK         0.0600 
    187 H187       -1.1580  -16.1957  -50.2381 H         1 UNK         0.0600 
    188 H188       -2.2136  -14.9220  -50.8381 H         1 UNK         0.0600 
    189 H189       -1.4988  -14.9571  -48.1095 H         1 UNK         0.3000 
    190 H190       -1.4126  -20.7789  -45.2101 H         1 UNK         0.3000 
    191 H191       -3.4932  -21.2672  -47.0443 H         1 UNK         0.0600 
    192 H192       -3.6280  -19.6558  -45.1529 H         1 UNK         0.0600 
    193 H193       -4.9648  -20.7922  -45.0833 H         1 UNK         0.0600 
    194 H194       -3.5940  -20.9763  -43.9917 H         1 UNK         0.0600 
    195 H195       -2.1604  -23.3527  -44.4776 H         1 UNK         0.3000 
    196 H196       -4.2122  -25.3843  -44.6583 H         1 UNK         0.0600 
    197 H197       -2.6664  -26.6709  -43.1965 H         1 UNK         0.0600 
    198 H198       -2.8866  -25.0362  -42.5899 H         1 UNK         0.0600 
    199 H199       -1.4035  -25.4707  -43.4354 H         1 UNK         0.0600 
    200 H200       -0.9581  -24.9418  -46.0830 H         1 UNK         0.3000 
    201 H201       -0.8339  -27.4842  -47.3930 H         1 UNK         0.0600 
    202 H202        1.1828  -26.1654  -46.8199 H         1 UNK         0.0600 
    203 H203        0.6853  -24.8733  -47.9104 H         1 UNK         0.0600 
    204 H204        1.1255  -26.4520  -48.5528 H         1 UNK         0.0600 
    205 H205       -2.0244  -24.2883  -48.4182 H         1 UNK         0.3000 
    206 H206       -2.2882  -24.7716  -51.1753 H         1 UNK         0.0600 
    207 H207       -2.3688  -22.5062  -50.2170 H         1 UNK         0.0600 
    208 H208       -3.8855  -22.7997  -51.0521 H         1 UNK         0.0600 
    209 H209       -3.8216  -22.8929  -49.2971 H         1 UNK         0.0600 
    210 H210       -4.0065  -25.3143  -52.5122 H         1 UNK         0.3000 
    211 H211       -6.5833  -26.1827  -51.4179 H         1 UNK         0.0600 
    212 H212       -4.8607  -27.9007  -53.3062 H         1 UNK         0.0600 
    213 H213       -6.5314  -28.2302  -52.8590 H         1 UNK         0.0600 
    214 H214       -5.2664  -28.3137  -51.6411 H         1 UNK         0.0600 
    215 H215       -8.2087  -25.6195  -52.8473 H         1 UNK         0.3000 
    216 H216       -9.2791  -24.3418  -54.3152 H         1 UNK         0.0600 
    217 H217       -8.7726  -24.6561  -56.7094 H         1 UNK         0.0600 
    218 H218       -8.5986  -26.1872  -55.8690 H         1 UNK         0.0600 
    219 H219       -7.1677  -25.2694  -56.3354 H         1 UNK         0.0600 
    220 H220       -7.4182  -23.0156  -52.6935 H         1 UNK         0.3000 
    221 H221       -6.4839  -21.0856  -52.2211 H         1 UNK         0.0600 
    222 H222       -7.5094  -19.9496  -54.8740 H         1 UNK         0.0600 
    223 H223       -8.4697  -20.0659  -53.3980 H         1 UNK         0.0600 
    224 H224       -7.0411  -19.0539  -53.4401 H         1 UNK         0.0600 
    225 H225       -5.2111  -23.0748  -54.3594 H         1 UNK         0.3000 
    226 H226       -3.2910  -23.4942  -55.3189 H         1 UNK         0.0600 
    227 H227       -2.4759  -23.1598  -53.0127 H         1 UNK         0.0600 
    228 H228       -1.2406  -22.6638  -54.1473 H         1 UNK         0.0600 
    229 H229       -2.1985  -21.4460  -53.3156 H         1 UNK         0.0600 
    230 H230       -4.7734  -20.9374  -56.2840 H         1 UNK         0.3000 
    231 H231       -4.6638  -19.2418  -57.6934 H         1 UNK         0.0600 
    232 H232       -2.0795  -20.4177  -58.8464 H         1 UNK         0.0600 
    233 H233       -3.1391  -19.2469  -59.6160 H         1 UNK         0.0600 
    234 H234       -3.7065  -20.8848  -59.3400 H         1 UNK         0.0600 
    235 H235       -3.3390  -19.1855  -55.0307 H         1 UNK         0.3000 
    236 H236       -1.3179  -17.0026  -55.3557 H         1 UNK         0.0600 
    237 H237       -0.4784  -19.0734  -54.2609 H         1 UNK         0.0600 
    238 H238       -0.5429  -17.7454  -53.1098 H         1 UNK         0.0600 
    239 H239       -1.7770  -18.9984  -53.0737 H         1 UNK         0.0600 
    240 H240       -4.2473  -18.0569  -53.5390 H         1 UNK         0.3000 
    241 H241       -4.6325  -15.2447  -52.6207 H         1 UNK         0.0600 
    242 H242       -5.8150  -16.9521  -55.0688 H         1 UNK         0.3800 
    243 H243       -7.4863  -16.4633  -54.9585 H         1 UNK         0.3800 
    244 H244       -3.9939  -16.6427  -50.7462 H         1 UNK         0.0800 
    245 H245       -5.6026  -16.0352  -50.5702 H         1 UNK         0.0800 
    246 H246       -3.5883  -19.4789  -51.4874 H         1 UNK         0.0800 
    247 H247       -4.4334  -20.4118  -50.2768 H         1 UNK         0.0800 
@<TRIPOS>BOND
     1    1    2 1    
     2    1  127 1    
     3    1  128 1    
     4    1  129 1    
     5    2    3 2    
     6    2    4 am   BACKBONE|DICT|INTERRES
     7    4    5 1    
     8    4  130 1    
     9    5    6 1    
    10    5   65 1    
    11    5  131 1    
    12    6    7 1    
    13    6  132 1    
    14    6  133 1    
    15    7    8 1    
    16    8    9 1    
    17    8  134 1    
    18    8  135 1    
    19    9   10 ar   
    20    9   14 ar   
    21   10   11 ar   
    22   10  136 1    
    23   11   12 ar   
    24   11  126 1    
    25   12   13 ar   
    26   12  137 1    
    27   13   14 ar   
    28   13   15 1    
    29   14  138 1    
    30   15   16 1    
    31   15  139 1    
    32   15  140 1    
    33   16   17 1    
    34   17   18 1    
    35   17  141 1    
    36   17  142 1    
    37   18   19 1    
    38   18   67 1    
    39   18  143 1    
    40   19   20 am   BACKBONE|DICT|INTERRES
    41   19  144 1    
    42   20   21 2    
    43   20   22 1    
    44   22   23 1    
    45   22   24 1    
    46   22  145 1    
    47   23  146 1    
    48   23  147 1    
    49   23  148 1    
    50   24   25 am   BACKBONE|DICT|INTERRES
    51   24  149 1    
    52   25   26 2    
    53   25   27 1    
    54   27   28 1    
    55   27   29 1    
    56   27  150 1    
    57   28  151 1    
    58   28  152 1    
    59   28  153 1    
    60   29   30 am   BACKBONE|DICT|INTERRES
    61   29  154 1    
    62   30   31 2    
    63   30   32 1    
    64   32   33 1    
    65   32   34 1    
    66   32  155 1    
    67   33  156 1    
    68   33  157 1    
    69   33  158 1    
    70   34   35 am   BACKBONE|DICT|INTERRES
    71   34  159 1    
    72   35   36 2    
    73   35   37 1    
    74   37   38 1    
    75   37   39 1    
    76   37  160 1    
    77   38  161 1    
    78   38  162 1    
    79   38  163 1    
    80   39   40 am   BACKBONE|DICT|INTERRES
    81   39  164 1    
    82   40   41 2    
    83   40   42 1    
    84   42   43 1    
    85   42   44 1    
    86   42  165 1    
    87   43  166 1    
    88   43  167 1    
    89   43  168 1    
    90   44   45 am   BACKBONE|DICT|INTERRES
    91   44  169 1    
    92   45   46 2    
    93   45   47 1    
    94   47   48 1    
    95   47   49 1    
    96   47  170 1    
    97   48  171 1    
    98   48  172 1    
    99   48  173 1    
   100   49   50 am   BACKBONE|DICT|INTERRES
   101   49  174 1    
   102   50   51 2    
   103   50   52 1    
   104   52   53 1    
   105   52   54 1    
   106   52  175 1    
   107   53  176 1    
   108   53  177 1    
   109   53  178 1    
   110   54   55 am   BACKBONE|DICT|INTERRES
   111   54  179 1    
   112   55   56 2    
   113   55   57 1    
   114   57   58 1    
   115   57   59 1    
   116   57  180 1    
   117   58  181 1    
   118   58  182 1    
   119   58  183 1    
   120   59   60 am   BACKBONE|DICT|INTERRES
   121   59  184 1    
   122   60   61 2    
   123   60   62 1    
   124   62   63 1    
   125   62   64 1    
   126   62  185 1    
   127   63  186 1    
   128   63  187 1    
   129   63  188 1    
   130   64   65 am   BACKBONE|DICT|INTERRES
   131   64  189 1    
   132   65   66 2    
   133   67   68 2    
   134   67   69 am   BACKBONE|DICT|INTERRES
   135   69   70 1    
   136   69  190 1    
   137   70   71 1    
   138   70   72 1    
   139   70  191 1    
   140   71  192 1    
   141   71  193 1    
   142   71  194 1    
   143   72   73 2    
   144   72   74 am   BACKBONE|DICT|INTERRES
   145   74   75 1    
   146   74  195 1    
   147   75   76 1    
   148   75   77 1    
   149   75  196 1    
   150   76  197 1    
   151   76  198 1    
   152   76  199 1    
   153   77   78 2    
   154   77   79 am   BACKBONE|DICT|INTERRES
   155   79   80 1    
   156   79  200 1    
   157   80   81 1    
   158   80   82 1    
   159   80  201 1    
   160   81  202 1    
   161   81  203 1    
   162   81  204 1    
   163   82   83 2    
   164   82   84 am   BACKBONE|DICT|INTERRES
   165   84   85 1    
   166   84  205 1    
   167   85   86 1    
   168   85   87 1    
   169   85  206 1    
   170   86  207 1    
   171   86  208 1    
   172   86  209 1    
   173   87   88 2    
   174   87   89 am   BACKBONE|DICT|INTERRES
   175   89   90 1    
   176   89  210 1    
   177   90   91 1    
   178   90   92 1    
   179   90  211 1    
   180   91  212 1    
   181   91  213 1    
   182   91  214 1    
   183   92   93 2    
   184   92   94 am   BACKBONE|DICT|INTERRES
   185   94   95 1    
   186   94  215 1    
   187   95   96 1    
   188   95   97 1    
   189   95  216 1    
   190   96  217 1    
   191   96  218 1    
   192   96  219 1    
   193   97   98 2    
   194   97   99 am   BACKBONE|DICT|INTERRES
   195   99  100 1    
   196   99  220 1    
   197  100  101 1    
   198  100  102 1    
   199  100  221 1    
   200  101  222 1    
   201  101  223 1    
   202  101  224 1    
   203  102  103 2    
   204  102  104 am   BACKBONE|DICT|INTERRES
   205  104  105 1    
   206  104  225 1    
   207  105  106 1    
   208  105  107 1    
   209  105  226 1    
   210  106  227 1    
   211  106  228 1    
   212  106  229 1    
   213  107  108 2    
   214  107  109 am   BACKBONE|DICT|INTERRES
   215  109  110 1    
   216  109  230 1    
   217  110  111 1    
   218  110  112 1    
   219  110  231 1    
   220  111  232 1    
   221  111  233 1    
   222  111  234 1    
   223  112  113 2    
   224  112  114 am   BACKBONE|DICT|INTERRES
   225  114  115 1    
   226  114  235 1    
   227  115  116 1    
   228  115  117 1    
   229  115  236 1    
   230  116  237 1    
   231  116  238 1    
   232  116  239 1    
   233  117  118 2    
   234  117  119 am   BACKBONE|DICT|INTERRES
   235  119  120 1    
   236  119  240 1    
   237  120  121 1    
   238  120  124 1    
   239  120  241 1    
   240  121  122 am   BACKBONE|DICT|INTERRES
   241  121  123 2    
   242  122  242 1    
   243  122  243 1    
   244  124  125 1    
   245  124  244 1    
   246  124  245 1    
   247  125  126 1    
   248  126  246 1    
   249  126  247 1    
@<TRIPOS>SUBSTRUCTURE
     1 UNK         1 GROUP             0       ****    0 ROOT    
