@<TRIPOS>MOLECULE
3R540
247   249    1
SMALL
USER_CHARGES


@<TRIPOS>ATOM
      1 CA          2.1368  -13.1198  -50.8472 C.3       0 UNK        -0.1800 
      2 C           2.7966  -14.0121  -49.7960 C.2       0 UNK         0.5000 
      3 O           3.7977  -14.6528  -50.1096 O.2       0 UNK        -0.5000 
      4 N           2.3048  -14.1030  -48.5502 N.am      1 UNK        -0.5000 
      5 CA          1.1384  -13.4363  -47.9459 C.3       1 UNK         0.1400 
      6 C6         -0.2254  -13.7796  -48.6082 C.3       23 UNK        -0.0398 
      7 S7         -0.5843  -15.5617  -48.5111 S.3       23 UNK        -0.2404 
      8 C8         -0.8276  -16.0223  -50.2498 C.3       23 UNK        -0.0205 
      9 C9         -1.2115  -17.4891  -50.3299 C.ar      23 UNK        -0.0193 
     10 C10        -2.5409  -17.8750  -50.1377 C.ar      23 UNK        -0.1150 
     11 C11        -2.8964  -19.2259  -50.1470 C.ar      23 UNK        -0.0193 
     12 C12        -1.9056  -20.1923  -50.3379 C.ar      23 UNK        -0.1150 
     13 C13        -0.5735  -19.8203  -50.5403 C.ar      23 UNK        -0.0193 
     14 C14        -0.2344  -18.4639  -50.5481 C.ar      23 UNK        -0.1150 
     15 C15         0.4880  -20.8925  -50.7519 C.3       23 UNK        -0.0205 
     16 S16         1.9183  -20.7598  -49.6238 S.3       23 UNK        -0.2404 
     17 C17         1.1596  -20.5814  -47.9717 C.3       23 UNK        -0.0398 
     18 CA          0.8587  -21.9313  -47.2747 C.3       11 UNK         0.1400 
     19 N           0.9507  -21.8303  -45.8158 N.am      11 UNK        -0.5000 
     20 C           0.8706  -22.8623  -44.9638 C.2       10 UNK         0.5000 
     21 O           0.7571  -24.0360  -45.3172 O.2       10 UNK        -0.5000 
     22 CA          0.8630  -22.5218  -43.4622 C.3       10 UNK         0.1400 
     23 CB          2.2847  -22.2464  -42.9507 C.3       10 UNK        -0.1800 
     24 N          -0.0067  -21.3866  -43.1493 N.am      10 UNK        -0.5000 
     25 C          -1.3361  -21.3859  -43.3270 C.2       9 UNK         0.5000 
     26 O          -1.9719  -22.3604  -43.7292 O.2       9 UNK        -0.5000 
     27 CA         -2.0766  -20.0652  -43.0505 C.3       9 UNK         0.1400 
     28 CB         -2.3176  -19.8796  -41.5452 C.3       9 UNK        -0.1800 
     29 N          -1.3763  -18.8969  -43.5845 N.am      9 UNK        -0.5000 
     30 C          -1.1236  -18.6871  -44.8850 C.2       8 UNK         0.5000 
     31 O          -1.4782  -19.4475  -45.7846 O.2       8 UNK        -0.5000 
     32 CA         -0.2796  -17.4486  -45.2320 C.3       8 UNK         0.1400 
     33 CB         -1.1226  -16.1683  -45.1288 C.3       8 UNK        -0.1800 
     34 N           0.9057  -17.3266  -44.3834 N.am      8 UNK        -0.5000 
     35 C           1.8801  -18.2428  -44.2894 C.2       7 UNK         0.5000 
     36 O           1.9157  -19.2785  -44.9508 O.2       7 UNK        -0.5000 
     37 CA          2.9701  -17.9870  -43.2374 C.3       7 UNK         0.1400 
     38 CB          4.0379  -17.0244  -43.7762 C.3       7 UNK        -0.1800 
     39 N           2.4052  -17.4648  -41.9938 N.am      7 UNK        -0.5000 
     40 C           1.6421  -18.1815  -41.1558 C.2       6 UNK         0.5000 
     41 O           1.3700  -19.3707  -41.3243 O.2       6 UNK        -0.5000 
     42 CA          1.0513  -17.4271  -39.9508 C.3       6 UNK         0.1400 
     43 CB          2.0819  -17.3203  -38.8171 C.3       6 UNK        -0.1800 
     44 N           0.5786  -16.0879  -40.3072 N.am      6 UNK        -0.5000 
     45 C          -0.4672  -15.8488  -41.1108 C.2       5 UNK         0.5000 
     46 O          -1.1625  -16.7357  -41.6052 O.2       5 UNK        -0.5000 
     47 CA         -0.7621  -14.3752  -41.4515 C.3       5 UNK         0.1400 
     48 CB         -1.6814  -13.7507  -40.3918 C.3       5 UNK        -0.1800 
     49 N           0.4363  -13.5439  -41.6025 N.am      5 UNK        -0.5000 
     50 C           1.4128  -13.7538  -42.4942 C.2       4 UNK         0.5000 
     51 O           1.4287  -14.7051  -43.2770 O.2       4 UNK        -0.5000 
     52 CA          2.5364  -12.7043  -42.5352 C.3       4 UNK         0.1400 
     53 CB          3.8543  -13.2805  -43.0806 C.3       4 UNK        -0.1800 
     54 N           2.1345  -11.5838  -43.3785 N.am      4 UNK        -0.5000 
     55 C           1.3701  -10.5533  -42.9976 C.2       3 UNK         0.5000 
     56 O           0.9342  -10.4295  -41.8516 O.2       3 UNK        -0.5000 
     57 CA          0.9994   -9.5000  -44.0667 C.3       3 UNK         0.1400 
     58 CB          1.3371   -8.0685  -43.6016 C.3       3 UNK        -0.1800 
     59 N           1.5360   -9.7637  -45.4117 N.am      3 UNK        -0.5000 
     60 C           2.8078   -9.7251  -45.8355 C.2       2 UNK         0.5000 
     61 O           3.7650   -9.4521  -45.1103 O.2       2 UNK        -0.5000 
     62 CA          3.0364  -10.1233  -47.3106 C.3       2 UNK         0.1400 
     63 CB          4.5039   -9.9687  -47.7494 C.3       2 UNK        -0.1800 
     64 N           2.6156  -11.5037  -47.5684 N.am      2 UNK        -0.5000 
     65 C           1.3515  -11.9212  -47.7267 C.2       1 UNK         0.5000 
     66 O           0.3846  -11.1585  -47.6821 O.2       1 UNK        -0.5000 
     67 C          -0.5052  -22.4976  -47.7144 C.2       11 UNK         0.5000 
     68 O          -0.5441  -23.4311  -48.5155 O.2       11 UNK        -0.5000 
     69 N          -1.5941  -21.9565  -47.1483 N.am      12 UNK        -0.5000 
     70 CA         -2.9663  -22.3975  -47.3908 C.3       12 UNK         0.1400 
     71 CB         -3.9500  -21.4720  -46.6597 C.3       12 UNK        -0.1800 
     72 C          -3.2036  -23.8635  -47.0004 C.2       12 UNK         0.5000 
     73 O          -3.8263  -24.5922  -47.7715 O.2       12 UNK        -0.5000 
     74 N          -2.6728  -24.2766  -45.8417 N.am      13 UNK        -0.5000 
     75 CA         -2.7110  -25.6569  -45.3623 C.3       13 UNK         0.1400 
     76 CB         -2.2022  -25.7144  -43.9139 C.3       13 UNK        -0.1800 
     77 C          -1.9162  -26.6193  -46.2636 C.2       13 UNK         0.5000 
     78 O          -2.4225  -27.6918  -46.5947 O.2       13 UNK        -0.5000 
     79 N          -0.7032  -26.2118  -46.6638 N.am      14 UNK        -0.5000 
     80 CA          0.1870  -26.9810  -47.5352 C.3       14 UNK         0.1400 
     81 CB          1.5722  -26.3171  -47.5680 C.3       14 UNK        -0.1800 
     82 C          -0.3646  -27.1553  -48.9619 C.2       14 UNK         0.5000 
     83 O          -0.2943  -28.2557  -49.5106 O.2       14 UNK        -0.5000 
     84 N          -0.9125  -26.0739  -49.5303 N.am      15 UNK        -0.5000 
     85 CA         -1.4840  -26.0442  -50.8773 C.3       15 UNK         0.1400 
     86 CB         -1.4084  -24.6068  -51.4141 C.3       15 UNK        -0.1800 
     87 C          -2.9356  -26.5536  -50.9448 C.2       15 UNK         0.5000 
     88 O          -3.4757  -26.6501  -52.0462 O.2       15 UNK        -0.5000 
     89 N          -3.5647  -26.8095  -49.7874 N.am      16 UNK        -0.5000 
     90 CA         -4.9786  -27.1714  -49.6083 C.3       16 UNK         0.1400 
     91 CB         -5.2447  -28.5942  -50.1408 C.3       16 UNK        -0.1800 
     92 C          -5.9418  -26.1153  -50.1997 C.2       16 UNK         0.5000 
     93 O          -6.9826  -26.4622  -50.7607 O.2       16 UNK        -0.5000 
     94 N          -5.5374  -24.8411  -50.0876 N.am      17 UNK        -0.5000 
     95 CA         -6.1640  -23.6330  -50.6345 C.3       17 UNK         0.1400 
     96 CB         -7.4964  -23.3435  -49.9153 C.3       17 UNK        -0.1800 
     97 C          -6.3029  -23.6146  -52.1767 C.2       17 UNK         0.5000 
     98 O          -7.1145  -22.8514  -52.7019 O.2       17 UNK        -0.5000 
     99 N          -5.5037  -24.4262  -52.8851 N.am      18 UNK        -0.5000 
    100 CA        -5.5205  -24.5548  -54.3464 C.3       18 UNK         0.1400 
    101 CB        -5.4571  -26.0482  -54.7116 C.3       18 UNK        -0.1800 
    102 C         -4.3842  -23.7607  -55.0251 C.2       18 UNK         0.5000 
    103 O         -4.1122  -23.9817  -56.2064 O.2       18 UNK        -0.5000 
    104 N         -3.7298  -22.8574  -54.2807 N.am      19 UNK        -0.5000 
    105 CA        -2.5801  -22.0679  -54.7341 C.3       19 UNK         0.1400 
    106 CB        -1.9051  -21.4324  -53.5097 C.3       19 UNK        -0.1800 
    107 C         -2.9205  -20.9605  -55.7499 C.2       19 UNK         0.5000 
    108 O         -2.0028  -20.4177  -56.3643 O.2       19 UNK        -0.5000 
    109 N         -4.2051  -20.5856  -55.8513 N.am      20 UNK        -0.5000 
    110 CA        -4.7836  -19.4782  -56.6338 C.3       20 UNK         0.1400 
    111 CB        -4.4451  -19.5908  -58.1325 C.3       20 UNK        -0.1800 
    112 C         -4.4535  -18.0731  -56.0834 C.2       20 UNK         0.5000 
    113 O         -5.2552  -17.1543  -56.2562 O.2       20 UNK        -0.5000 
    114 N         -3.3294  -17.9412  -55.3655 N.am      21 UNK        -0.5000 
    115 CA        -2.9134  -16.7664  -54.5919 C.3       21 UNK         0.1400 
    116 CB        -1.4899  -17.0122  -54.0659 C.3       21 UNK        -0.1800 
    117 C         -3.8608  -16.4254  -53.4214 C.2       21 UNK         0.5000 
    118 O         -3.7949  -15.3175  -52.8884 O.2       21 UNK        -0.5000 
    119 N         -4.7197  -17.3824  -53.0511 N.am      22 UNK        -0.5000 
    120 CA        -5.7523  -17.2823  -52.0122 C.3       22 UNK         0.1400 
    121 C         -6.8920  -16.2642  -52.3133 C.2       22 UNK         0.5000 
    122 N         -7.0760  -15.8169  -53.5504 N.am      22 UNK        -0.7600 
    123 O         -7.6234  -15.8769  -51.4066 O.2       22 UNK        -0.5000 
    124 C124       -6.3590  -18.6709  -51.6726 C.3       23 UNK        -0.0398 
    125 S125       -5.1460  -20.0297  -51.5255 S.3       23 UNK        -0.2404 
    126 C126       -4.3425  -19.6489  -49.9410 C.3       23 UNK        -0.0205 
    127 H127        2.8784  -12.7973  -51.5786 H         1 UNK         0.0600 
    128 H128        1.6918  -12.2202  -50.4281 H         1 UNK         0.0600 
    129 H129        1.3661  -13.6757  -51.3807 H         1 UNK         0.0600 
    130 H130        2.7851  -14.7272  -47.9175 H         1 UNK         0.3000 
    131 H131        1.0926  -13.8363  -46.9312 H         1 UNK         0.0600 
    132 H132       -1.0414  -13.2747  -48.0881 H         1 UNK         0.0800 
    133 H133       -0.2764  -13.4356  -49.6403 H         1 UNK         0.0800 
    134 H134        0.0863  -15.8321  -50.8147 H         1 UNK         0.0800 
    135 H135       -1.6113  -15.4058  -50.6933 H         1 UNK         0.0800 
    136 H136       -3.2920  -17.1193  -49.9623 H         1 UNK         0.1150 
    137 H137       -2.1762  -21.2382  -50.3417 H         1 UNK         0.1150 
    138 H138        0.7956  -18.1698  -50.6927 H         1 UNK         0.1150 
    139 H139        0.0559  -21.8879  -50.6483 H         1 UNK         0.0800 
    140 H140        0.8481  -20.8267  -51.7792 H         1 UNK         0.0800 
    141 H141        0.2859  -19.9283  -48.0014 H         1 UNK         0.0800 
    142 H142        1.8986  -20.0312  -47.3905 H         1 UNK         0.0800 
    143 H143        1.6229  -22.6513  -47.5754 H         1 UNK         0.0600 
    144 H144        1.0856  -20.8963  -45.4359 H         1 UNK         0.3000 
    145 H145        0.4762  -23.3925  -42.9285 H         1 UNK         0.0600 
    146 H146        2.2891  -22.0734  -41.8745 H         1 UNK         0.0600 
    147 H147        2.9407  -23.0953  -43.1470 H         1 UNK         0.0600 
    148 H148        2.7259  -21.3729  -43.4305 H         1 UNK         0.0600 
    149 H149        0.4405  -20.5557  -42.7776 H         1 UNK         0.3000 
    150 H150       -3.0484  -20.1217  -43.5448 H         1 UNK         0.0600 
    151 H151       -2.8499  -20.7342  -41.1259 H         1 UNK         0.0600 
    152 H152       -2.9208  -18.9928  -41.3499 H         1 UNK         0.0600 
    153 H153       -1.3810  -19.7729  -40.9969 H         1 UNK         0.0600 
    154 H154       -1.0831  -18.1964  -42.9097 H         1 UNK         0.3000 
    155 H155        0.0629  -17.5552  -46.2632 H         1 UNK         0.0600 
    156 H156       -1.5251  -16.0253  -44.1275 H         1 UNK         0.0600 
    157 H157       -1.9692  -16.2064  -45.8154 H         1 UNK         0.0600 
    158 H158       -0.5353  -15.2857  -45.3823 H         1 UNK         0.0600 
    159 H159        0.9896  -16.4737  -43.8369 H         1 UNK         0.3000 
    160 H160        3.4556  -18.9399  -43.0159 H         1 UNK         0.0600 
    161 H161        3.6071  -16.0697  -44.0756 H         1 UNK         0.0600 
    162 H162        4.5309  -17.4464  -44.6527 H         1 UNK         0.0600 
    163 H163        4.8094  -16.8291  -43.0313 H         1 UNK         0.0600 
    164 H164        2.5306  -16.4797  -41.8157 H         1 UNK         0.3000 
    165 H165        0.1989  -18.0029  -39.5836 H         1 UNK         0.0600 
    166 H166        1.6469  -16.8561  -37.9318 H         1 UNK         0.0600 
    167 H167        2.4401  -18.3075  -38.5222 H         1 UNK         0.0600 
    168 H168        2.9504  -16.7308  -39.1135 H         1 UNK         0.0600 
    169 H169        1.0955  -15.3027  -39.9398 H         1 UNK         0.3000 
    170 H170       -1.2902  -14.3602  -42.4065 H         1 UNK         0.0600 
    171 H171       -2.5950  -14.3352  -40.2735 H         1 UNK         0.0600 
    172 H172       -1.1955  -13.6990  -39.4168 H         1 UNK         0.0600 
    173 H173       -1.9780  -12.7402  -40.6733 H         1 UNK         0.0600 
    174 H174        0.4788  -12.7065  -41.0369 H         1 UNK         0.3000 
    175 H175        2.7203  -12.3530  -41.5176 H         1 UNK         0.0600 
    176 H176        3.7567  -13.6107  -44.1155 H         1 UNK         0.0600 
    177 H177        4.6512  -12.5375  -43.0435 H         1 UNK         0.0600 
    178 H178        4.1812  -14.1358  -42.4881 H         1 UNK         0.0600 
    179 H179        2.4404  -11.6122  -44.3391 H         1 UNK         0.3000 
    180 H180       -0.0851   -9.5589  -44.1703 H         1 UNK         0.0600 
    181 H181        2.4017   -7.9451  -43.4015 H         1 UNK         0.0600 
    182 H182        0.8049   -7.8209  -42.6824 H         1 UNK         0.0600 
    183 H183        1.0475   -7.3313  -44.3503 H         1 UNK         0.0600 
    184 H184        0.8472  -10.0582  -46.0987 H         1 UNK         0.3000 
    185 H185        2.4357   -9.4492  -47.9248 H         1 UNK         0.0600 
    186 H186        4.8509   -8.9451  -47.6010 H         1 UNK         0.0600 
    187 H187        5.1664  -10.6263  -47.1852 H         1 UNK         0.0600 
    188 H188        4.6246  -10.2004  -48.8079 H         1 UNK         0.0600 
    189 H189        3.3513  -12.1953  -47.6035 H         1 UNK         0.3000 
    190 H190       -1.4809  -21.1609  -46.5236 H         1 UNK         0.3000 
    191 H191       -3.1490  -22.3179  -48.4628 H         1 UNK         0.0600 
    192 H192       -3.8230  -21.5229  -45.5784 H         1 UNK         0.0600 
    193 H193       -4.9821  -21.7446  -46.8834 H         1 UNK         0.0600 
    194 H194       -3.8137  -20.4328  -46.9591 H         1 UNK         0.0600 
    195 H195       -2.2152  -23.5965  -45.2414 H         1 UNK         0.3000 
    196 H196       -3.7534  -25.9823  -45.3673 H         1 UNK         0.0600 
    197 H197       -2.2334  -26.7341  -43.5283 H         1 UNK         0.0600 
    198 H198       -2.8166  -25.0985  -43.2569 H         1 UNK         0.0600 
    199 H199       -1.1733  -25.3627  -43.8329 H         1 UNK         0.0600 
    200 H200       -0.3448  -25.3250  -46.3206 H         1 UNK         0.3000 
    201 H201        0.3004  -27.9763  -47.1006 H         1 UNK         0.0600 
    202 H202        2.0130  -26.2775  -46.5718 H         1 UNK         0.0600 
    203 H203        1.5209  -25.2972  -47.9508 H         1 UNK         0.0600 
    204 H204        2.2592  -26.8745  -48.2059 H         1 UNK         0.0600 
    205 H205       -0.8866  -25.1870  -49.0300 H         1 UNK         0.3000 
    206 H206       -0.8852  -26.6804  -51.5323 H         1 UNK         0.0600 
    207 H207       -0.3829  -24.2374  -51.4065 H         1 UNK         0.0600 
    208 H208       -1.7631  -24.5564  -52.4443 H         1 UNK         0.0600 
    209 H209       -2.0169  -23.9228  -50.8208 H         1 UNK         0.0600 
    210 H210       -3.0478  -26.6505  -48.9328 H         1 UNK         0.3000 
    211 H211       -5.1576  -27.1794  -48.5323 H         1 UNK         0.0600 
    212 H212       -5.1394  -28.6471  -51.2248 H         1 UNK         0.0600 
    213 H213       -6.2551  -28.9218  -49.8938 H         1 UNK         0.0600 
    214 H214       -4.5543  -29.3140  -49.7009 H         1 UNK         0.0600 
    215 H215       -4.7069  -24.6875  -49.5228 H         1 UNK         0.3000 
    216 H216       -5.4817  -22.8183  -50.3909 H         1 UNK         0.0600 
    217 H217       -7.8930  -22.3684  -50.2009 H         1 UNK         0.0600 
    218 H218       -7.3651  -23.3330  -48.8333 H         1 UNK         0.0600 
    219 H219       -8.2547  -24.0894  -50.1550 H         1 UNK         0.0600 
    220 H220       -4.8688  -25.0475  -52.3960 H         1 UNK         0.3000 
    221 H221       -6.4586  -24.1626  -54.7438 H         1 UNK         0.0600 
    222 H222       -4.4883  -26.4836  -54.4659 H         1 UNK         0.0600 
    223 H223       -6.2241  -26.6174  -54.1856 H         1 UNK         0.0600 
    224 H224       -5.6192  -26.1974  -55.7797 H         1 UNK         0.0600 
    225 H225       -4.0241  -22.7270  -53.3243 H         1 UNK         0.3000 
    226 H226       -1.8665  -22.7442  -55.2094 H         1 UNK         0.0600 
    227 H227       -0.9987  -20.8958  -53.7937 H         1 UNK         0.0600 
    228 H228       -2.5651  -20.7160  -53.0203 H         1 UNK         0.0600 
    229 H229       -1.6156  -22.1806  -52.7749 H         1 UNK         0.0600 
    230 H230       -4.8644  -21.0858  -55.2721 H         1 UNK         0.3000 
    231 H231       -5.8643  -19.5934  -56.5385 H         1 UNK         0.0600 
    232 H232       -4.6955  -20.5779  -58.5208 H         1 UNK         0.0600 
    233 H233       -3.3888  -19.4085  -58.3305 H         1 UNK         0.0600 
    234 H234       -5.0110  -18.8601  -58.7116 H         1 UNK         0.0600 
    235 H235       -2.7051  -18.7378  -55.3444 H         1 UNK         0.3000 
    236 H236       -2.8963  -15.9064  -55.2638 H         1 UNK         0.0600 
    237 H237       -1.1250  -16.1533  -53.5013 H         1 UNK         0.0600 
    238 H238       -1.4521  -17.8787  -53.4040 H         1 UNK         0.0600 
    239 H239       -0.7899  -17.1839  -54.8836 H         1 UNK         0.0600 
    240 H240       -4.6683  -18.2695  -53.5268 H         1 UNK         0.3000 
    241 H241       -5.2558  -16.9114  -51.1156 H         1 UNK         0.0600 
    242 H242       -7.8149  -15.1570  -53.7356 H         1 UNK         0.3800 
    243 H243       -6.4834  -16.1315  -54.3050 H         1 UNK         0.3800 
    244 H244       -6.9395  -18.6177  -50.7501 H         1 UNK         0.0800 
    245 H245       -7.0644  -18.9698  -52.4502 H         1 UNK         0.0800 
    246 H246       -4.8947  -18.8794  -49.3999 H         1 UNK         0.0800 
    247 H247       -4.3825  -20.5406  -49.3188 H         1 UNK         0.0800 
@<TRIPOS>BOND
     1    1    2 1    
     2    1  127 1    
     3    1  128 1    
     4    1  129 1    
     5    2    3 2    
     6    2    4 am   BACKBONE|DICT|INTERRES
     7    4    5 1    
     8    4  130 1    
     9    5    6 1    
    10    5   65 1    
    11    5  131 1    
    12    6    7 1    
    13    6  132 1    
    14    6  133 1    
    15    7    8 1    
    16    8    9 1    
    17    8  134 1    
    18    8  135 1    
    19    9   10 ar   
    20    9   14 ar   
    21   10   11 ar   
    22   10  136 1    
    23   11   12 ar   
    24   11  126 1    
    25   12   13 ar   
    26   12  137 1    
    27   13   14 ar   
    28   13   15 1    
    29   14  138 1    
    30   15   16 1    
    31   15  139 1    
    32   15  140 1    
    33   16   17 1    
    34   17   18 1    
    35   17  141 1    
    36   17  142 1    
    37   18   19 1    
    38   18   67 1    
    39   18  143 1    
    40   19   20 am   BACKBONE|DICT|INTERRES
    41   19  144 1    
    42   20   21 2    
    43   20   22 1    
    44   22   23 1    
    45   22   24 1    
    46   22  145 1    
    47   23  146 1    
    48   23  147 1    
    49   23  148 1    
    50   24   25 am   BACKBONE|DICT|INTERRES
    51   24  149 1    
    52   25   26 2    
    53   25   27 1    
    54   27   28 1    
    55   27   29 1    
    56   27  150 1    
    57   28  151 1    
    58   28  152 1    
    59   28  153 1    
    60   29   30 am   BACKBONE|DICT|INTERRES
    61   29  154 1    
    62   30   31 2    
    63   30   32 1    
    64   32   33 1    
    65   32   34 1    
    66   32  155 1    
    67   33  156 1    
    68   33  157 1    
    69   33  158 1    
    70   34   35 am   BACKBONE|DICT|INTERRES
    71   34  159 1    
    72   35   36 2    
    73   35   37 1    
    74   37   38 1    
    75   37   39 1    
    76   37  160 1    
    77   38  161 1    
    78   38  162 1    
    79   38  163 1    
    80   39   40 am   BACKBONE|DICT|INTERRES
    81   39  164 1    
    82   40   41 2    
    83   40   42 1    
    84   42   43 1    
    85   42   44 1    
    86   42  165 1    
    87   43  166 1    
    88   43  167 1    
    89   43  168 1    
    90   44   45 am   BACKBONE|DICT|INTERRES
    91   44  169 1    
    92   45   46 2    
    93   45   47 1    
    94   47   48 1    
    95   47   49 1    
    96   47  170 1    
    97   48  171 1    
    98   48  172 1    
    99   48  173 1    
   100   49   50 am   BACKBONE|DICT|INTERRES
   101   49  174 1    
   102   50   51 2    
   103   50   52 1    
   104   52   53 1    
   105   52   54 1    
   106   52  175 1    
   107   53  176 1    
   108   53  177 1    
   109   53  178 1    
   110   54   55 am   BACKBONE|DICT|INTERRES
   111   54  179 1    
   112   55   56 2    
   113   55   57 1    
   114   57   58 1    
   115   57   59 1    
   116   57  180 1    
   117   58  181 1    
   118   58  182 1    
   119   58  183 1    
   120   59   60 am   BACKBONE|DICT|INTERRES
   121   59  184 1    
   122   60   61 2    
   123   60   62 1    
   124   62   63 1    
   125   62   64 1    
   126   62  185 1    
   127   63  186 1    
   128   63  187 1    
   129   63  188 1    
   130   64   65 am   BACKBONE|DICT|INTERRES
   131   64  189 1    
   132   65   66 2    
   133   67   68 2    
   134   67   69 am   BACKBONE|DICT|INTERRES
   135   69   70 1    
   136   69  190 1    
   137   70   71 1    
   138   70   72 1    
   139   70  191 1    
   140   71  192 1    
   141   71  193 1    
   142   71  194 1    
   143   72   73 2    
   144   72   74 am   BACKBONE|DICT|INTERRES
   145   74   75 1    
   146   74  195 1    
   147   75   76 1    
   148   75   77 1    
   149   75  196 1    
   150   76  197 1    
   151   76  198 1    
   152   76  199 1    
   153   77   78 2    
   154   77   79 am   BACKBONE|DICT|INTERRES
   155   79   80 1    
   156   79  200 1    
   157   80   81 1    
   158   80   82 1    
   159   80  201 1    
   160   81  202 1    
   161   81  203 1    
   162   81  204 1    
   163   82   83 2    
   164   82   84 am   BACKBONE|DICT|INTERRES
   165   84   85 1    
   166   84  205 1    
   167   85   86 1    
   168   85   87 1    
   169   85  206 1    
   170   86  207 1    
   171   86  208 1    
   172   86  209 1    
   173   87   88 2    
   174   87   89 am   BACKBONE|DICT|INTERRES
   175   89   90 1    
   176   89  210 1    
   177   90   91 1    
   178   90   92 1    
   179   90  211 1    
   180   91  212 1    
   181   91  213 1    
   182   91  214 1    
   183   92   93 2    
   184   92   94 am   BACKBONE|DICT|INTERRES
   185   94   95 1    
   186   94  215 1    
   187   95   96 1    
   188   95   97 1    
   189   95  216 1    
   190   96  217 1    
   191   96  218 1    
   192   96  219 1    
   193   97   98 2    
   194   97   99 am   BACKBONE|DICT|INTERRES
   195   99  100 1    
   196   99  220 1    
   197  100  101 1    
   198  100  102 1    
   199  100  221 1    
   200  101  222 1    
   201  101  223 1    
   202  101  224 1    
   203  102  103 2    
   204  102  104 am   BACKBONE|DICT|INTERRES
   205  104  105 1    
   206  104  225 1    
   207  105  106 1    
   208  105  107 1    
   209  105  226 1    
   210  106  227 1    
   211  106  228 1    
   212  106  229 1    
   213  107  108 2    
   214  107  109 am   BACKBONE|DICT|INTERRES
   215  109  110 1    
   216  109  230 1    
   217  110  111 1    
   218  110  112 1    
   219  110  231 1    
   220  111  232 1    
   221  111  233 1    
   222  111  234 1    
   223  112  113 2    
   224  112  114 am   BACKBONE|DICT|INTERRES
   225  114  115 1    
   226  114  235 1    
   227  115  116 1    
   228  115  117 1    
   229  115  236 1    
   230  116  237 1    
   231  116  238 1    
   232  116  239 1    
   233  117  118 2    
   234  117  119 am   BACKBONE|DICT|INTERRES
   235  119  120 1    
   236  119  240 1    
   237  120  121 1    
   238  120  124 1    
   239  120  241 1    
   240  121  122 am   BACKBONE|DICT|INTERRES
   241  121  123 2    
   242  122  242 1    
   243  122  243 1    
   244  124  125 1    
   245  124  244 1    
   246  124  245 1    
   247  125  126 1    
   248  126  246 1    
   249  126  247 1    
@<TRIPOS>SUBSTRUCTURE
     1 UNK         1 GROUP             0       ****    0 ROOT    
