@<TRIPOS>MOLECULE
3R540
247   249    1
SMALL
USER_CHARGES


@<TRIPOS>ATOM
      1 CA         -4.8141  -11.3014  -49.5804 C.3       0 UNK        -0.1800 
      2 C          -3.3508  -11.3472  -49.1629 C.2       0 UNK         0.5000 
      3 O          -2.5413  -10.5825  -49.6872 O.2       0 UNK        -0.5000 
      4 N          -3.0172  -12.2425  -48.2250 N.am      1 UNK        -0.5000 
      5 CA         -1.6587  -12.4678  -47.7157 C.3       1 UNK         0.1400 
      6 C6         -1.5590  -13.7696  -46.8828 C.3       23 UNK        -0.0398 
      7 S7         -1.7907  -15.2615  -47.9002 S.3       23 UNK        -0.2404 
      8 C8         -3.5459  -15.6350  -47.6095 C.3       23 UNK        -0.0205 
      9 C9         -4.0907  -16.5147  -48.7201 C.ar      23 UNK        -0.0193 
     10 C10        -4.3105  -15.9720  -49.9896 C.ar      23 UNK        -0.1150 
     11 C11        -4.7759  -16.7748  -51.0338 C.ar      23 UNK        -0.0193 
     12 C12        -5.0466  -18.1244  -50.7935 C.ar      23 UNK        -0.1150 
     13 C13        -4.8449  -18.6740  -49.5240 C.ar      23 UNK        -0.0193 
     14 C14        -4.3653  -17.8650  -48.4896 C.ar      23 UNK        -0.1150 
     15 C15        -5.1397  -20.1444  -49.2804 C.3       23 UNK        -0.0205 
     16 S16        -3.7588  -21.1877  -49.8310 S.3       23 UNK        -0.2404 
     17 C17        -2.5402  -20.9341  -48.4984 C.3       23 UNK        -0.0398 
     18 CA         -1.9764  -22.2710  -47.9665 C.3       11 UNK         0.1400 
     19 N          -0.6699  -22.0984  -47.3330 N.am      11 UNK        -0.5000 
     20 C           0.1594  -23.1053  -47.0295 C.2       10 UNK         0.5000 
     21 O          -0.0791  -24.2853  -47.2800 O.2       10 UNK        -0.5000 
     22 CA          1.4501  -22.7394  -46.2785 C.3       10 UNK         0.1400 
     23 CB          2.5070  -22.1908  -47.2486 C.3       10 UNK        -0.1800 
     24 N           1.2141  -21.7827  -45.1958 N.am      10 UNK        -0.5000 
     25 C           0.4430  -22.0313  -44.1267 C.2       9 UNK         0.5000 
     26 O          -0.1112  -23.1110  -43.9215 O.2       9 UNK        -0.5000 
     27 CA          0.2163  -20.8733  -43.1398 C.3       9 UNK         0.1400 
     28 CB          1.4195  -20.7198  -42.1978 C.3       9 UNK        -0.1800 
     29 N          -0.0558  -19.6003  -43.8071 N.am      9 UNK        -0.5000 
     30 C          -1.1176  -19.3552  -44.5890 C.2       8 UNK         0.5000 
     31 O          -2.0074  -20.1745  -44.8152 O.2       8 UNK        -0.5000 
     32 CA         -1.1630  -17.9820  -45.2837 C.3       8 UNK         0.1400 
     33 CB         -1.5911  -16.8791  -44.3043 C.3       8 UNK        -0.1800 
     34 N           0.1167  -17.6314  -45.8981 N.am      8 UNK        -0.5000 
     35 C           0.7036  -18.3397  -46.8741 C.2       7 UNK         0.5000 
     36 O           0.2135  -19.3478  -47.3822 O.2       7 UNK        -0.5000 
     37 CA          2.1079  -17.8841  -47.2983 C.3       7 UNK         0.1400 
     38 CB          2.0303  -16.7087  -48.2854 C.3       7 UNK        -0.1800 
     39 N           2.9229  -17.5199  -46.1369 N.am      7 UNK        -0.5000 
     40 C           3.3938  -18.4051  -45.2449 C.2       6 UNK         0.5000 
     41 O           3.2213  -19.6200  -45.3343 O.2       6 UNK        -0.5000 
     42 CA          4.1525  -17.8422  -44.0282 C.3       6 UNK         0.1400 
     43 CB          5.6248  -17.5840  -44.3807 C.3       6 UNK        -0.1800 
     44 N           3.5572  -16.6133  -43.5044 N.am      6 UNK        -0.5000 
     45 C           2.3417  -16.5338  -42.9446 C.2       5 UNK         0.5000 
     46 O           1.6115  -17.5058  -42.7594 O.2       5 UNK        -0.5000 
     47 CA          1.8345  -15.1259  -42.5777 C.3       5 UNK         0.1400 
     48 CB          2.2096  -14.7759  -41.1307 C.3       5 UNK        -0.1800 
     49 N           2.3243  -14.0726  -43.4708 N.am      5 UNK        -0.5000 
     50 C           2.1338  -14.0268  -44.7948 C.2       4 UNK         0.5000 
     51 O           1.5203  -14.8965  -45.4161 O.2       4 UNK        -0.5000 
     52 CA          2.7478  -12.8194  -45.5324 C.3       4 UNK         0.1400 
     53 CB          2.6189  -12.9368  -47.0621 C.3       4 UNK        -0.1800 
     54 N           2.1715  -11.5472  -45.0854 N.am      4 UNK        -0.5000 
     55 C           2.4870  -10.9187  -43.9417 C.2       3 UNK         0.5000 
     56 O           3.2975  -11.3705  -43.1304 O.2       3 UNK        -0.5000 
     57 CA          1.8081   -9.5674  -43.6364 C.3       3 UNK         0.1400 
     58 CB          2.7855   -8.4095  -43.8919 C.3       3 UNK        -0.1800 
     59 N           0.5874   -9.3268  -44.4049 N.am      3 UNK        -0.5000 
     60 C          -0.5939   -9.9159  -44.1811 C.2       2 UNK         0.5000 
     61 O          -0.7934  -10.7251  -43.2742 O.2       2 UNK        -0.5000 
     62 CA         -1.7463   -9.5700  -45.1499 C.3       2 UNK         0.1400 
     63 CB         -1.5384   -8.2534  -45.9321 C.3       2 UNK        -0.1800 
     64 N          -2.0203  -10.6745  -46.0745 N.am      2 UNK        -0.5000 
     65 C          -1.1400  -11.2725  -46.8934 C.2       1 UNK         0.5000 
     66 O           0.0350  -10.9225  -47.0115 O.2       1 UNK        -0.5000 
     67 C          -2.9677  -23.0218  -47.0542 C.2       11 UNK         0.5000 
     68 O          -3.6700  -23.9104  -47.5348 O.2       11 UNK        -0.5000 
     69 N          -2.9733  -22.7104  -45.7499 N.am      12 UNK        -0.5000 
     70 CA         -3.7597  -23.4209  -44.7389 C.3       12 UNK         0.1400 
     71 CB         -3.6562  -22.6966  -43.3888 C.3       12 UNK        -0.1800 
     72 C          -3.3550  -24.9014  -44.6065 C.2       12 UNK         0.5000 
     73 O          -4.2304  -25.7674  -44.5860 O.2       12 UNK        -0.5000 
     74 N          -2.0417  -25.1730  -44.5832 N.am      13 UNK        -0.5000 
     75 CA         -1.4673  -26.5222  -44.5799 C.3       13 UNK         0.1400 
     76 CB          0.0492  -26.4328  -44.3536 C.3       13 UNK        -0.1800 
     77 C          -1.7828  -27.3186  -45.8623 C.2       13 UNK         0.5000 
     78 O          -1.9754  -28.5326  -45.7927 O.2       13 UNK        -0.5000 
     79 N          -1.8772  -26.6153  -46.9981 N.am      14 UNK        -0.5000 
     80 CA         -2.2892  -27.1432  -48.2999 C.3       14 UNK         0.1400 
     81 CB         -1.6978  -26.2514  -49.4048 C.3       14 UNK        -0.1800 
     82 C          -3.8207  -27.2800  -48.4572 C.2       14 UNK         0.5000 
     83 O          -4.2772  -27.6067  -49.5525 O.2       14 UNK        -0.5000 
     84 N          -4.5895  -27.0250  -47.3866 N.am      15 UNK        -0.5000 
     85 CA         -6.0523  -27.0994  -47.3028 C.3       15 UNK         0.1400 
     86 CB         -6.5475  -28.5467  -47.5086 C.3       15 UNK        -0.1800 
     87 C          -6.7600  -26.0744  -48.2134 C.2       15 UNK         0.5000 
     88 O          -7.7683  -26.3935  -48.8457 O.2       15 UNK        -0.5000 
     89 N          -6.2077  -24.8542  -48.2482 N.am      16 UNK        -0.5000 
     90 CA         -6.6574  -23.6775  -48.9960 C.3       16 UNK         0.1400 
     91 CB         -8.0884  -23.2597  -48.5977 C.3       16 UNK        -0.1800 
     92 C          -6.4593  -23.7902  -50.5212 C.2       16 UNK         0.5000 
     93 O          -7.1025  -23.0556  -51.2733 O.2       16 UNK        -0.5000 
     94 N          -5.5590  -24.6806  -50.9606 N.am      17 UNK        -0.5000 
     95 CA         -5.1314  -24.7968  -52.3513 C.3       17 UNK         0.1400 
     96 CB         -4.4445  -26.1534  -52.5686 C.3       17 UNK        -0.1800 
     97 C          -4.1929  -23.6325  -52.7108 C.2       17 UNK         0.5000 
     98 O          -3.0610  -23.5864  -52.2239 O.2       17 UNK        -0.5000 
     99 N          -4.6739  -22.7234  -53.5702 N.am      18 UNK        -0.5000 
    100 CA        -3.9920  -21.4922  -53.9910 C.3       18 UNK         0.1400 
    101 CB        -4.9573  -20.6514  -54.8398 C.3       18 UNK        -0.1800 
    102 C         -2.6539  -21.7043  -54.7312 C.2       18 UNK         0.5000 
    103 O         -1.8895  -20.7509  -54.8778 O.2       18 UNK        -0.5000 
    104 N         -2.3605  -22.9495  -55.1343 N.am      19 UNK        -0.5000 
    105 CA        -1.0660  -23.4100  -55.6459 C.3       19 UNK         0.1400 
    106 CB        -1.1943  -24.8855  -56.0537 C.3       19 UNK        -0.1800 
    107 C          0.1026  -23.2243  -54.6513 C.2       19 UNK         0.5000 
    108 O          1.2548  -23.1652  -55.0813 O.2       19 UNK        -0.5000 
    109 N         -0.2098  -23.0920  -53.3526 N.am      20 UNK        -0.5000 
    110 CA         0.7222  -22.6988  -52.2915 C.3       20 UNK         0.1400 
    111 CB         0.0486  -22.9619  -50.9384 C.3       20 UNK        -0.1800 
    112 C          1.1861  -21.2251  -52.3746 C.2       20 UNK         0.5000 
    113 O          2.1383  -20.8661  -51.6812 O.2       20 UNK        -0.5000 
    114 N          0.5172  -20.4243  -53.2192 N.am      21 UNK        -0.5000 
    115 CA         0.6685  -18.9909  -53.4769 C.3       21 UNK         0.1400 
    116 CB         2.1344  -18.5825  -53.7267 C.3       21 UNK        -0.1800 
    117 C          0.0042  -18.1162  -52.3993 C.2       21 UNK         0.5000 
    118 O         -0.0436  -18.4802  -51.2237 O.2       21 UNK        -0.5000 
    119 N         -0.4856  -16.9553  -52.8446 N.am      22 UNK        -0.5000 
    120 CA        -1.1775  -15.9413  -52.0304 C.3       22 UNK         0.1400 
    121 C         -0.2170  -14.8729  -51.4228 C.2       22 UNK         0.5000 
    122 N          1.0985  -15.0454  -51.4788 N.am      22 UNK        -0.7600 
    123 O         -0.6668  -13.8553  -50.9065 O.2       22 UNK        -0.5000 
    124 C124       -2.3288  -15.2721  -52.8314 C.3       23 UNK        -0.0398 
    125 S125       -3.5447  -16.4651  -53.4986 S.3       23 UNK        -0.2404 
    126 C126       -4.9864  -16.1887  -52.4209 C.3       23 UNK        -0.0205 
    127 H127       -4.9050  -11.4990  -50.6486 H         1 UNK         0.0600 
    128 H128       -5.2317  -10.3151  -49.3780 H         1 UNK         0.0600 
    129 H129       -5.4126  -12.0406  -49.0473 H         1 UNK         0.0600 
    130 H130       -3.7343  -12.8378  -47.8407 H         1 UNK         0.3000 
    131 H131       -0.9938  -12.5654  -48.5764 H         1 UNK         0.0600 
    132 H132       -2.2702  -13.7670  -46.0551 H         1 UNK         0.0800 
    133 H133       -0.5724  -13.8536  -46.4289 H         1 UNK         0.0800 
    134 H134       -4.1313  -14.7172  -47.5687 H         1 UNK         0.0800 
    135 H135       -3.6560  -16.1164  -46.6368 H         1 UNK         0.0800 
    136 H136       -4.0948  -14.9276  -50.1662 H         1 UNK         0.1150 
    137 H137       -5.4034  -18.7517  -51.5985 H         1 UNK         0.1150 
    138 H138       -4.1996  -18.2864  -47.5084 H         1 UNK         0.1150 
    139 H139       -5.3553  -20.3323  -48.2274 H         1 UNK         0.0800 
    140 H140       -6.0367  -20.4310  -49.8317 H         1 UNK         0.0800 
    141 H141       -2.9556  -20.3362  -47.6864 H         1 UNK         0.0800 
    142 H142       -1.7376  -20.3344  -48.9308 H         1 UNK         0.0800 
    143 H143       -1.8098  -22.9222  -48.8252 H         1 UNK         0.0600 
    144 H144       -0.3809  -21.1434  -47.1350 H         1 UNK         0.3000 
    145 H145        1.8440  -23.6548  -45.8324 H         1 UNK         0.0600 
    146 H146        3.4552  -22.0159  -46.7402 H         1 UNK         0.0600 
    147 H147        2.6976  -22.8962  -48.0583 H         1 UNK         0.0600 
    148 H148        2.1912  -21.2506  -47.7012 H         1 UNK         0.0600 
    149 H149        1.6778  -20.8830  -45.2752 H         1 UNK         0.3000 
    150 H150       -0.6574  -21.1213  -42.5340 H         1 UNK         0.0600 
    151 H151        1.6360  -21.6569  -41.6835 H         1 UNK         0.0600 
    152 H152        1.2272  -19.9666  -41.4335 H         1 UNK         0.0600 
    153 H153        2.3192  -20.4250  -42.7386 H         1 UNK         0.0600 
    154 H154        0.6097  -18.8508  -43.6355 H         1 UNK         0.3000 
    155 H155       -1.9054  -18.0356  -46.0826 H         1 UNK         0.0600 
    156 H156       -0.9087  -16.8002  -43.4587 H         1 UNK         0.0600 
    157 H157       -2.5854  -17.0810  -43.9044 H         1 UNK         0.0600 
    158 H158       -1.6279  -15.9066  -44.7938 H         1 UNK         0.0600 
    159 H159        0.5844  -16.7987  -45.5583 H         1 UNK         0.3000 
    160 H160        2.5931  -18.7190  -47.8082 H         1 UNK         0.0600 
    161 H161        1.5128  -15.8490  -47.8596 H         1 UNK         0.0600 
    162 H162        1.4836  -16.9985  -49.1839 H         1 UNK         0.0600 
    163 H163        3.0229  -16.3852  -48.5978 H         1 UNK         0.0600 
    164 H164        3.0256  -16.5324  -45.9500 H         1 UNK         0.3000 
    165 H165        4.1183  -18.5957  -43.2384 H         1 UNK         0.0600 
    166 H166        5.7280  -16.8160  -45.1483 H         1 UNK         0.0600 
    167 H167        6.1894  -17.2626  -43.5052 H         1 UNK         0.0600 
    168 H168        6.1000  -18.4908  -44.7574 H         1 UNK         0.0600 
    169 H169        4.0895  -15.7631  -43.6146 H         1 UNK         0.3000 
    170 H170        0.7458  -15.1395  -42.6551 H         1 UNK         0.0600 
    171 H171        1.7791  -13.8197  -40.8323 H         1 UNK         0.0600 
    172 H172        3.2905  -14.7133  -40.9992 H         1 UNK         0.0600 
    173 H173        1.8364  -15.5305  -40.4368 H         1 UNK         0.0600 
    174 H174        2.8123  -13.2921  -43.0424 H         1 UNK         0.3000 
    175 H175        3.8152  -12.8131  -45.3017 H         1 UNK         0.0600 
    176 H176        1.5807  -13.0288  -47.3802 H         1 UNK         0.0600 
    177 H177        3.0471  -12.0689  -47.5636 H         1 UNK         0.0600 
    178 H178        3.1479  -13.8170  -47.4291 H         1 UNK         0.0600 
    179 H179        1.4659  -11.1401  -45.6929 H         1 UNK         0.3000 
    180 H180        1.5514   -9.5663  -42.5749 H         1 UNK         0.0600 
    181 H181        3.6990   -8.5317  -43.3083 H         1 UNK         0.0600 
    182 H182        2.3469   -7.4526  -43.6081 H         1 UNK         0.0600 
    183 H183        3.0727   -8.3501  -44.9424 H         1 UNK         0.0600 
    184 H184        0.6684   -8.7074  -45.1982 H         1 UNK         0.3000 
    185 H185       -2.6379   -9.4480  -44.5332 H         1 UNK         0.0600 
    186 H186       -2.4284   -8.0039  -46.5101 H         1 UNK         0.0600 
    187 H187       -1.3525   -7.4187  -45.2549 H         1 UNK         0.0600 
    188 H188       -0.7030   -8.3096  -46.6305 H         1 UNK         0.0600 
    189 H189       -2.9611  -11.0404  -46.0467 H         1 UNK         0.3000 
    190 H190       -2.4067  -21.9322  -45.4220 H         1 UNK         0.3000 
    191 H191       -4.8045  -23.3923  -45.0555 H         1 UNK         0.0600 
    192 H192       -4.2573  -23.1985  -42.6296 H         1 UNK         0.0600 
    193 H193       -4.0174  -21.6708  -43.4639 H         1 UNK         0.0600 
    194 H194       -2.6295  -22.6630  -43.0251 H         1 UNK         0.0600 
    195 H195       -1.3820  -24.3994  -44.5595 H         1 UNK         0.3000 
    196 H196       -1.9040  -27.0660  -43.7398 H         1 UNK         0.0600 
    197 H197        0.5431  -25.8762  -45.1503 H         1 UNK         0.0600 
    198 H198        0.2780  -25.9379  -43.4096 H         1 UNK         0.0600 
    199 H199        0.4988  -27.4258  -44.3183 H         1 UNK         0.0600 
    200 H200       -1.6370  -25.6302  -46.9736 H         1 UNK         0.3000 
    201 H201       -1.8657  -28.1427  -48.4162 H         1 UNK         0.0600 
    202 H202       -1.8510  -26.6936  -50.3890 H         1 UNK         0.0600 
    203 H203       -2.1559  -25.2621  -49.4142 H         1 UNK         0.0600 
    204 H204       -0.6228  -26.1231  -49.2780 H         1 UNK         0.0600 
    205 H205       -4.1292  -26.7192  -46.5378 H         1 UNK         0.3000 
    206 H206       -6.3067  -26.8140  -46.2811 H         1 UNK         0.0600 
    207 H207       -6.0348  -29.2373  -46.8391 H         1 UNK         0.0600 
    208 H208       -7.6150  -28.6265  -47.3000 H         1 UNK         0.0600 
    209 H209       -6.3895  -28.8903  -48.5311 H         1 UNK         0.0600 
    210 H210       -5.3249  -24.7155  -47.7596 H         1 UNK         0.3000 
    211 H211       -5.9956  -22.8732  -48.6768 H         1 UNK         0.0600 
    212 H212       -8.3386  -22.2827  -49.0127 H         1 UNK         0.0600 
    213 H213       -8.1913  -23.1857  -47.5151 H         1 UNK         0.0600 
    214 H214       -8.8348  -23.9665  -48.9604 H         1 UNK         0.0600 
    215 H215       -5.0633  -25.2444  -50.2845 H         1 UNK         0.3000 
    216 H216       -6.0129  -24.7636  -52.9952 H         1 UNK         0.0600 
    217 H217       -3.5523  -26.2577  -51.9518 H         1 UNK         0.0600 
    218 H218       -4.1396  -26.2748  -53.6086 H         1 UNK         0.0600 
    219 H219       -5.1148  -26.9781  -52.3258 H         1 UNK         0.0600 
    220 H220       -5.6190  -22.8384  -53.9073 H         1 UNK         0.3000 
    221 H221       -3.7604  -20.9268  -53.0857 H         1 UNK         0.0600 
    222 H222       -5.8637  -20.4104  -54.2839 H         1 UNK         0.0600 
    223 H223       -5.2484  -21.1728  -55.7523 H         1 UNK         0.0600 
    224 H224       -4.4993  -19.7052  -55.1323 H         1 UNK         0.0600 
    225 H225       -3.0523  -23.6644  -54.9668 H         1 UNK         0.3000 
    226 H226       -0.8331  -22.8229  -56.5364 H         1 UNK         0.0600 
    227 H227       -1.4533  -25.5161  -55.2020 H         1 UNK         0.0600 
    228 H228       -1.9606  -25.0195  -56.8174 H         1 UNK         0.0600 
    229 H229       -0.2569  -25.2603  -56.4669 H         1 UNK         0.0600 
    230 H230       -1.1811  -23.1921  -53.0747 H         1 UNK         0.3000 
    231 H231        1.6106  -23.3291  -52.3641 H         1 UNK         0.0600 
    232 H232       -0.8456  -22.3482  -50.8266 H         1 UNK         0.0600 
    233 H233        0.7176  -22.7250  -50.1103 H         1 UNK         0.0600 
    234 H234       -0.2440  -24.0065  -50.8342 H         1 UNK         0.0600 
    235 H235       -0.2668  -20.8345  -53.7152 H         1 UNK         0.3000 
    236 H236        0.1245  -18.8234  -54.4081 H         1 UNK         0.0600 
    237 H237        2.7285  -18.6097  -52.8129 H         1 UNK         0.0600 
    238 H238        2.6089  -19.2366  -54.4583 H         1 UNK         0.0600 
    239 H239        2.1920  -17.5655  -54.1157 H         1 UNK         0.0600 
    240 H240       -0.3930  -16.7306  -53.8244 H         1 UNK         0.3000 
    241 H241       -1.6308  -16.4401  -51.1716 H         1 UNK         0.0600 
    242 H242        1.7037  -14.3407  -51.0896 H         1 UNK         0.3800 
    243 H243        1.4900  -15.8723  -51.8975 H         1 UNK         0.3800 
    244 H244       -1.9203  -14.7090  -53.6719 H         1 UNK         0.0800 
    245 H245       -2.8525  -14.5409  -52.2142 H         1 UNK         0.0800 
    246 H246       -5.2079  -15.1220  -52.3611 H         1 UNK         0.0800 
    247 H247       -5.8601  -16.6522  -52.8815 H         1 UNK         0.0800 
@<TRIPOS>BOND
     1    1    2 1    
     2    1  127 1    
     3    1  128 1    
     4    1  129 1    
     5    2    3 2    
     6    2    4 am   BACKBONE|DICT|INTERRES
     7    4    5 1    
     8    4  130 1    
     9    5    6 1    
    10    5   65 1    
    11    5  131 1    
    12    6    7 1    
    13    6  132 1    
    14    6  133 1    
    15    7    8 1    
    16    8    9 1    
    17    8  134 1    
    18    8  135 1    
    19    9   10 ar   
    20    9   14 ar   
    21   10   11 ar   
    22   10  136 1    
    23   11   12 ar   
    24   11  126 1    
    25   12   13 ar   
    26   12  137 1    
    27   13   14 ar   
    28   13   15 1    
    29   14  138 1    
    30   15   16 1    
    31   15  139 1    
    32   15  140 1    
    33   16   17 1    
    34   17   18 1    
    35   17  141 1    
    36   17  142 1    
    37   18   19 1    
    38   18   67 1    
    39   18  143 1    
    40   19   20 am   BACKBONE|DICT|INTERRES
    41   19  144 1    
    42   20   21 2    
    43   20   22 1    
    44   22   23 1    
    45   22   24 1    
    46   22  145 1    
    47   23  146 1    
    48   23  147 1    
    49   23  148 1    
    50   24   25 am   BACKBONE|DICT|INTERRES
    51   24  149 1    
    52   25   26 2    
    53   25   27 1    
    54   27   28 1    
    55   27   29 1    
    56   27  150 1    
    57   28  151 1    
    58   28  152 1    
    59   28  153 1    
    60   29   30 am   BACKBONE|DICT|INTERRES
    61   29  154 1    
    62   30   31 2    
    63   30   32 1    
    64   32   33 1    
    65   32   34 1    
    66   32  155 1    
    67   33  156 1    
    68   33  157 1    
    69   33  158 1    
    70   34   35 am   BACKBONE|DICT|INTERRES
    71   34  159 1    
    72   35   36 2    
    73   35   37 1    
    74   37   38 1    
    75   37   39 1    
    76   37  160 1    
    77   38  161 1    
    78   38  162 1    
    79   38  163 1    
    80   39   40 am   BACKBONE|DICT|INTERRES
    81   39  164 1    
    82   40   41 2    
    83   40   42 1    
    84   42   43 1    
    85   42   44 1    
    86   42  165 1    
    87   43  166 1    
    88   43  167 1    
    89   43  168 1    
    90   44   45 am   BACKBONE|DICT|INTERRES
    91   44  169 1    
    92   45   46 2    
    93   45   47 1    
    94   47   48 1    
    95   47   49 1    
    96   47  170 1    
    97   48  171 1    
    98   48  172 1    
    99   48  173 1    
   100   49   50 am   BACKBONE|DICT|INTERRES
   101   49  174 1    
   102   50   51 2    
   103   50   52 1    
   104   52   53 1    
   105   52   54 1    
   106   52  175 1    
   107   53  176 1    
   108   53  177 1    
   109   53  178 1    
   110   54   55 am   BACKBONE|DICT|INTERRES
   111   54  179 1    
   112   55   56 2    
   113   55   57 1    
   114   57   58 1    
   115   57   59 1    
   116   57  180 1    
   117   58  181 1    
   118   58  182 1    
   119   58  183 1    
   120   59   60 am   BACKBONE|DICT|INTERRES
   121   59  184 1    
   122   60   61 2    
   123   60   62 1    
   124   62   63 1    
   125   62   64 1    
   126   62  185 1    
   127   63  186 1    
   128   63  187 1    
   129   63  188 1    
   130   64   65 am   BACKBONE|DICT|INTERRES
   131   64  189 1    
   132   65   66 2    
   133   67   68 2    
   134   67   69 am   BACKBONE|DICT|INTERRES
   135   69   70 1    
   136   69  190 1    
   137   70   71 1    
   138   70   72 1    
   139   70  191 1    
   140   71  192 1    
   141   71  193 1    
   142   71  194 1    
   143   72   73 2    
   144   72   74 am   BACKBONE|DICT|INTERRES
   145   74   75 1    
   146   74  195 1    
   147   75   76 1    
   148   75   77 1    
   149   75  196 1    
   150   76  197 1    
   151   76  198 1    
   152   76  199 1    
   153   77   78 2    
   154   77   79 am   BACKBONE|DICT|INTERRES
   155   79   80 1    
   156   79  200 1    
   157   80   81 1    
   158   80   82 1    
   159   80  201 1    
   160   81  202 1    
   161   81  203 1    
   162   81  204 1    
   163   82   83 2    
   164   82   84 am   BACKBONE|DICT|INTERRES
   165   84   85 1    
   166   84  205 1    
   167   85   86 1    
   168   85   87 1    
   169   85  206 1    
   170   86  207 1    
   171   86  208 1    
   172   86  209 1    
   173   87   88 2    
   174   87   89 am   BACKBONE|DICT|INTERRES
   175   89   90 1    
   176   89  210 1    
   177   90   91 1    
   178   90   92 1    
   179   90  211 1    
   180   91  212 1    
   181   91  213 1    
   182   91  214 1    
   183   92   93 2    
   184   92   94 am   BACKBONE|DICT|INTERRES
   185   94   95 1    
   186   94  215 1    
   187   95   96 1    
   188   95   97 1    
   189   95  216 1    
   190   96  217 1    
   191   96  218 1    
   192   96  219 1    
   193   97   98 2    
   194   97   99 am   BACKBONE|DICT|INTERRES
   195   99  100 1    
   196   99  220 1    
   197  100  101 1    
   198  100  102 1    
   199  100  221 1    
   200  101  222 1    
   201  101  223 1    
   202  101  224 1    
   203  102  103 2    
   204  102  104 am   BACKBONE|DICT|INTERRES
   205  104  105 1    
   206  104  225 1    
   207  105  106 1    
   208  105  107 1    
   209  105  226 1    
   210  106  227 1    
   211  106  228 1    
   212  106  229 1    
   213  107  108 2    
   214  107  109 am   BACKBONE|DICT|INTERRES
   215  109  110 1    
   216  109  230 1    
   217  110  111 1    
   218  110  112 1    
   219  110  231 1    
   220  111  232 1    
   221  111  233 1    
   222  111  234 1    
   223  112  113 2    
   224  112  114 am   BACKBONE|DICT|INTERRES
   225  114  115 1    
   226  114  235 1    
   227  115  116 1    
   228  115  117 1    
   229  115  236 1    
   230  116  237 1    
   231  116  238 1    
   232  116  239 1    
   233  117  118 2    
   234  117  119 am   BACKBONE|DICT|INTERRES
   235  119  120 1    
   236  119  240 1    
   237  120  121 1    
   238  120  124 1    
   239  120  241 1    
   240  121  122 am   BACKBONE|DICT|INTERRES
   241  121  123 2    
   242  122  242 1    
   243  122  243 1    
   244  124  125 1    
   245  124  244 1    
   246  124  245 1    
   247  125  126 1    
   248  126  246 1    
   249  126  247 1    
@<TRIPOS>SUBSTRUCTURE
     1 UNK         1 GROUP             0       ****    0 ROOT    
