@<TRIPOS>MOLECULE
3R540
247   249    1
SMALL
USER_CHARGES


@<TRIPOS>ATOM
      1 CA         -2.2948  -12.5761  -50.5328 C.3       0 UNK        -0.1800 
      2 C          -0.7738  -12.5470  -50.5650 C.2       0 UNK         0.5000 
      3 O          -0.1596  -11.7670  -49.8371 O.2       0 UNK        -0.5000 
      4 N          -0.1629  -13.4031  -51.3937 N.am      1 UNK        -0.5000 
      5 CA          1.2896  -13.5371  -51.5678 C.3       1 UNK         0.1400 
      6 C6          1.6555  -14.3189  -52.8552 C.3       23 UNK        -0.0398 
      7 S7          0.8757  -15.9656  -52.9630 S.3       23 UNK        -0.2404 
      8 C8          2.2880  -17.0732  -52.6721 C.3       23 UNK        -0.0205 
      9 C9          1.8535  -18.3943  -52.0519 C.ar      23 UNK        -0.0193 
     10 C10         1.0424  -19.2864  -52.7625 C.ar      23 UNK        -0.1150 
     11 C11         0.6641  -20.5150  -52.2031 C.ar      23 UNK        -0.0193 
     12 C12         1.1154  -20.8401  -50.9190 C.ar      23 UNK        -0.1150 
     13 C13         1.9349  -19.9624  -50.2024 C.ar      23 UNK        -0.0193 
     14 C14         2.2916  -18.7380  -50.7706 C.ar      23 UNK        -0.1150 
     15 C15         2.4751  -20.3520  -48.8334 C.3       23 UNK        -0.0205 
     16 S16         1.6374  -19.4872  -47.4669 S.3       23 UNK        -0.2404 
     17 C17        -0.0239  -20.2321  -47.5248 C.3       23 UNK        -0.0398 
     18 CA         -0.0918  -21.5953  -46.7982 C.3       11 UNK         0.1400 
     19 N           0.0872  -21.4923  -45.3445 N.am      11 UNK        -0.5000 
     20 C           0.1696  -22.5311  -44.4986 C.2       10 UNK         0.5000 
     21 O           0.0967  -23.7076  -44.8542 O.2       10 UNK        -0.5000 
     22 CA          0.3169  -22.2046  -43.0024 C.3       10 UNK         0.1400 
     23 CB          1.7609  -21.8090  -42.6557 C.3       10 UNK        -0.1800 
     24 N          -0.6017  -21.1411  -42.5993 N.am      10 UNK        -0.5000 
     25 C          -1.9014  -21.3320  -42.3314 C.2       9 UNK         0.5000 
     26 O          -2.4368  -22.4405  -42.3060 O.2       9 UNK        -0.5000 
     27 CA         -2.7588  -20.0771  -42.0674 C.3       9 UNK         0.1400 
     28 CB         -2.7697  -19.7338  -40.5703 C.3       9 UNK        -0.1800 
     29 N          -2.3241  -18.9035  -42.8253 N.am      9 UNK        -0.5000 
     30 C          -2.3205  -18.8169  -44.1624 C.2       8 UNK         0.5000 
     31 O          -2.7351  -19.7029  -44.9080 O.2       8 UNK        -0.5000 
     32 CA         -1.6931  -17.5505  -44.7688 C.3       8 UNK         0.1400 
     33 CB         -2.7247  -16.4170  -44.8290 C.3       8 UNK        -0.1800 
     34 N          -0.4963  -17.0950  -44.0581 N.am      8 UNK        -0.5000 
     35 C           0.6125  -17.8270  -43.8746 C.2       7 UNK         0.5000 
     36 O           0.7405  -18.9782  -44.2818 O.2       7 UNK        -0.5000 
     37 CA          1.7422  -17.1974  -43.0462 C.3       7 UNK         0.1400 
     38 CB          2.5488  -16.1888  -43.8748 C.3       7 UNK        -0.1800 
     39 N           1.2188  -16.5524  -41.8456 N.am      7 UNK        -0.5000 
     40 C           0.7463  -17.2168  -40.7815 C.2       6 UNK         0.5000 
     41 O           0.7836  -18.4418  -40.6648 O.2       6 UNK        -0.5000 
     42 CA          0.0891  -16.3657  -39.6797 C.3       6 UNK         0.1400 
     43 CB          1.1407  -15.8782  -38.6717 C.3       6 UNK        -0.1800 
     44 N          -0.6345  -15.2127  -40.2203 N.am      6 UNK        -0.5000 
     45 C          -1.7463  -15.2986  -40.9646 C.2       5 UNK         0.5000 
     46 O          -2.2995  -16.3615  -41.2468 O.2       5 UNK        -0.5000 
     47 CA         -2.3016  -13.9752  -41.5233 C.3       5 UNK         0.1400 
     48 CB         -3.2020  -13.2862  -40.4872 C.3       5 UNK        -0.1800 
     49 N          -1.2483  -13.0478  -41.9494 N.am      5 UNK        -0.5000 
     50 C          -0.4181  -13.2691  -42.9765 C.2       4 UNK         0.5000 
     51 O          -0.4386  -14.2903  -43.6665 O.2       4 UNK        -0.5000 
     52 CA          0.6399  -12.1970  -43.2538 C.3       4 UNK         0.1400 
     53 CB          1.8996  -12.4502  -42.4046 C.3       4 UNK        -0.1800 
     54 N           0.9716  -12.2220  -44.6758 N.am      4 UNK        -0.5000 
     55 C           1.5588  -11.2285  -45.3518 C.2       3 UNK         0.5000 
     56 O           1.9039  -10.1718  -44.8193 O.2       3 UNK        -0.5000 
     57 CA          1.7669  -11.4006  -46.8738 C.3       3 UNK         0.1400 
     58 CB          3.1617  -10.9185  -47.3247 C.3       3 UNK        -0.1800 
     59 N           1.4857  -12.7347  -47.4200 N.am      3 UNK        -0.5000 
     60 C           2.1445  -13.8818  -47.1877 C.2       2 UNK         0.5000 
     61 O           3.0424  -14.0035  -46.3557 O.2       2 UNK        -0.5000 
     62 CA          1.7463  -15.0959  -48.0556 C.3       2 UNK         0.1400 
     63 CB          0.6507  -15.9116  -47.3544 C.3       2 UNK        -0.1800 
     64 N           1.2795  -14.7184  -49.3927 N.am      2 UNK        -0.5000 
     65 C           2.0178  -14.0842  -50.3176 C.2       1 UNK         0.5000 
     66 O           3.2270  -13.8820  -50.1969 O.2       1 UNK        -0.5000 
     67 C          -1.3786  -22.3406  -47.1912 C.2       11 UNK         0.5000 
     68 O          -1.3463  -23.0953  -48.1586 O.2       11 UNK        -0.5000 
     69 N          -2.4558  -22.1844  -46.4090 N.am      12 UNK        -0.5000 
     70 CA         -3.7383  -22.8726  -46.5791 C.3       12 UNK         0.1400 
     71 CB         -4.7023  -22.3972  -45.4806 C.3       12 UNK        -0.1800 
     72 C          -3.6562  -24.4157  -46.5819 C.2       12 UNK         0.5000 
     73 O          -4.5594  -25.0597  -47.1162 O.2       12 UNK        -0.5000 
     74 N          -2.5918  -24.9826  -45.9959 N.am      13 UNK        -0.5000 
     75 CA         -2.3249  -26.4204  -45.9745 C.3       13 UNK         0.1400 
     76 CB         -1.5345  -26.7553  -44.6990 C.3       13 UNK        -0.1800 
     77 C          -1.5730  -26.9234  -47.2254 C.2       13 UNK         0.5000 
     78 O          -1.4686  -28.1390  -47.4006 O.2       13 UNK        -0.5000 
     79 N          -1.0410  -26.0166  -48.0592 N.am      14 UNK        -0.5000 
     80 CA         -0.3118  -26.3545  -49.2834 C.3       14 UNK         0.1400 
     81 CB          0.5471  -25.1532  -49.7148 C.3       14 UNK        -0.1800 
     82 C          -1.2579  -26.7826  -50.4215 C.2       14 UNK         0.5000 
     83 O          -2.4525  -26.4728  -50.3974 O.2       14 UNK        -0.5000 
     84 N          -0.6947  -27.4761  -51.4188 N.am      15 UNK        -0.5000 
     85 CA         -1.3947  -27.9022  -52.6302 C.3       15 UNK         0.1400 
     86 CB         -0.4786  -28.8278  -53.4457 C.3       15 UNK        -0.1800 
     87 C          -1.8458  -26.6970  -53.4766 C.2       15 UNK         0.5000 
     88 O          -1.0449  -25.7921  -53.7203 O.2       15 UNK        -0.5000 
     89 N          -3.1183  -26.7192  -53.8975 N.am      16 UNK        -0.5000 
     90 CA         -3.8103  -25.7028  -54.7026 C.3       16 UNK         0.1400 
     91 CB         -3.1736  -25.5840  -56.1037 C.3       16 UNK        -0.1800 
     92 C          -3.9641  -24.3276  -54.0139 C.2       16 UNK         0.5000 
     93 O          -4.2499  -23.3402  -54.6945 O.2       16 UNK        -0.5000 
     94 N          -3.7916  -24.2711  -52.6864 N.am      17 UNK        -0.5000 
     95 CA         -3.9534  -23.0584  -51.8910 C.3       17 UNK         0.1400 
     96 CB         -3.2913  -23.2499  -50.5247 C.3       17 UNK        -0.1800 
     97 C          -5.4313  -22.6786  -51.7245 C.2       17 UNK         0.5000 
     98 O          -6.2494  -23.5379  -51.3868 O.2       17 UNK        -0.5000 
     99 N          -5.7334  -21.3910  -51.9201 N.am      18 UNK        -0.5000 
    100 CA        -7.0152  -20.7914  -51.5573 C.3       18 UNK         0.1400 
    101 CB        -7.2651  -19.5537  -52.4339 C.3       18 UNK        -0.1800 
    102 C         -7.0201  -20.4196  -50.0638 C.2       18 UNK         0.5000 
    103 O         -8.0122  -20.6687  -49.3792 O.2       18 UNK        -0.5000 
    104 N         -5.8912  -19.8639  -49.6008 N.am      19 UNK        -0.5000 
    105 CA        -5.5700  -19.4609  -48.2332 C.3       19 UNK         0.1400 
    106 CB        -6.6645  -18.5656  -47.6007 C.3       19 UNK        -0.1800 
    107 C         -4.2023  -18.7648  -48.3003 C.2       19 UNK         0.5000 
    108 O         -3.1788  -19.4437  -48.3530 O.2       19 UNK        -0.5000 
    109 N         -4.2140  -17.4262  -48.3654 N.am      20 UNK        -0.5000 
    110 CA        -3.0372  -16.5574  -48.4567 C.3       20 UNK         0.1400 
    111 CB        -3.4593  -15.1241  -48.0930 C.3       20 UNK        -0.1800 
    112 C         -2.3375  -16.5680  -49.8294 C.2       20 UNK         0.5000 
    113 O         -1.3012  -15.9196  -49.9721 O.2       20 UNK        -0.5000 
    114 N         -2.9142  -17.2613  -50.8149 N.am      21 UNK        -0.5000 
    115 CA        -2.3717  -17.4198  -52.1545 C.3       21 UNK         0.1400 
    116 CB        -2.7832  -16.2187  -53.0261 C.3       21 UNK        -0.1800 
    117 C         -2.8529  -18.7415  -52.7614 C.2       21 UNK         0.5000 
    118 O         -3.7725  -19.3746  -52.2306 O.2       21 UNK        -0.5000 
    119 N         -2.2149  -19.1226  -53.8713 N.am      22 UNK        -0.5000 
    120 CA        -2.6055  -20.2516  -54.7206 C.3       22 UNK         0.1400 
    121 C         -3.8253  -19.8868  -55.6116 C.2       22 UNK         0.5000 
    122 N         -4.7233  -20.8304  -55.8530 N.am      22 UNK        -0.7600 
    123 O         -3.9438  -18.7714  -56.1143 O.2       22 UNK        -0.5000 
    124 C124       -1.4216  -20.7560  -55.5851 C.3       23 UNK        -0.0398 
    125 S125        0.0143  -21.5547  -54.7589 S.3       23 UNK        -0.2404 
    126 C126       -0.2331  -21.5095  -52.9435 C.3       23 UNK        -0.0205 
    127 H127       -2.6975  -11.7417  -51.1068 H         1 UNK         0.0600 
    128 H128       -2.6523  -12.4877  -49.5072 H         1 UNK         0.0600 
    129 H129       -2.6890  -13.5030  -50.9492 H         1 UNK         0.0600 
    130 H130       -0.7156  -14.0717  -51.9111 H         1 UNK         0.3000 
    131 H131        1.6750  -12.5241  -51.7028 H         1 UNK         0.0600 
    132 H132        1.3223  -13.7478  -53.7227 H         1 UNK         0.0800 
    133 H133        2.7379  -14.4031  -52.9677 H         1 UNK         0.0800 
    134 H134        3.0132  -16.5778  -52.0248 H         1 UNK         0.0800 
    135 H135        2.7970  -17.2637  -53.6178 H         1 UNK         0.0800 
    136 H136        0.7105  -19.0165  -53.7540 H         1 UNK         0.1150 
    137 H137        0.8351  -21.7865  -50.4771 H         1 UNK         0.1150 
    138 H138        2.9244  -18.0595  -50.2155 H         1 UNK         0.1150 
    139 H139        2.4049  -21.4301  -48.6838 H         1 UNK         0.0800 
    140 H140        3.5389  -20.1141  -48.7915 H         1 UNK         0.0800 
    141 H141       -0.3278  -20.3212  -48.5689 H         1 UNK         0.0800 
    142 H142       -0.7310  -19.5348  -47.0774 H         1 UNK         0.0800 
    143 H143        0.7313  -22.2117  -47.1644 H         1 UNK         0.0600 
    144 H144        0.2140  -20.5520  -44.9734 H         1 UNK         0.3000 
    145 H145        0.0789  -23.1087  -42.4376 H         1 UNK         0.0600 
    146 H146        1.8651  -21.5941  -41.5920 H         1 UNK         0.0600 
    147 H147        2.4515  -22.6187  -42.8941 H         1 UNK         0.0600 
    148 H148        2.0900  -20.9284  -43.2068 H         1 UNK         0.0600 
    149 H149       -0.2446  -20.1954  -42.6391 H         1 UNK         0.3000 
    150 H150       -3.7814  -20.3082  -42.3730 H         1 UNK         0.0600 
    151 H151       -3.1149  -20.5812  -39.9767 H         1 UNK         0.0600 
    152 H152       -3.4372  -18.8972  -40.3624 H         1 UNK         0.0600 
    153 H153       -1.7752  -19.4645  -40.2129 H         1 UNK         0.0600 
    154 H154       -2.0221  -18.0977  -42.2872 H         1 UNK         0.3000 
    155 H155       -1.3887  -17.7877  -45.7875 H         1 UNK         0.0600 
    156 H156       -3.0577  -16.1230  -43.8346 H         1 UNK         0.0600 
    157 H157       -3.6086  -16.7266  -45.3877 H         1 UNK         0.0600 
    158 H158       -2.3140  -15.5347  -45.3197 H         1 UNK         0.0600 
    159 H159       -0.5067  -16.1313  -43.7330 H         1 UNK         0.3000 
    160 H160        2.4198  -17.9983  -42.7420 H         1 UNK         0.0600 
    161 H161        1.9362  -15.3497  -44.2028 H         1 UNK         0.0600 
    162 H162        2.9614  -16.6600  -44.7679 H         1 UNK         0.0600 
    163 H163        3.3861  -15.7879  -43.3038 H         1 UNK         0.0600 
    164 H164        1.1149  -15.5501  -41.8746 H         1 UNK         0.3000 
    165 H165       -0.6257  -17.0002  -39.1510 H         1 UNK         0.0600 
    166 H166        0.6759  -15.3345  -37.8491 H         1 UNK         0.0600 
    167 H167        1.6841  -16.7189  -38.2383 H         1 UNK         0.0600 
    168 H168        1.8736  -15.2193  -39.1392 H         1 UNK         0.0600 
    169 H169       -0.2488  -14.2996  -40.0311 H         1 UNK         0.3000 
    170 H170       -2.9127  -14.2132  -42.3960 H         1 UNK         0.0600 
    171 H171       -4.0065  -13.9499  -40.1671 H         1 UNK         0.0600 
    172 H172       -2.6440  -12.9935  -39.5969 H         1 UNK         0.0600 
    173 H173       -3.6668  -12.3916  -40.9019 H         1 UNK         0.0600 
    174 H174       -1.1660  -12.1881  -41.4257 H         1 UNK         0.3000 
    175 H175        0.2172  -11.2220  -43.0023 H         1 UNK         0.0600 
    176 H176        2.3736  -13.3978  -42.6613 H         1 UNK         0.0600 
    177 H177        2.6387  -11.6617  -42.5462 H         1 UNK         0.0600 
    178 H178        1.6600  -12.4779  -41.3410 H         1 UNK         0.0600 
    179 H179        0.6883  -13.0625  -45.1624 H         1 UNK         0.3000 
    180 H180        1.0340  -10.7413  -47.3408 H         1 UNK         0.0600 
    181 H181        3.9601  -11.4889  -46.8493 H         1 UNK         0.0600 
    182 H182        3.3167   -9.8688  -47.0730 H         1 UNK         0.0600 
    183 H183        3.2799  -11.0116  -48.4045 H         1 UNK         0.0600 
    184 H184        0.7801  -12.7431  -48.1478 H         1 UNK         0.3000 
    185 H185        2.6270  -15.7302  -48.1743 H         1 UNK         0.0600 
    186 H186        0.9988  -16.2766  -46.3897 H         1 UNK         0.0600 
    187 H187       -0.2475  -15.3187  -47.1790 H         1 UNK         0.0600 
    188 H188        0.3688  -16.7832  -47.9449 H         1 UNK         0.0600 
    189 H189        0.3094  -14.9317  -49.6132 H         1 UNK         0.3000 
    190 H190       -2.4173  -21.4812  -45.6768 H         1 UNK         0.3000 
    191 H191       -4.1422  -22.5687  -47.5464 H         1 UNK         0.0600 
    192 H192       -4.3329  -22.6557  -44.4874 H         1 UNK         0.0600 
    193 H193       -5.6859  -22.8544  -45.5962 H         1 UNK         0.0600 
    194 H194       -4.8422  -21.3171  -45.5117 H         1 UNK         0.0600 
    195 H195       -1.8752  -24.3871  -45.5973 H         1 UNK         0.3000 
    196 H196       -3.2736  -26.9593  -45.9279 H         1 UNK         0.0600 
    197 H197       -1.3953  -27.8322  -44.5973 H         1 UNK         0.0600 
    198 H198       -2.0571  -26.4102  -43.8066 H         1 UNK         0.0600 
    199 H199       -0.5445  -26.2983  -44.7068 H         1 UNK         0.0600 
    200 H200       -1.2221  -25.0291  -47.9064 H         1 UNK         0.3000 
    201 H201        0.3586  -27.1879  -49.0620 H         1 UNK         0.0600 
    202 H202        1.1625  -24.7875  -48.8923 H         1 UNK         0.0600 
    203 H203       -0.0647  -24.3244  -50.0703 H         1 UNK         0.0600 
    204 H204        1.2204  -25.4263  -50.5279 H         1 UNK         0.0600 
    205 H205        0.2971  -27.6613  -51.3882 H         1 UNK         0.3000 
    206 H206       -2.2738  -28.4739  -52.3249 H         1 UNK         0.0600 
    207 H207       -0.9824  -29.1790  -54.3472 H         1 UNK         0.0600 
    208 H208        0.4342  -28.3183  -53.7576 H         1 UNK         0.0600 
    209 H209       -0.1924  -29.7083  -52.8702 H         1 UNK         0.0600 
    210 H210       -3.6921  -27.5049  -53.6234 H         1 UNK         0.3000 
    211 H211       -4.8264  -26.0752  -54.8396 H         1 UNK         0.0600 
    212 H212       -2.1826  -25.1312  -56.0617 H         1 UNK         0.0600 
    213 H213       -3.7850  -24.9646  -56.7610 H         1 UNK         0.0600 
    214 H214       -3.0779  -26.5603  -56.5787 H         1 UNK         0.0600 
    215 H215       -3.5770  -25.1195  -52.1800 H         1 UNK         0.3000 
    216 H216       -3.4314  -22.2446  -52.3869 H         1 UNK         0.0600 
    217 H217       -3.3440  -22.3334  -49.9353 H         1 UNK         0.0600 
    218 H218       -2.2376  -23.5030  -50.6380 H         1 UNK         0.0600 
    219 H219       -3.7671  -24.0434  -49.9464 H         1 UNK         0.0600 
    220 H220       -4.9969  -20.7401  -52.1865 H         1 UNK         0.3000 
    221 H221       -7.8214  -21.5056  -51.7392 H         1 UNK         0.0600 
    222 H222       -6.4992  -18.7904  -52.2902 H         1 UNK         0.0600 
    223 H223       -7.2763  -19.8178  -53.4918 H         1 UNK         0.0600 
    224 H224       -8.2292  -19.1000  -52.2005 H         1 UNK         0.0600 
    225 H225       -5.1290  -19.7540  -50.2572 H         1 UNK         0.3000 
    226 H226       -5.4547  -20.3598  -47.6269 H         1 UNK         0.0600 
    227 H227       -7.5536  -19.1433  -47.3493 H         1 UNK         0.0600 
    228 H228       -6.3177  -18.1189  -46.6674 H         1 UNK         0.0600 
    229 H229       -6.9731  -17.7591  -48.2671 H         1 UNK         0.0600 
    230 H230       -5.1090  -16.9587  -48.3504 H         1 UNK         0.3000 
    231 H231       -2.3043  -16.9000  -47.7263 H         1 UNK         0.0600 
    232 H232       -3.9849  -15.0867  -47.1395 H         1 UNK         0.0600 
    233 H233       -4.1177  -14.6963  -48.8502 H         1 UNK         0.0600 
    234 H234       -2.5892  -14.4721  -48.0066 H         1 UNK         0.0600 
    235 H235       -3.7410  -17.8072  -50.6232 H         1 UNK         0.3000 
    236 H236       -1.2862  -17.4821  -52.0834 H         1 UNK         0.0600 
    237 H237       -2.3827  -16.3059  -54.0366 H         1 UNK         0.0600 
    238 H238       -3.8678  -16.1373  -53.1074 H         1 UNK         0.0600 
    239 H239       -2.4070  -15.2836  -52.6139 H         1 UNK         0.0600 
    240 H240       -1.5003  -18.5197  -54.2499 H         1 UNK         0.3000 
    241 H241       -2.9238  -21.0736  -54.0880 H         1 UNK         0.0600 
    242 H242       -5.5152  -20.6230  -56.4400 H         1 UNK         0.3800 
    243 H243       -4.6186  -21.7670  -55.4619 H         1 UNK         0.3800 
    244 H244       -1.0352  -19.9364  -56.1931 H         1 UNK         0.0800 
    245 H245       -1.7889  -21.4946  -56.3003 H         1 UNK         0.0800 
    246 H246       -0.0153  -22.5162  -52.5824 H         1 UNK         0.0800 
    247 H247       -1.2667  -21.3304  -52.6644 H         1 UNK         0.0800 
@<TRIPOS>BOND
     1    1    2 1    
     2    1  127 1    
     3    1  128 1    
     4    1  129 1    
     5    2    3 2    
     6    2    4 am   BACKBONE|DICT|INTERRES
     7    4    5 1    
     8    4  130 1    
     9    5    6 1    
    10    5   65 1    
    11    5  131 1    
    12    6    7 1    
    13    6  132 1    
    14    6  133 1    
    15    7    8 1    
    16    8    9 1    
    17    8  134 1    
    18    8  135 1    
    19    9   10 ar   
    20    9   14 ar   
    21   10   11 ar   
    22   10  136 1    
    23   11   12 ar   
    24   11  126 1    
    25   12   13 ar   
    26   12  137 1    
    27   13   14 ar   
    28   13   15 1    
    29   14  138 1    
    30   15   16 1    
    31   15  139 1    
    32   15  140 1    
    33   16   17 1    
    34   17   18 1    
    35   17  141 1    
    36   17  142 1    
    37   18   19 1    
    38   18   67 1    
    39   18  143 1    
    40   19   20 am   BACKBONE|DICT|INTERRES
    41   19  144 1    
    42   20   21 2    
    43   20   22 1    
    44   22   23 1    
    45   22   24 1    
    46   22  145 1    
    47   23  146 1    
    48   23  147 1    
    49   23  148 1    
    50   24   25 am   BACKBONE|DICT|INTERRES
    51   24  149 1    
    52   25   26 2    
    53   25   27 1    
    54   27   28 1    
    55   27   29 1    
    56   27  150 1    
    57   28  151 1    
    58   28  152 1    
    59   28  153 1    
    60   29   30 am   BACKBONE|DICT|INTERRES
    61   29  154 1    
    62   30   31 2    
    63   30   32 1    
    64   32   33 1    
    65   32   34 1    
    66   32  155 1    
    67   33  156 1    
    68   33  157 1    
    69   33  158 1    
    70   34   35 am   BACKBONE|DICT|INTERRES
    71   34  159 1    
    72   35   36 2    
    73   35   37 1    
    74   37   38 1    
    75   37   39 1    
    76   37  160 1    
    77   38  161 1    
    78   38  162 1    
    79   38  163 1    
    80   39   40 am   BACKBONE|DICT|INTERRES
    81   39  164 1    
    82   40   41 2    
    83   40   42 1    
    84   42   43 1    
    85   42   44 1    
    86   42  165 1    
    87   43  166 1    
    88   43  167 1    
    89   43  168 1    
    90   44   45 am   BACKBONE|DICT|INTERRES
    91   44  169 1    
    92   45   46 2    
    93   45   47 1    
    94   47   48 1    
    95   47   49 1    
    96   47  170 1    
    97   48  171 1    
    98   48  172 1    
    99   48  173 1    
   100   49   50 am   BACKBONE|DICT|INTERRES
   101   49  174 1    
   102   50   51 2    
   103   50   52 1    
   104   52   53 1    
   105   52   54 1    
   106   52  175 1    
   107   53  176 1    
   108   53  177 1    
   109   53  178 1    
   110   54   55 am   BACKBONE|DICT|INTERRES
   111   54  179 1    
   112   55   56 2    
   113   55   57 1    
   114   57   58 1    
   115   57   59 1    
   116   57  180 1    
   117   58  181 1    
   118   58  182 1    
   119   58  183 1    
   120   59   60 am   BACKBONE|DICT|INTERRES
   121   59  184 1    
   122   60   61 2    
   123   60   62 1    
   124   62   63 1    
   125   62   64 1    
   126   62  185 1    
   127   63  186 1    
   128   63  187 1    
   129   63  188 1    
   130   64   65 am   BACKBONE|DICT|INTERRES
   131   64  189 1    
   132   65   66 2    
   133   67   68 2    
   134   67   69 am   BACKBONE|DICT|INTERRES
   135   69   70 1    
   136   69  190 1    
   137   70   71 1    
   138   70   72 1    
   139   70  191 1    
   140   71  192 1    
   141   71  193 1    
   142   71  194 1    
   143   72   73 2    
   144   72   74 am   BACKBONE|DICT|INTERRES
   145   74   75 1    
   146   74  195 1    
   147   75   76 1    
   148   75   77 1    
   149   75  196 1    
   150   76  197 1    
   151   76  198 1    
   152   76  199 1    
   153   77   78 2    
   154   77   79 am   BACKBONE|DICT|INTERRES
   155   79   80 1    
   156   79  200 1    
   157   80   81 1    
   158   80   82 1    
   159   80  201 1    
   160   81  202 1    
   161   81  203 1    
   162   81  204 1    
   163   82   83 2    
   164   82   84 am   BACKBONE|DICT|INTERRES
   165   84   85 1    
   166   84  205 1    
   167   85   86 1    
   168   85   87 1    
   169   85  206 1    
   170   86  207 1    
   171   86  208 1    
   172   86  209 1    
   173   87   88 2    
   174   87   89 am   BACKBONE|DICT|INTERRES
   175   89   90 1    
   176   89  210 1    
   177   90   91 1    
   178   90   92 1    
   179   90  211 1    
   180   91  212 1    
   181   91  213 1    
   182   91  214 1    
   183   92   93 2    
   184   92   94 am   BACKBONE|DICT|INTERRES
   185   94   95 1    
   186   94  215 1    
   187   95   96 1    
   188   95   97 1    
   189   95  216 1    
   190   96  217 1    
   191   96  218 1    
   192   96  219 1    
   193   97   98 2    
   194   97   99 am   BACKBONE|DICT|INTERRES
   195   99  100 1    
   196   99  220 1    
   197  100  101 1    
   198  100  102 1    
   199  100  221 1    
   200  101  222 1    
   201  101  223 1    
   202  101  224 1    
   203  102  103 2    
   204  102  104 am   BACKBONE|DICT|INTERRES
   205  104  105 1    
   206  104  225 1    
   207  105  106 1    
   208  105  107 1    
   209  105  226 1    
   210  106  227 1    
   211  106  228 1    
   212  106  229 1    
   213  107  108 2    
   214  107  109 am   BACKBONE|DICT|INTERRES
   215  109  110 1    
   216  109  230 1    
   217  110  111 1    
   218  110  112 1    
   219  110  231 1    
   220  111  232 1    
   221  111  233 1    
   222  111  234 1    
   223  112  113 2    
   224  112  114 am   BACKBONE|DICT|INTERRES
   225  114  115 1    
   226  114  235 1    
   227  115  116 1    
   228  115  117 1    
   229  115  236 1    
   230  116  237 1    
   231  116  238 1    
   232  116  239 1    
   233  117  118 2    
   234  117  119 am   BACKBONE|DICT|INTERRES
   235  119  120 1    
   236  119  240 1    
   237  120  121 1    
   238  120  124 1    
   239  120  241 1    
   240  121  122 am   BACKBONE|DICT|INTERRES
   241  121  123 2    
   242  122  242 1    
   243  122  243 1    
   244  124  125 1    
   245  124  244 1    
   246  124  245 1    
   247  125  126 1    
   248  126  246 1    
   249  126  247 1    
@<TRIPOS>SUBSTRUCTURE
     1 UNK         1 GROUP             0       ****    0 ROOT    
