@<TRIPOS>MOLECULE
3R540
247   249    1
SMALL
USER_CHARGES


@<TRIPOS>ATOM
      1 CA         -2.2627   -9.5580  -46.9533 C.3       0 UNK        -0.1800 
      2 C          -2.0378  -11.0463  -46.7330 C.2       0 UNK         0.5000 
      3 O          -0.9043  -11.5190  -46.8148 O.2       0 UNK        -0.5000 
      4 N          -3.1134  -11.7831  -46.4286 N.am      1 UNK        -0.5000 
      5 CA         -3.1467  -13.2478  -46.2851 C.3       1 UNK         0.1400 
      6 C6         -4.5933  -13.7889  -46.2012 C.3       23 UNK        -0.0398 
      7 S7         -5.6330  -13.2831  -47.6136 S.3       23 UNK        -0.2404 
      8 C8         -7.2308  -14.0212  -47.1485 C.3       23 UNK        -0.0205 
      9 C9         -7.1906  -15.5397  -47.2213 C.ar      23 UNK        -0.0193 
     10 C10        -7.4242  -16.1920  -48.4348 C.ar      23 UNK        -0.1150 
     11 C11        -7.3766  -17.5868  -48.5125 C.ar      23 UNK        -0.0193 
     12 C12        -7.0804  -18.3289  -47.3645 C.ar      23 UNK        -0.1150 
     13 C13        -6.8486  -17.6874  -46.1434 C.ar      23 UNK        -0.0193 
     14 C14        -6.9215  -16.2937  -46.0758 C.ar      23 UNK        -0.1150 
     15 C15        -6.5675  -18.5056  -44.8910 C.3       23 UNK        -0.0205 
     16 S16        -4.9982  -18.0791  -44.0578 S.3       23 UNK        -0.2404 
     17 C17        -3.7266  -18.2477  -45.3674 C.3       23 UNK        -0.0398 
     18 CA         -3.5160  -19.6281  -46.0599 C.3       11 UNK         0.1400 
     19 N          -2.1634  -19.7478  -46.6140 N.am      11 UNK        -0.5000 
     20 C          -1.7546  -20.6992  -47.4639 C.2       10 UNK         0.5000 
     21 O          -2.4979  -21.5528  -47.9460 O.2       10 UNK        -0.5000 
     22 CA         -0.2527  -20.7373  -47.7999 C.3       10 UNK         0.1400 
     23 CB          0.0968  -19.7317  -48.9065 C.3       10 UNK        -0.1800 
     24 N           0.5941  -20.5063  -46.6283 N.am      10 UNK        -0.5000 
     25 C           0.6401  -21.3175  -45.5614 C.2       9 UNK         0.5000 
     26 O           0.0069  -22.3688  -45.4789 O.2       9 UNK        -0.5000 
     27 CA          1.5023  -20.8680  -44.3695 C.3       9 UNK         0.1400 
     28 CB          2.9824  -21.1936  -44.6175 C.3       9 UNK        -0.1800 
     29 N           1.3499  -19.4461  -44.0626 N.am      9 UNK        -0.5000 
     30 C           0.2081  -18.8688  -43.6602 C.2       8 UNK         0.5000 
     31 O          -0.8369  -19.4864  -43.4580 O.2       8 UNK        -0.5000 
     32 CA          0.2188  -17.3354  -43.5168 C.3       8 UNK         0.1400 
     33 CB          0.8757  -16.9080  -42.1958 C.3       8 UNK        -0.1800 
     34 N           0.8885  -16.6733  -44.6359 N.am      8 UNK        -0.5000 
     35 C           0.5011  -16.7702  -45.9168 C.2       7 UNK         0.5000 
     36 O          -0.4675  -17.4262  -46.2982 O.2       7 UNK        -0.5000 
     37 CA          1.3951  -16.0726  -46.9533 C.3       7 UNK         0.1400 
     38 CB          1.1489  -14.5547  -46.9686 C.3       7 UNK        -0.1800 
     39 N           2.8106  -16.3524  -46.7084 N.am      7 UNK        -0.5000 
     40 C           3.3760  -17.5596  -46.8610 C.2       6 UNK         0.5000 
     41 O           2.7728  -18.5516  -47.2692 O.2       6 UNK        -0.5000 
     42 CA          4.8536  -17.6893  -46.4487 C.3       6 UNK         0.1400 
     43 CB          5.7765  -17.2143  -47.5808 C.3       6 UNK        -0.1800 
     44 N           5.1640  -16.9477  -45.2260 N.am      6 UNK        -0.5000 
     45 C           4.6718  -17.2415  -44.0138 C.2       5 UNK         0.5000 
     46 O           3.9299  -18.1960  -43.7897 O.2       5 UNK        -0.5000 
     47 CA          5.0263  -16.2740  -42.8698 C.3       5 UNK         0.1400 
     48 CB          6.3560  -16.6755  -42.2147 C.3       5 UNK        -0.1800 
     49 N           5.0971  -14.8750  -43.3007 N.am      5 UNK        -0.5000 
     50 C           4.0690  -14.1878  -43.8131 C.2       4 UNK         0.5000 
     51 O           2.9419  -14.6636  -43.9878 O.2       4 UNK        -0.5000 
     52 CA          4.3625  -12.7469  -44.2468 C.3       4 UNK         0.1400 
     53 CB          5.0470  -12.7175  -45.6236 C.3       4 UNK        -0.1800 
     54 N           3.0954  -12.0372  -44.3245 N.am      4 UNK        -0.5000 
     55 C           2.8789  -10.7618  -43.9921 C.2       3 UNK         0.5000 
     56 O           3.7701   -9.9816  -43.6539 O.2       3 UNK        -0.5000 
     57 CA          1.4169  -10.2737  -44.0397 C.3       3 UNK         0.1400 
     58 CB          1.1893   -9.3910  -45.2760 C.3       3 UNK        -0.1800 
     59 N           0.4372  -11.3683  -44.0383 N.am      3 UNK        -0.5000 
     60 C           0.1402  -12.1145  -42.9608 C.2       2 UNK         0.5000 
     61 O           0.6437  -11.9257  -41.8528 O.2       2 UNK        -0.5000 
     62 CA         -0.8823  -13.2508  -43.1517 C.3       2 UNK         0.1400 
     63 CB         -1.6526  -13.6014  -41.8653 C.3       2 UNK        -0.1800 
     64 N          -1.8227  -12.9249  -44.2208 N.am      2 UNK        -0.5000 
     65 C          -2.3070  -13.7997  -45.1091 C.2       1 UNK         0.5000 
     66 O          -2.1127  -15.0104  -45.0329 O.2       1 UNK        -0.5000 
     67 C          -3.8621  -20.8587  -45.1916 C.2       11 UNK         0.5000 
     68 O          -4.9139  -21.4638  -45.4004 O.2       11 UNK        -0.5000 
     69 N          -2.9591  -21.2388  -44.2751 N.am      12 UNK        -0.5000 
     70 CA         -3.1093  -22.3959  -43.3886 C.3       12 UNK         0.1400 
     71 CB         -1.9576  -22.4204  -42.3727 C.3       12 UNK        -0.1800 
     72 C          -3.2033  -23.7380  -44.1398 C.2       12 UNK         0.5000 
     73 O          -4.0238  -24.5805  -43.7734 O.2       12 UNK        -0.5000 
     74 N          -2.3823  -23.9049  -45.1858 N.am      13 UNK        -0.5000 
     75 CA         -2.4099  -25.0592  -46.0851 C.3       13 UNK         0.1400 
     76 CB         -1.1293  -25.0679  -46.9349 C.3       13 UNK        -0.1800 
     77 C          -3.6474  -25.0761  -47.0010 C.2       13 UNK         0.5000 
     78 O          -4.0960  -26.1550  -47.3898 O.2       13 UNK        -0.5000 
     79 N          -4.1436  -23.8833  -47.3599 N.am      14 UNK        -0.5000 
     80 CA         -5.2592  -23.5537  -48.2557 C.3       14 UNK         0.1400 
     81 CB         -6.5853  -24.1622  -47.7651 C.3       14 UNK        -0.1800 
     82 C          -4.9871  -23.8955  -49.7324 C.2       14 UNK         0.5000 
     83 O          -5.2098  -23.0543  -50.6030 O.2       14 UNK        -0.5000 
     84 N          -4.4757  -25.1056  -49.9880 N.am      15 UNK        -0.5000 
     85 CA         -4.0220  -25.5732  -51.2966 C.3       15 UNK         0.1400 
     86 CB         -3.8502  -27.0986  -51.2529 C.3       15 UNK        -0.1800 
     87 C          -2.7110  -24.9049  -51.7470 C.2       15 UNK         0.5000 
     88 O          -2.4448  -24.8706  -52.9473 O.2       15 UNK        -0.5000 
     89 N          -1.9179  -24.3979  -50.7885 N.am      16 UNK        -0.5000 
     90 CA         -0.6676  -23.6513  -50.9749 C.3       16 UNK         0.1400 
     91 CB         -0.9821  -22.2457  -51.5246 C.3       16 UNK        -0.1800 
     92 C           0.3594  -24.4141  -51.8376 C.2       16 UNK         0.5000 
     93 O           0.8177  -23.8976  -52.8563 O.2       16 UNK        -0.5000 
     94 N           0.6424  -25.6662  -51.4469 N.am      17 UNK        -0.5000 
     95 CA          1.5010  -26.6279  -52.1570 C.3       17 UNK         0.1400 
     96 CB          2.9731  -26.1643  -52.1463 C.3       17 UNK        -0.1800 
     97 C           0.9832  -26.9639  -53.5753 C.2       17 UNK         0.5000 
     98 O           1.7743  -27.1635  -54.4980 O.2       17 UNK        -0.5000 
     99 N          -0.3508  -27.0013  -53.7060 N.am      18 UNK        -0.5000 
    100 CA        -1.1473  -27.2307  -54.9160 C.3       18 UNK         0.1400 
    101 CB        -0.8201  -28.5941  -55.5605 C.3       18 UNK        -0.1800 
    102 C         -1.1191  -26.0682  -55.9327 C.2       18 UNK         0.5000 
    103 O         -1.6039  -26.2426  -57.0522 O.2       18 UNK        -0.5000 
    104 N         -0.5983  -24.8960  -55.5390 N.am      19 UNK        -0.5000 
    105 CA        -0.6331  -23.6759  -56.3495 C.3       19 UNK         0.1400 
    106 CB         0.4762  -22.7198  -55.8850 C.3       19 UNK        -0.1800 
    107 C         -2.0002  -22.9669  -56.2919 C.2       19 UNK         0.5000 
    108 O         -2.3230  -22.2143  -57.2112 O.2       19 UNK        -0.5000 
    109 N         -2.7611  -23.1982  -55.2089 N.am      20 UNK        -0.5000 
    110 CA        -4.0782  -22.6301  -54.8903 C.3       20 UNK         0.1400 
    111 CB        -5.1381  -23.1102  -55.9026 C.3       20 UNK        -0.1800 
    112 C         -4.0789  -21.0953  -54.7076 C.2       20 UNK         0.5000 
    113 O         -5.1344  -20.4674  -54.8026 O.2       20 UNK        -0.5000 
    114 N         -2.8987  -20.5161  -54.4453 N.am      21 UNK        -0.5000 
    115 CA        -2.6886  -19.0768  -54.2835 C.3       21 UNK         0.1400 
    116 CB        -1.1856  -18.7809  -54.4085 C.3       21 UNK        -0.1800 
    117 C         -3.2358  -18.5294  -52.9523 C.2       21 UNK         0.5000 
    118 O         -3.6665  -17.3778  -52.9112 O.2       21 UNK        -0.5000 
    119 N         -3.1805  -19.3666  -51.9061 N.am      22 UNK        -0.5000 
    120 CA        -3.6420  -19.1437  -50.5220 C.3       22 UNK         0.1400 
    121 C         -3.1215  -17.8702  -49.7827 C.2       22 UNK         0.5000 
    122 N         -2.0557  -17.2263  -50.2418 N.am      22 UNK        -0.7600 
    123 O         -3.6574  -17.4842  -48.7506 O.2       22 UNK        -0.5000 
    124 C124       -5.1560  -19.4359  -50.3277 C.3       23 UNK        -0.0398 
    125 S125       -6.3025  -18.1902  -51.0107 S.3       23 UNK        -0.2404 
    126 C126       -7.6845  -18.2854  -49.8298 C.3       23 UNK        -0.0205 
    127 H127       -1.5762   -9.1786  -47.7103 H         1 UNK         0.0600 
    128 H128       -2.0917   -9.0091  -46.0278 H         1 UNK         0.0600 
    129 H129       -3.2801   -9.3557  -47.2889 H         1 UNK         0.0600 
    130 H130       -4.0148  -11.3301  -46.3720 H         1 UNK         0.3000 
    131 H131       -2.6958  -13.6604  -47.1903 H         1 UNK         0.0600 
    132 H132       -4.5736  -14.8797  -46.1758 H         1 UNK         0.0800 
    133 H133       -5.0737  -13.4628  -45.2769 H         1 UNK         0.0800 
    134 H134       -8.0030  -13.6427  -47.8200 H         1 UNK         0.0800 
    135 H135       -7.5110  -13.6913  -46.1469 H         1 UNK         0.0800 
    136 H136       -7.6416  -15.6138  -49.3219 H         1 UNK         0.1150 
    137 H137       -7.0462  -19.4080  -47.4184 H         1 UNK         0.1150 
    138 H138       -6.7519  -15.7962  -45.1312 H         1 UNK         0.1150 
    139 H139       -7.3827  -18.3418  -44.1852 H         1 UNK         0.0800 
    140 H140       -6.5851  -19.5708  -45.1158 H         1 UNK         0.0800 
    141 H141       -2.7931  -17.9415  -44.8933 H         1 UNK         0.0800 
    142 H142       -3.9140  -17.4854  -46.1242 H         1 UNK         0.0800 
    143 H143       -4.2045  -19.6566  -46.9072 H         1 UNK         0.0600 
    144 H144       -1.4923  -19.0397  -46.3253 H         1 UNK         0.3000 
    145 H145       -0.0290  -21.7376  -48.1755 H         1 UNK         0.0600 
    146 H146        1.1338  -19.8409  -49.2237 H         1 UNK         0.0600 
    147 H147       -0.5291  -19.8778  -49.7861 H         1 UNK         0.0600 
    148 H148       -0.0437  -18.7028  -48.5768 H         1 UNK         0.0600 
    149 H149        1.1732  -19.6732  -46.6422 H         1 UNK         0.3000 
    150 H150        1.1757  -21.4318  -43.4936 H         1 UNK         0.0600 
    151 H151        3.1174  -22.2517  -44.8452 H         1 UNK         0.0600 
    152 H152        3.5867  -20.9712  -43.7380 H         1 UNK         0.0600 
    153 H153        3.3860  -20.6225  -45.4539 H         1 UNK         0.0600 
    154 H154        2.1844  -18.8729  -44.1542 H         1 UNK         0.3000 
    155 H155       -0.8184  -16.9940  -43.5067 H         1 UNK         0.0600 
    156 H156        1.9162  -17.2277  -42.1414 H         1 UNK         0.0600 
    157 H157        0.3534  -17.3442  -41.3436 H         1 UNK         0.0600 
    158 H158        0.8532  -15.8254  -42.0723 H         1 UNK         0.0600 
    159 H159        1.6963  -16.0995  -44.4131 H         1 UNK         0.3000 
    160 H160        1.1375  -16.4659  -47.9391 H         1 UNK         0.0600 
    161 H161        1.3486  -14.0958  -46.0011 H         1 UNK         0.0600 
    162 H162        0.1104  -14.3351  -47.2199 H         1 UNK         0.0600 
    163 H163        1.7738  -14.0587  -47.7112 H         1 UNK         0.0600 
    164 H164        3.3609  -15.6053  -46.3135 H         1 UNK         0.3000 
    165 H165        5.0556  -18.7466  -46.2640 H         1 UNK         0.0600 
    166 H166        6.8246  -17.3768  -47.3291 H         1 UNK         0.0600 
    167 H167        5.5762  -17.7623  -48.5026 H         1 UNK         0.0600 
    168 H168        5.6424  -16.1530  -47.7938 H         1 UNK         0.0600 
    169 H169        5.7693  -16.1457  -45.3178 H         1 UNK         0.3000 
    170 H170        4.2390  -16.3508  -42.1173 H         1 UNK         0.0600 
    171 H171        6.3230  -17.7091  -41.8672 H         1 UNK         0.0600 
    172 H172        7.1914  -16.5896  -42.9106 H         1 UNK         0.0600 
    173 H173        6.5738  -16.0502  -41.3486 H         1 UNK         0.0600 
    174 H174        5.9910  -14.4168  -43.1952 H         1 UNK         0.3000 
    175 H175        5.0090  -12.2841  -43.4982 H         1 UNK         0.0600 
    176 H176        4.4293  -13.1866  -46.3907 H         1 UNK         0.0600 
    177 H177        5.2484  -11.6936  -45.9393 H         1 UNK         0.0600 
    178 H178        6.0025  -13.2427  -45.6013 H         1 UNK         0.0600 
    179 H179        2.3005  -12.6303  -44.5198 H         1 UNK         0.3000 
    180 H180        1.2508   -9.6598  -43.1520 H         1 UNK         0.0600 
    181 H181        1.3092   -9.9551  -46.2017 H         1 UNK         0.0600 
    182 H182        1.8984   -8.5626  -45.3028 H         1 UNK         0.0600 
    183 H183        0.1902   -8.9575  -45.2704 H         1 UNK         0.0600 
    184 H184        0.0102  -11.5875  -44.9324 H         1 UNK         0.3000 
    185 H185       -0.2939  -14.1227  -43.4447 H         1 UNK         0.0600 
    186 H186       -0.9723  -13.8980  -41.0662 H         1 UNK         0.0600 
    187 H187       -2.2378  -12.7542  -41.5064 H         1 UNK         0.0600 
    188 H188       -2.3350  -14.4353  -42.0313 H         1 UNK         0.0600 
    189 H189       -2.0467  -11.9468  -44.3386 H         1 UNK         0.3000 
    190 H190       -2.1285  -20.6677  -44.1361 H         1 UNK         0.3000 
    191 H191       -4.0421  -22.2633  -42.8368 H         1 UNK         0.0600 
    192 H192       -0.9897  -22.5184  -42.8645 H         1 UNK         0.0600 
    193 H193       -2.0623  -23.2586  -41.6828 H         1 UNK         0.0600 
    194 H194       -1.9388  -21.5083  -41.7760 H         1 UNK         0.0600 
    195 H195       -1.6750  -23.1975  -45.3723 H         1 UNK         0.3000 
    196 H196       -2.4284  -25.9685  -45.4809 H         1 UNK         0.0600 
    197 H197       -1.1123  -25.9220  -47.6132 H         1 UNK         0.0600 
    198 H198       -0.2414  -25.1353  -46.3059 H         1 UNK         0.0600 
    199 H199       -1.0414  -24.1632  -47.5378 H         1 UNK         0.0600 
    200 H200       -3.6362  -23.0672  -47.0364 H         1 UNK         0.3000 
    201 H201       -5.3596  -22.4682  -48.2011 H         1 UNK         0.0600 
    202 H202       -6.7943  -23.8652  -46.7372 H         1 UNK         0.0600 
    203 H203       -6.5777  -25.2516  -47.8053 H         1 UNK         0.0600 
    204 H204       -7.4190  -23.8199  -48.3792 H         1 UNK         0.0600 
    205 H205       -4.3411  -25.7298  -49.1963 H         1 UNK         0.3000 
    206 H206       -4.7876  -25.3316  -52.0368 H         1 UNK         0.0600 
    207 H207       -4.7879  -27.5922  -50.9968 H         1 UNK         0.0600 
    208 H208       -3.5352  -27.4863  -52.2227 H         1 UNK         0.0600 
    209 H209       -3.1023  -27.3994  -50.5181 H         1 UNK         0.0600 
    210 H210       -2.2385  -24.4856  -49.8360 H         1 UNK         0.3000 
    211 H211       -0.2180  -23.5308  -49.9885 H         1 UNK         0.0600 
    212 H212       -1.4149  -22.2911  -52.5238 H         1 UNK         0.0600 
    213 H213       -0.0800  -21.6356  -51.5837 H         1 UNK         0.0600 
    214 H214       -1.6875  -21.7295  -50.8748 H         1 UNK         0.0600 
    215 H215        0.1979  -26.0136  -50.6087 H         1 UNK         0.3000 
    216 H216        1.4488  -27.5594  -51.5916 H         1 UNK         0.0600 
    217 H217        3.6299  -26.9400  -52.5415 H         1 UNK         0.0600 
    218 H218        3.3090  -25.9421  -51.1335 H         1 UNK         0.0600 
    219 H219        3.1228  -25.2709  -52.7532 H         1 UNK         0.0600 
    220 H220       -0.8944  -26.7576  -52.8905 H         1 UNK         0.3000 
    221 H221       -2.1810  -27.2816  -54.5713 H         1 UNK         0.0600 
    222 H222        0.1670  -28.5997  -56.0229 H         1 UNK         0.0600 
    223 H223       -0.8525  -29.3973  -54.8244 H         1 UNK         0.0600 
    224 H224       -1.5426  -28.8415  -56.3390 H         1 UNK         0.0600 
    225 H225       -0.2199  -24.8118  -54.6030 H         1 UNK         0.3000 
    226 H226       -0.4350  -23.9382  -57.3909 H         1 UNK         0.0600 
    227 H227        1.4482  -23.2135  -55.8764 H         1 UNK         0.0600 
    228 H228        0.5524  -21.8607  -56.5527 H         1 UNK         0.0600 
    229 H229        0.2856  -22.3347  -54.8831 H         1 UNK         0.0600 
    230 H230       -2.4093  -23.8484  -54.5092 H         1 UNK         0.3000 
    231 H231       -4.3512  -23.0396  -53.9167 H         1 UNK         0.0600 
    232 H232       -5.1254  -24.1958  -55.9998 H         1 UNK         0.0600 
    233 H233       -4.9764  -22.6823  -56.8922 H         1 UNK         0.0600 
    234 H234       -6.1419  -22.8267  -55.5844 H         1 UNK         0.0600 
    235 H235       -2.0800  -21.1041  -54.4154 H         1 UNK         0.3000 
    236 H236       -3.2072  -18.5607  -55.0944 H         1 UNK         0.0600 
    237 H237       -0.9891  -17.7118  -54.3179 H         1 UNK         0.0600 
    238 H238       -0.6075  -19.2885  -53.6350 H         1 UNK         0.0600 
    239 H239       -0.8009  -19.0995  -55.3776 H         1 UNK         0.0600 
    240 H240       -2.8039  -20.2841  -52.0862 H         1 UNK         0.3000 
    241 H241       -3.1413  -19.9422  -49.9776 H         1 UNK         0.0600 
    242 H242       -1.7297  -16.4136  -49.7459 H         1 UNK         0.3800 
    243 H243       -1.6189  -17.5011  -51.1053 H         1 UNK         0.3800 
    244 H244       -5.3589  -19.5645  -49.2645 H         1 UNK         0.0800 
    245 H245       -5.4029  -20.3942  -50.7848 H         1 UNK         0.0800 
    246 H246       -7.9510  -19.3304  -49.6634 H         1 UNK         0.0800 
    247 H247       -8.5610  -17.8196  -50.2823 H         1 UNK         0.0800 
@<TRIPOS>BOND
     1    1    2 1    
     2    1  127 1    
     3    1  128 1    
     4    1  129 1    
     5    2    3 2    
     6    2    4 am   BACKBONE|DICT|INTERRES
     7    4    5 1    
     8    4  130 1    
     9    5    6 1    
    10    5   65 1    
    11    5  131 1    
    12    6    7 1    
    13    6  132 1    
    14    6  133 1    
    15    7    8 1    
    16    8    9 1    
    17    8  134 1    
    18    8  135 1    
    19    9   10 ar   
    20    9   14 ar   
    21   10   11 ar   
    22   10  136 1    
    23   11   12 ar   
    24   11  126 1    
    25   12   13 ar   
    26   12  137 1    
    27   13   14 ar   
    28   13   15 1    
    29   14  138 1    
    30   15   16 1    
    31   15  139 1    
    32   15  140 1    
    33   16   17 1    
    34   17   18 1    
    35   17  141 1    
    36   17  142 1    
    37   18   19 1    
    38   18   67 1    
    39   18  143 1    
    40   19   20 am   BACKBONE|DICT|INTERRES
    41   19  144 1    
    42   20   21 2    
    43   20   22 1    
    44   22   23 1    
    45   22   24 1    
    46   22  145 1    
    47   23  146 1    
    48   23  147 1    
    49   23  148 1    
    50   24   25 am   BACKBONE|DICT|INTERRES
    51   24  149 1    
    52   25   26 2    
    53   25   27 1    
    54   27   28 1    
    55   27   29 1    
    56   27  150 1    
    57   28  151 1    
    58   28  152 1    
    59   28  153 1    
    60   29   30 am   BACKBONE|DICT|INTERRES
    61   29  154 1    
    62   30   31 2    
    63   30   32 1    
    64   32   33 1    
    65   32   34 1    
    66   32  155 1    
    67   33  156 1    
    68   33  157 1    
    69   33  158 1    
    70   34   35 am   BACKBONE|DICT|INTERRES
    71   34  159 1    
    72   35   36 2    
    73   35   37 1    
    74   37   38 1    
    75   37   39 1    
    76   37  160 1    
    77   38  161 1    
    78   38  162 1    
    79   38  163 1    
    80   39   40 am   BACKBONE|DICT|INTERRES
    81   39  164 1    
    82   40   41 2    
    83   40   42 1    
    84   42   43 1    
    85   42   44 1    
    86   42  165 1    
    87   43  166 1    
    88   43  167 1    
    89   43  168 1    
    90   44   45 am   BACKBONE|DICT|INTERRES
    91   44  169 1    
    92   45   46 2    
    93   45   47 1    
    94   47   48 1    
    95   47   49 1    
    96   47  170 1    
    97   48  171 1    
    98   48  172 1    
    99   48  173 1    
   100   49   50 am   BACKBONE|DICT|INTERRES
   101   49  174 1    
   102   50   51 2    
   103   50   52 1    
   104   52   53 1    
   105   52   54 1    
   106   52  175 1    
   107   53  176 1    
   108   53  177 1    
   109   53  178 1    
   110   54   55 am   BACKBONE|DICT|INTERRES
   111   54  179 1    
   112   55   56 2    
   113   55   57 1    
   114   57   58 1    
   115   57   59 1    
   116   57  180 1    
   117   58  181 1    
   118   58  182 1    
   119   58  183 1    
   120   59   60 am   BACKBONE|DICT|INTERRES
   121   59  184 1    
   122   60   61 2    
   123   60   62 1    
   124   62   63 1    
   125   62   64 1    
   126   62  185 1    
   127   63  186 1    
   128   63  187 1    
   129   63  188 1    
   130   64   65 am   BACKBONE|DICT|INTERRES
   131   64  189 1    
   132   65   66 2    
   133   67   68 2    
   134   67   69 am   BACKBONE|DICT|INTERRES
   135   69   70 1    
   136   69  190 1    
   137   70   71 1    
   138   70   72 1    
   139   70  191 1    
   140   71  192 1    
   141   71  193 1    
   142   71  194 1    
   143   72   73 2    
   144   72   74 am   BACKBONE|DICT|INTERRES
   145   74   75 1    
   146   74  195 1    
   147   75   76 1    
   148   75   77 1    
   149   75  196 1    
   150   76  197 1    
   151   76  198 1    
   152   76  199 1    
   153   77   78 2    
   154   77   79 am   BACKBONE|DICT|INTERRES
   155   79   80 1    
   156   79  200 1    
   157   80   81 1    
   158   80   82 1    
   159   80  201 1    
   160   81  202 1    
   161   81  203 1    
   162   81  204 1    
   163   82   83 2    
   164   82   84 am   BACKBONE|DICT|INTERRES
   165   84   85 1    
   166   84  205 1    
   167   85   86 1    
   168   85   87 1    
   169   85  206 1    
   170   86  207 1    
   171   86  208 1    
   172   86  209 1    
   173   87   88 2    
   174   87   89 am   BACKBONE|DICT|INTERRES
   175   89   90 1    
   176   89  210 1    
   177   90   91 1    
   178   90   92 1    
   179   90  211 1    
   180   91  212 1    
   181   91  213 1    
   182   91  214 1    
   183   92   93 2    
   184   92   94 am   BACKBONE|DICT|INTERRES
   185   94   95 1    
   186   94  215 1    
   187   95   96 1    
   188   95   97 1    
   189   95  216 1    
   190   96  217 1    
   191   96  218 1    
   192   96  219 1    
   193   97   98 2    
   194   97   99 am   BACKBONE|DICT|INTERRES
   195   99  100 1    
   196   99  220 1    
   197  100  101 1    
   198  100  102 1    
   199  100  221 1    
   200  101  222 1    
   201  101  223 1    
   202  101  224 1    
   203  102  103 2    
   204  102  104 am   BACKBONE|DICT|INTERRES
   205  104  105 1    
   206  104  225 1    
   207  105  106 1    
   208  105  107 1    
   209  105  226 1    
   210  106  227 1    
   211  106  228 1    
   212  106  229 1    
   213  107  108 2    
   214  107  109 am   BACKBONE|DICT|INTERRES
   215  109  110 1    
   216  109  230 1    
   217  110  111 1    
   218  110  112 1    
   219  110  231 1    
   220  111  232 1    
   221  111  233 1    
   222  111  234 1    
   223  112  113 2    
   224  112  114 am   BACKBONE|DICT|INTERRES
   225  114  115 1    
   226  114  235 1    
   227  115  116 1    
   228  115  117 1    
   229  115  236 1    
   230  116  237 1    
   231  116  238 1    
   232  116  239 1    
   233  117  118 2    
   234  117  119 am   BACKBONE|DICT|INTERRES
   235  119  120 1    
   236  119  240 1    
   237  120  121 1    
   238  120  124 1    
   239  120  241 1    
   240  121  122 am   BACKBONE|DICT|INTERRES
   241  121  123 2    
   242  122  242 1    
   243  122  243 1    
   244  124  125 1    
   245  124  244 1    
   246  124  245 1    
   247  125  126 1    
   248  126  246 1    
   249  126  247 1    
@<TRIPOS>SUBSTRUCTURE
     1 UNK         1 GROUP             0       ****    0 ROOT    
