@<TRIPOS>MOLECULE
3R540
247   249    1
SMALL
USER_CHARGES


@<TRIPOS>ATOM
      1 CA          6.2101  -13.6218  -46.2843 C.3       0 UNK        -0.1800 
      2 C           4.9203  -13.1191  -46.9159 C.2       0 UNK         0.5000 
      3 O           4.2692  -12.2359  -46.3591 O.2       0 UNK        -0.5000 
      4 N           4.5398  -13.6816  -48.0694 N.am      1 UNK        -0.5000 
      5 CA          3.3566  -13.2940  -48.8440 C.3       1 UNK         0.1400 
      6 C6          3.1237  -14.2955  -50.0052 C.3       23 UNK        -0.0398 
      7 S7          1.5080  -14.1046  -50.8316 S.3       23 UNK        -0.2404 
      8 C8          0.4796  -15.2906  -49.9142 C.3       23 UNK        -0.0205 
      9 C9          0.6384  -16.7083  -50.4407 C.ar      23 UNK        -0.0193 
     10 C10        -0.0415  -17.1020  -51.5957 C.ar      23 UNK        -0.1150 
     11 C11         0.0546  -18.4144  -52.0672 C.ar      23 UNK        -0.0193 
     12 C12         0.8433  -19.3372  -51.3723 C.ar      23 UNK        -0.1150 
     13 C13         1.5444  -18.9514  -50.2251 C.ar      23 UNK        -0.0193 
     14 C14         1.4423  -17.6332  -49.7697 C.ar      23 UNK        -0.1150 
     15 C15         2.4421  -19.9413  -49.4944 C.3       23 UNK        -0.0205 
     16 S16         1.8140  -20.3575  -47.8358 S.3       23 UNK        -0.2404 
     17 C17         0.4736  -21.5392  -48.2125 C.3       23 UNK        -0.0398 
     18 CA          0.4205  -22.7068  -47.1974 C.3       11 UNK         0.1400 
     19 N           0.3112  -22.2556  -45.8036 N.am      11 UNK        -0.5000 
     20 C           0.8087  -22.9415  -44.7644 C.2       10 UNK         0.5000 
     21 O           1.3812  -24.0251  -44.8800 O.2       10 UNK        -0.5000 
     22 CA          0.6016  -22.3490  -43.3601 C.3       10 UNK         0.1400 
     23 CB          1.6759  -21.2992  -43.0402 C.3       10 UNK        -0.1800 
     24 N          -0.7303  -21.7748  -43.1627 N.am      10 UNK        -0.5000 
     25 C          -1.8567  -22.4992  -43.1027 C.2       9 UNK         0.5000 
     26 O          -1.8871  -23.7135  -43.2966 O.2       9 UNK        -0.5000 
     27 CA         -3.1619  -21.7551  -42.7773 C.3       9 UNK         0.1400 
     28 CB         -3.2631  -21.4854  -41.2679 C.3       9 UNK        -0.1800 
     29 N          -3.2377  -20.4856  -43.4961 N.am      9 UNK        -0.5000 
     30 C          -4.0396  -20.2402  -44.5417 C.2       8 UNK         0.5000 
     31 O          -4.8594  -21.0461  -44.9797 O.2       8 UNK        -0.5000 
     32 CA         -3.8981  -18.8676  -45.2339 C.3       8 UNK         0.1400 
     33 CB         -4.9703  -17.8926  -44.7281 C.3       8 UNK        -0.1800 
     34 N          -2.5786  -18.2571  -45.0583 N.am      8 UNK        -0.5000 
     35 C          -1.4345  -18.7766  -45.5262 C.2       7 UNK         0.5000 
     36 O          -1.3945  -19.7834  -46.2330 O.2       7 UNK        -0.5000 
     37 CA         -0.1165  -18.1034  -45.0905 C.3       7 UNK         0.1400 
     38 CB          0.4003  -17.1673  -46.1885 C.3       7 UNK        -0.1800 
     39 N          -0.2079  -17.3602  -43.8300 N.am      7 UNK        -0.5000 
     40 C          -0.5879  -17.8718  -42.6477 C.2       6 UNK         0.5000 
     41 O          -0.8553  -19.0622  -42.4847 O.2       6 UNK        -0.5000 
     42 CA         -0.7526  -16.9039  -41.4586 C.3       6 UNK         0.1400 
     43 CB          0.4404  -17.0347  -40.5005 C.3       6 UNK        -0.1800 
     44 N          -0.9006  -15.4991  -41.8425 N.am      6 UNK        -0.5000 
     45 C          -1.8706  -14.9852  -42.6140 C.2       5 UNK         0.5000 
     46 O          -2.8201  -15.6410  -43.0449 O.2       5 UNK        -0.5000 
     47 CA         -1.7156  -13.5039  -43.0200 C.3       5 UNK         0.1400 
     48 CB         -2.5867  -12.6078  -42.1274 C.3       5 UNK        -0.1800 
     49 N          -0.3298  -13.0177  -42.9803 N.am      5 UNK        -0.5000 
     50 C           0.6816  -13.5072  -43.7105 C.2       4 UNK         0.5000 
     51 O           0.5505  -14.4229  -44.5239 O.2       4 UNK        -0.5000 
     52 CA          2.0665  -12.8800  -43.4750 C.3       4 UNK         0.1400 
     53 CB          3.1959  -13.9092  -43.6557 C.3       4 UNK        -0.1800 
     54 N           2.2831  -11.7618  -44.3867 N.am      4 UNK        -0.5000 
     55 C           1.7398  -10.5459  -44.2525 C.2       3 UNK         0.5000 
     56 O           1.0392  -10.2120  -43.2954 O.2       3 UNK        -0.5000 
     57 CA          2.0192   -9.5339  -45.3796 C.3       3 UNK         0.1400 
     58 CB          3.3618   -8.8240  -45.1479 C.3       3 UNK        -0.1800 
     59 N           2.0145  -10.1280  -46.7191 N.am      3 UNK        -0.5000 
     60 C           0.9457  -10.6715  -47.3186 C.2       2 UNK         0.5000 
     61 O          -0.1596  -10.7579  -46.7829 O.2       2 UNK        -0.5000 
     62 CA          1.1175  -11.1789  -48.7655 C.3       2 UNK         0.1400 
     63 CB          0.1344  -10.4612  -49.7055 C.3       2 UNK        -0.1800 
     64 N           2.4735  -10.9708  -49.2898 N.am      2 UNK        -0.5000 
     65 C           3.4983  -11.8347  -49.3572 C.2       1 UNK         0.5000 
     66 O           4.5774  -11.4871  -49.8396 O.2       1 UNK        -0.5000 
     67 C          -0.6849  -23.7254  -47.5503 C.2       11 UNK         0.5000 
     68 O          -0.5764  -24.4049  -48.5717 O.2       11 UNK        -0.5000 
     69 N          -1.7048  -23.8725  -46.6881 N.am      12 UNK        -0.5000 
     70 CA         -2.7462  -24.8976  -46.8068 C.3       12 UNK         0.1400 
     71 CB         -3.8717  -24.6278  -45.7971 C.3       12 UNK        -0.1800 
     72 C          -2.1907  -26.3229  -46.6287 C.2       12 UNK         0.5000 
     73 O          -2.7054  -27.2513  -47.2501 O.2       12 UNK        -0.5000 
     74 N          -1.1081  -26.4643  -45.8487 N.am      13 UNK        -0.5000 
     75 CA         -0.3468  -27.7073  -45.6916 C.3       13 UNK         0.1400 
     76 CB          0.6548  -27.5397  -44.5396 C.3       13 UNK        -0.1800 
     77 C           0.3794  -28.1414  -46.9829 C.2       13 UNK         0.5000 
     78 O           0.6302  -29.3327  -47.1655 O.2       13 UNK        -0.5000 
     79 N           0.6722  -27.1752  -47.8646 N.am      14 UNK        -0.5000 
     80 CA          1.2185  -27.3837  -49.2067 C.3       14 UNK         0.1400 
     81 CB          2.2155  -26.2513  -49.5098 C.3       14 UNK        -0.1800 
     82 C           0.1112  -27.4494  -50.2818 C.2       14 UNK         0.5000 
     83 O           0.4337  -27.5362  -51.4671 O.2       14 UNK        -0.5000 
     84 N          -1.1628  -27.3958  -49.8584 N.am      15 UNK        -0.5000 
     85 CA         -2.3825  -27.3768  -50.6723 C.3       15 UNK         0.1400 
     86 CB         -2.5542  -28.7050  -51.4392 C.3       15 UNK        -0.1800 
     87 C          -2.4945  -26.1318  -51.5784 C.2       15 UNK         0.5000 
     88 O          -3.0604  -26.2176  -52.6693 O.2       15 UNK        -0.5000 
     89 N          -1.9641  -24.9951  -51.1095 N.am      16 UNK        -0.5000 
     90 CA         -1.9334  -23.7262  -51.8311 C.3       16 UNK         0.1400 
     91 CB         -0.6105  -23.6106  -52.6126 C.3       16 UNK        -0.1800 
     92 C          -2.1577  -22.5674  -50.8487 C.2       16 UNK         0.5000 
     93 O          -1.3648  -21.6292  -50.8172 O.2       16 UNK        -0.5000 
     94 N          -3.2183  -22.6767  -50.0341 N.am      17 UNK        -0.5000 
     95 CA         -3.6608  -21.6771  -49.0562 C.3       17 UNK         0.1400 
     96 CB         -4.9887  -22.1452  -48.4415 C.3       17 UNK        -0.1800 
     97 C          -3.8468  -20.2859  -49.6877 C.2       17 UNK         0.5000 
     98 O          -4.5185  -20.1930  -50.7185 O.2       17 UNK        -0.5000 
     99 N          -3.2556  -19.2585  -49.0580 N.am      18 UNK        -0.5000 
    100 CA        -3.1812  -17.8756  -49.5409 C.3       18 UNK         0.1400 
    101 CB        -2.5681  -16.9818  -48.4561 C.3       18 UNK        -0.1800 
    102 C         -4.5305  -17.3071  -50.0139 C.2       18 UNK         0.5000 
    103 O         -5.4556  -17.1803  -49.2097 O.2       18 UNK        -0.5000 
    104 N         -4.6181  -17.0369  -51.3232 N.am      19 UNK        -0.5000 
    105 CA        -5.7721  -16.5878  -52.1136 C.3       19 UNK         0.1400 
    106 CB        -6.3097  -15.2371  -51.6048 C.3       19 UNK        -0.1800 
    107 C         -6.9087  -17.6236  -52.2489 C.2       19 UNK         0.5000 
    108 O         -7.5585  -17.6664  -53.2939 O.2       19 UNK        -0.5000 
    109 N         -7.1306  -18.4356  -51.2104 N.am      20 UNK        -0.5000 
    110 CA        -8.1809  -19.4454  -51.1193 C.3       20 UNK         0.1400 
    111 CB        -8.2838  -19.9207  -49.6619 C.3       20 UNK        -0.1800 
    112 C         -7.9835  -20.6437  -52.0656 C.2       20 UNK         0.5000 
    113 O         -8.9752  -21.1620  -52.5812 O.2       20 UNK        -0.5000 
    114 N         -6.7301  -21.0718  -52.2691 N.am      21 UNK        -0.5000 
    115 CA        -6.3877  -22.2669  -53.0452 C.3       21 UNK         0.1400 
    116 CB        -6.2586  -23.4736  -52.0972 C.3       21 UNK        -0.1800 
    117 C         -5.1417  -22.0760  -53.9293 C.2       21 UNK         0.5000 
    118 O         -4.5836  -23.0665  -54.4022 O.2       21 UNK        -0.5000 
    119 N         -4.7302  -20.8240  -54.1675 N.am      22 UNK        -0.5000 
    120 CA        -3.6058  -20.4812  -55.0608 C.3       22 UNK         0.1400 
    121 C         -3.8929  -20.6888  -56.5789 C.2       22 UNK         0.5000 
    122 N         -5.1366  -20.8686  -57.0075 N.am      22 UNK        -0.7600 
    123 O         -2.9656  -20.6901  -57.3839 O.2       22 UNK        -0.5000 
    124 C124       -3.0760  -19.0476  -54.8118 C.3       23 UNK        -0.0398 
    125 S125       -2.4798  -18.8034  -53.1088 S.3       23 UNK        -0.2404 
    126 C126       -0.6761  -18.8174  -53.3400 C.3       23 UNK        -0.0205 
    127 H127        6.9149  -12.7985  -46.1679 H         1 UNK         0.0600 
    128 H128        6.6847  -14.3939  -46.8902 H         1 UNK         0.0600 
    129 H129        6.0062  -14.0394  -45.2985 H         1 UNK         0.0600 
    130 H130        5.1336  -14.3797  -48.4930 H         1 UNK         0.3000 
    131 H131        2.5247  -13.3747  -48.1453 H         1 UNK         0.0600 
    132 H132        3.9061  -14.1954  -50.7597 H         1 UNK         0.0800 
    133 H133        3.2033  -15.3187  -49.6373 H         1 UNK         0.0800 
    134 H134        0.7096  -15.2422  -48.8485 H         1 UNK         0.0800 
    135 H135       -0.5638  -14.9882  -50.0114 H         1 UNK         0.0800 
    136 H136       -0.6541  -16.3867  -52.1264 H         1 UNK         0.1150 
    137 H137        0.9166  -20.3549  -51.7293 H         1 UNK         0.1150 
    138 H138        1.9855  -17.3335  -48.8850 H         1 UNK         0.1150 
    139 H139        2.5806  -20.8530  -50.0775 H         1 UNK         0.0800 
    140 H140        3.4332  -19.4986  -49.3876 H         1 UNK         0.0800 
    141 H141        0.6395  -21.9381  -49.2140 H         1 UNK         0.0800 
    142 H142       -0.4714  -20.9987  -48.2563 H         1 UNK         0.0800 
    143 H143        1.3638  -23.2469  -47.3066 H         1 UNK         0.0600 
    144 H144       -0.1709  -21.3762  -45.6571 H         1 UNK         0.3000 
    145 H145        0.7163  -23.1647  -42.6428 H         1 UNK         0.0600 
    146 H146        1.5521  -20.9012  -42.0328 H         1 UNK         0.0600 
    147 H147        2.6737  -21.7358  -43.0974 H         1 UNK         0.0600 
    148 H148        1.6476  -20.4629  -43.7360 H         1 UNK         0.0600 
    149 H149       -0.7696  -20.7804  -42.9488 H         1 UNK         0.3000 
    150 H150       -3.9923  -22.4063  -43.0585 H         1 UNK         0.0600 
    151 H151       -3.2070  -22.4151  -40.7002 H         1 UNK         0.0600 
    152 H152       -4.2110  -21.0086  -41.0179 H         1 UNK         0.0600 
    153 H153       -2.4600  -20.8360  -40.9167 H         1 UNK         0.0600 
    154 H154       -2.5705  -19.7756  -43.2161 H         1 UNK         0.3000 
    155 H155       -4.0598  -19.0246  -46.3017 H         1 UNK         0.0600 
    156 H156       -4.8481  -17.6775  -43.6656 H         1 UNK         0.0600 
    157 H157       -4.9282  -16.9466  -45.2686 H         1 UNK         0.0600 
    158 H158       -5.9710  -18.3030  -44.8693 H         1 UNK         0.0600 
    159 H159       -2.5369  -17.4286  -44.4771 H         1 UNK         0.3000 
    160 H160        0.6187  -18.8962  -44.9579 H         1 UNK         0.0600 
    161 H161        1.3857  -16.7717  -45.9417 H         1 UNK         0.0600 
    162 H162       -0.2710  -16.3229  -46.3489 H         1 UNK         0.0600 
    163 H163        0.4930  -17.7017  -47.1323 H         1 UNK         0.0600 
    164 H164       -0.0098  -16.3673  -43.8897 H         1 UNK         0.3000 
    165 H165       -1.6584  -17.1992  -40.9255 H         1 UNK         0.0600 
    166 H166        0.2992  -16.4251  -39.6078 H         1 UNK         0.0600 
    167 H167        0.5659  -18.0669  -40.1701 H         1 UNK         0.0600 
    168 H168        1.3730  -16.7266  -40.9753 H         1 UNK         0.0600 
    169 H169       -0.1682  -14.8748  -41.5393 H         1 UNK         0.3000 
    170 H170       -2.0687  -13.4116  -44.0491 H         1 UNK         0.0600 
    171 H171       -3.6305  -12.9235  -42.1560 H         1 UNK         0.0600 
    172 H172       -2.2620  -12.6395  -41.0866 H         1 UNK         0.0600 
    173 H173       -2.5536  -11.5696  -42.4588 H         1 UNK         0.0600 
    174 H174       -0.1467  -12.2261  -42.3784 H         1 UNK         0.3000 
    175 H175        2.1139  -12.5151  -42.4468 H         1 UNK         0.0600 
    176 H176        4.1702  -13.4633  -43.4550 H         1 UNK         0.0600 
    177 H177        3.2166  -14.3159  -44.6674 H         1 UNK         0.0600 
    178 H178        3.0726  -14.7475  -42.9690 H         1 UNK         0.0600 
    179 H179        2.8789  -11.9407  -45.1927 H         1 UNK         0.3000 
    180 H180        1.2282   -8.7817  -45.3475 H         1 UNK         0.0600 
    181 H181        4.1995   -9.5205  -45.2055 H         1 UNK         0.0600 
    182 H182        3.3913   -8.3548  -44.1636 H         1 UNK         0.0600 
    183 H183        3.5261   -8.0391  -45.8863 H         1 UNK         0.0600 
    184 H184        2.8972  -10.1409  -47.2098 H         1 UNK         0.3000 
    185 H185        0.8418  -12.2315  -48.7696 H         1 UNK         0.0600 
    186 H186        0.3111   -9.3852  -49.7299 H         1 UNK         0.0600 
    187 H187        0.2196  -10.8390  -50.7247 H         1 UNK         0.0600 
    188 H188       -0.8985  -10.6177  -49.3914 H         1 UNK         0.0600 
    189 H189        2.6391  -10.0399  -49.6438 H         1 UNK         0.3000 
    190 H190       -1.7128  -23.3108  -45.8491 H         1 UNK         0.3000 
    191 H191       -3.1642  -24.8271  -47.8128 H         1 UNK         0.0600 
    192 H192       -4.1630  -23.5780  -45.7857 H         1 UNK         0.0600 
    193 H193       -4.7587  -25.2105  -46.0478 H         1 UNK         0.0600 
    194 H194       -3.5849  -24.9050  -44.7834 H         1 UNK         0.0600 
    195 H195       -0.7490  -25.6511  -45.3674 H         1 UNK         0.3000 
    196 H196       -1.0476  -28.5009  -45.4239 H         1 UNK         0.0600 
    197 H197        1.1985  -28.4676  -44.3573 H         1 UNK         0.0600 
    198 H198        0.1496  -27.2714  -43.6116 H         1 UNK         0.0600 
    199 H199        1.3917  -26.7657  -44.7570 H         1 UNK         0.0600 
    200 H200        0.4034  -26.2252  -47.6473 H         1 UNK         0.3000 
    201 H201        1.7616  -28.3301  -49.2423 H         1 UNK         0.0600 
    202 H202        2.9936  -26.1964  -48.7483 H         1 UNK         0.0600 
    203 H203        1.7243  -25.2793  -49.5583 H         1 UNK         0.0600 
    204 H204        2.7122  -26.4129  -50.4673 H         1 UNK         0.0600 
    205 H205       -1.3248  -27.3430  -48.8606 H         1 UNK         0.3000 
    206 H206       -3.2116  -27.3026  -49.9676 H         1 UNK         0.0600 
    207 H207       -2.4780  -29.5602  -50.7677 H         1 UNK         0.0600 
    208 H208       -3.5329  -28.7568  -51.9174 H         1 UNK         0.0600 
    209 H209       -1.8033  -28.8232  -52.2207 H         1 UNK         0.0600 
    210 H210       -1.5071  -24.9890  -50.2009 H         1 UNK         0.3000 
    211 H211       -2.7569  -23.6827  -52.5451 H         1 UNK         0.0600 
    212 H212        0.2510  -23.6354  -51.9439 H         1 UNK         0.0600 
    213 H213       -0.5681  -22.6770  -53.1752 H         1 UNK         0.0600 
    214 H214       -0.5030  -24.4262  -53.3277 H         1 UNK         0.0600 
    215 H215       -3.8043  -23.4907  -50.1337 H         1 UNK         0.3000 
    216 H216       -2.9079  -21.6198  -48.2683 H         1 UNK         0.0600 
    217 H217       -5.3216  -21.4588  -47.6624 H         1 UNK         0.0600 
    218 H218       -4.8988  -23.1312  -47.9911 H         1 UNK         0.0600 
    219 H219       -5.7809  -22.1994  -49.1890 H         1 UNK         0.0600 
    220 H220       -2.7223  -19.4538  -48.2219 H         1 UNK         0.3000 
    221 H221       -2.4895  -17.8786  -50.3823 H         1 UNK         0.0600 
    222 H222       -3.1606  -16.9898  -47.5414 H         1 UNK         0.0600 
    223 H223       -1.5583  -17.3087  -48.2178 H         1 UNK         0.0600 
    224 H224       -2.5023  -15.9466  -48.7920 H         1 UNK         0.0600 
    225 H225       -3.8097  -17.2761  -51.8840 H         1 UNK         0.3000 
    226 H226       -5.3855  -16.4259  -53.1210 H         1 UNK         0.0600 
    227 H227       -5.5187  -14.4884  -51.5622 H         1 UNK         0.0600 
    228 H228       -7.0851  -14.8536  -52.2691 H         1 UNK         0.0600 
    229 H229       -6.7483  -15.3202  -50.6101 H         1 UNK         0.0600 
    230 H230       -6.5492  -18.3043  -50.3894 H         1 UNK         0.3000 
    231 H231       -9.1260  -18.9686  -51.3874 H         1 UNK         0.0600 
    232 H232       -7.3428  -20.3456  -49.3120 H         1 UNK         0.0600 
    233 H233       -9.0538  -20.6851  -49.5503 H         1 UNK         0.0600 
    234 H234       -8.5445  -19.0969  -48.9971 H         1 UNK         0.0600 
    235 H235       -5.9617  -20.6200  -51.7729 H         1 UNK         0.3000 
    236 H236       -7.1927  -22.4863  -53.7492 H         1 UNK         0.0600 
    237 H237       -7.1783  -23.6333  -51.5343 H         1 UNK         0.0600 
    238 H238       -6.0541  -24.3930  -52.6473 H         1 UNK         0.0600 
    239 H239       -5.4508  -23.3318  -51.3834 H         1 UNK         0.0600 
    240 H240       -5.2284  -20.0553  -53.7452 H         1 UNK         0.3000 
    241 H241       -2.7893  -21.1665  -54.8235 H         1 UNK         0.0600 
    242 H242       -5.9094  -20.8669  -56.3617 H         1 UNK         0.3800 
    243 H243       -5.3068  -21.0058  -57.9917 H         1 UNK         0.3800 
    244 H244       -2.2673  -18.8067  -55.5041 H         1 UNK         0.0800 
    245 H245       -3.8627  -18.3165  -55.0045 H         1 UNK         0.0800 
    246 H246       -0.4016  -18.1248  -54.1369 H         1 UNK         0.0800 
    247 H247       -0.3675  -19.8117  -53.6663 H         1 UNK         0.0800 
@<TRIPOS>BOND
     1    1    2 1    
     2    1  127 1    
     3    1  128 1    
     4    1  129 1    
     5    2    3 2    
     6    2    4 am   BACKBONE|DICT|INTERRES
     7    4    5 1    
     8    4  130 1    
     9    5    6 1    
    10    5   65 1    
    11    5  131 1    
    12    6    7 1    
    13    6  132 1    
    14    6  133 1    
    15    7    8 1    
    16    8    9 1    
    17    8  134 1    
    18    8  135 1    
    19    9   10 ar   
    20    9   14 ar   
    21   10   11 ar   
    22   10  136 1    
    23   11   12 ar   
    24   11  126 1    
    25   12   13 ar   
    26   12  137 1    
    27   13   14 ar   
    28   13   15 1    
    29   14  138 1    
    30   15   16 1    
    31   15  139 1    
    32   15  140 1    
    33   16   17 1    
    34   17   18 1    
    35   17  141 1    
    36   17  142 1    
    37   18   19 1    
    38   18   67 1    
    39   18  143 1    
    40   19   20 am   BACKBONE|DICT|INTERRES
    41   19  144 1    
    42   20   21 2    
    43   20   22 1    
    44   22   23 1    
    45   22   24 1    
    46   22  145 1    
    47   23  146 1    
    48   23  147 1    
    49   23  148 1    
    50   24   25 am   BACKBONE|DICT|INTERRES
    51   24  149 1    
    52   25   26 2    
    53   25   27 1    
    54   27   28 1    
    55   27   29 1    
    56   27  150 1    
    57   28  151 1    
    58   28  152 1    
    59   28  153 1    
    60   29   30 am   BACKBONE|DICT|INTERRES
    61   29  154 1    
    62   30   31 2    
    63   30   32 1    
    64   32   33 1    
    65   32   34 1    
    66   32  155 1    
    67   33  156 1    
    68   33  157 1    
    69   33  158 1    
    70   34   35 am   BACKBONE|DICT|INTERRES
    71   34  159 1    
    72   35   36 2    
    73   35   37 1    
    74   37   38 1    
    75   37   39 1    
    76   37  160 1    
    77   38  161 1    
    78   38  162 1    
    79   38  163 1    
    80   39   40 am   BACKBONE|DICT|INTERRES
    81   39  164 1    
    82   40   41 2    
    83   40   42 1    
    84   42   43 1    
    85   42   44 1    
    86   42  165 1    
    87   43  166 1    
    88   43  167 1    
    89   43  168 1    
    90   44   45 am   BACKBONE|DICT|INTERRES
    91   44  169 1    
    92   45   46 2    
    93   45   47 1    
    94   47   48 1    
    95   47   49 1    
    96   47  170 1    
    97   48  171 1    
    98   48  172 1    
    99   48  173 1    
   100   49   50 am   BACKBONE|DICT|INTERRES
   101   49  174 1    
   102   50   51 2    
   103   50   52 1    
   104   52   53 1    
   105   52   54 1    
   106   52  175 1    
   107   53  176 1    
   108   53  177 1    
   109   53  178 1    
   110   54   55 am   BACKBONE|DICT|INTERRES
   111   54  179 1    
   112   55   56 2    
   113   55   57 1    
   114   57   58 1    
   115   57   59 1    
   116   57  180 1    
   117   58  181 1    
   118   58  182 1    
   119   58  183 1    
   120   59   60 am   BACKBONE|DICT|INTERRES
   121   59  184 1    
   122   60   61 2    
   123   60   62 1    
   124   62   63 1    
   125   62   64 1    
   126   62  185 1    
   127   63  186 1    
   128   63  187 1    
   129   63  188 1    
   130   64   65 am   BACKBONE|DICT|INTERRES
   131   64  189 1    
   132   65   66 2    
   133   67   68 2    
   134   67   69 am   BACKBONE|DICT|INTERRES
   135   69   70 1    
   136   69  190 1    
   137   70   71 1    
   138   70   72 1    
   139   70  191 1    
   140   71  192 1    
   141   71  193 1    
   142   71  194 1    
   143   72   73 2    
   144   72   74 am   BACKBONE|DICT|INTERRES
   145   74   75 1    
   146   74  195 1    
   147   75   76 1    
   148   75   77 1    
   149   75  196 1    
   150   76  197 1    
   151   76  198 1    
   152   76  199 1    
   153   77   78 2    
   154   77   79 am   BACKBONE|DICT|INTERRES
   155   79   80 1    
   156   79  200 1    
   157   80   81 1    
   158   80   82 1    
   159   80  201 1    
   160   81  202 1    
   161   81  203 1    
   162   81  204 1    
   163   82   83 2    
   164   82   84 am   BACKBONE|DICT|INTERRES
   165   84   85 1    
   166   84  205 1    
   167   85   86 1    
   168   85   87 1    
   169   85  206 1    
   170   86  207 1    
   171   86  208 1    
   172   86  209 1    
   173   87   88 2    
   174   87   89 am   BACKBONE|DICT|INTERRES
   175   89   90 1    
   176   89  210 1    
   177   90   91 1    
   178   90   92 1    
   179   90  211 1    
   180   91  212 1    
   181   91  213 1    
   182   91  214 1    
   183   92   93 2    
   184   92   94 am   BACKBONE|DICT|INTERRES
   185   94   95 1    
   186   94  215 1    
   187   95   96 1    
   188   95   97 1    
   189   95  216 1    
   190   96  217 1    
   191   96  218 1    
   192   96  219 1    
   193   97   98 2    
   194   97   99 am   BACKBONE|DICT|INTERRES
   195   99  100 1    
   196   99  220 1    
   197  100  101 1    
   198  100  102 1    
   199  100  221 1    
   200  101  222 1    
   201  101  223 1    
   202  101  224 1    
   203  102  103 2    
   204  102  104 am   BACKBONE|DICT|INTERRES
   205  104  105 1    
   206  104  225 1    
   207  105  106 1    
   208  105  107 1    
   209  105  226 1    
   210  106  227 1    
   211  106  228 1    
   212  106  229 1    
   213  107  108 2    
   214  107  109 am   BACKBONE|DICT|INTERRES
   215  109  110 1    
   216  109  230 1    
   217  110  111 1    
   218  110  112 1    
   219  110  231 1    
   220  111  232 1    
   221  111  233 1    
   222  111  234 1    
   223  112  113 2    
   224  112  114 am   BACKBONE|DICT|INTERRES
   225  114  115 1    
   226  114  235 1    
   227  115  116 1    
   228  115  117 1    
   229  115  236 1    
   230  116  237 1    
   231  116  238 1    
   232  116  239 1    
   233  117  118 2    
   234  117  119 am   BACKBONE|DICT|INTERRES
   235  119  120 1    
   236  119  240 1    
   237  120  121 1    
   238  120  124 1    
   239  120  241 1    
   240  121  122 am   BACKBONE|DICT|INTERRES
   241  121  123 2    
   242  122  242 1    
   243  122  243 1    
   244  124  125 1    
   245  124  244 1    
   246  124  245 1    
   247  125  126 1    
   248  126  246 1    
   249  126  247 1    
@<TRIPOS>SUBSTRUCTURE
     1 UNK         1 GROUP             0       ****    0 ROOT    
