@<TRIPOS>MOLECULE
3R540
247   249    1
SMALL
USER_CHARGES


@<TRIPOS>ATOM
      1 CA          0.1187  -12.8922  -45.9625 C.3       0 UNK        -0.1800 
      2 C           0.2776  -12.7354  -47.4728 C.2       0 UNK         0.5000 
      3 O           0.6589  -11.6594  -47.9270 O.2       0 UNK        -0.5000 
      4 N           0.0016  -13.7593  -48.2919 N.am      1 UNK        -0.5000 
      5 CA         -0.4891  -15.0948  -47.9150 C.3       1 UNK         0.1400 
      6 C6          0.0093  -16.1852  -48.8934 C.3       23 UNK        -0.0398 
      7 S7          1.8313  -16.2698  -48.9076 S.3       23 UNK        -0.2404 
      8 C8          2.1871  -16.5830  -50.6641 C.3       23 UNK        -0.0205 
      9 C9          2.3779  -18.0668  -50.9299 C.ar      23 UNK        -0.0193 
     10 C10         1.3576  -18.8358  -51.5002 C.ar      23 UNK        -0.1150 
     11 C11         1.5578  -20.1984  -51.7617 C.ar      23 UNK        -0.0193 
     12 C12         2.7907  -20.7774  -51.4475 C.ar      23 UNK        -0.1150 
     13 C13         3.8087  -20.0237  -50.8599 C.ar      23 UNK        -0.0193 
     14 C14         3.5981  -18.6675  -50.6095 C.ar      23 UNK        -0.1150 
     15 C15         5.1336  -20.6744  -50.4929 C.3       23 UNK        -0.0205 
     16 S16         5.1462  -21.2353  -48.7611 S.3       23 UNK        -0.2404 
     17 C17         3.8670  -22.5365  -48.8073 C.3       23 UNK        -0.0398 
     18 CA          4.0274  -23.5756  -47.6725 C.3       11 UNK         0.1400 
     19 N           3.9002  -22.9499  -46.3534 N.am      11 UNK        -0.5000 
     20 C           4.7088  -23.1522  -45.3055 C.2       10 UNK         0.5000 
     21 O           5.7125  -23.8644  -45.3424 O.2       10 UNK        -0.5000 
     22 CA          4.3123  -22.4724  -43.9764 C.3       10 UNK         0.1400 
     23 CB          5.1036  -21.1703  -43.7827 C.3       10 UNK        -0.1800 
     24 N           2.8786  -22.1840  -43.8683 N.am      10 UNK        -0.5000 
     25 C           1.9078  -23.1090  -43.8751 C.2       9 UNK         0.5000 
     26 O           2.1243  -24.3203  -43.8889 O.2       9 UNK        -0.5000 
     27 CA          0.4563  -22.6072  -43.9612 C.3       9 UNK         0.1400 
     28 CB         -0.1463  -22.4576  -42.5572 C.3       9 UNK        -0.1800 
     29 N           0.3213  -21.3437  -44.6874 N.am      9 UNK        -0.5000 
     30 C           0.6161  -21.1463  -45.9802 C.2       8 UNK         0.5000 
     31 O           1.0613  -22.0293  -46.7147 O.2       8 UNK        -0.5000 
     32 CA          0.4136  -19.7179  -46.5222 C.3       8 UNK         0.1400 
     33 CB         -1.0726  -19.4084  -46.7567 C.3       8 UNK        -0.1800 
     34 N           0.9426  -18.7254  -45.5930 N.am      8 UNK        -0.5000 
     35 C           2.2397  -18.4285  -45.4521 C.2       7 UNK         0.5000 
     36 O           3.1407  -18.9492  -46.1078 O.2       7 UNK        -0.5000 
     37 CA          2.5847  -17.3837  -44.3752 C.3       7 UNK         0.1400 
     38 CB          2.5079  -15.9651  -44.9576 C.3       7 UNK        -0.1800 
     39 N           1.7069  -17.4655  -43.2062 N.am      7 UNK        -0.5000 
     40 C           1.7015  -18.4832  -42.3345 C.2       6 UNK         0.5000 
     41 O           2.4450  -19.4609  -42.4165 O.2       6 UNK        -0.5000 
     42 CA          0.6572  -18.4135  -41.2045 C.3       6 UNK         0.1400 
     43 CB          1.1755  -17.5537  -40.0420 C.3       6 UNK        -0.1800 
     44 N          -0.6495  -17.9070  -41.6361 N.am      6 UNK        -0.5000 
     45 C          -1.4148  -18.4721  -42.5806 C.2       5 UNK         0.5000 
     46 O          -1.0713  -19.4466  -43.2436 O.2       5 UNK        -0.5000 
     47 CA         -2.7936  -17.8534  -42.8472 C.3       5 UNK         0.1400 
     48 CB         -3.8734  -18.6045  -42.0524 C.3       5 UNK        -0.1800 
     49 N          -2.8733  -16.4225  -42.5504 N.am      5 UNK        -0.5000 
     50 C          -2.2554  -15.4699  -43.2593 C.2       4 UNK         0.5000 
     51 O          -1.4836  -15.6927  -44.1945 O.2       4 UNK        -0.5000 
     52 CA         -2.5373  -14.0231  -42.8467 C.3       4 UNK         0.1400 
     53 CB         -1.2995  -13.3903  -42.1858 C.3       4 UNK        -0.1800 
     54 N          -2.9170  -13.2702  -44.0366 N.am      4 UNK        -0.5000 
     55 C          -3.6428  -12.1460  -44.0381 C.2       3 UNK         0.5000 
     56 O          -4.0988  -11.6321  -43.0157 O.2       3 UNK        -0.5000 
     57 CA         -3.8955  -11.4594  -45.3947 C.3       3 UNK         0.1400 
     58 CB         -3.0039  -10.2155  -45.5374 C.3       3 UNK        -0.1800 
     59 N          -3.6672  -12.3308  -46.5494 N.am      3 UNK        -0.5000 
     60 C          -4.5663  -13.1930  -47.0442 C.2       2 UNK         0.5000 
     61 O          -5.6761  -13.3822  -46.5475 O.2       2 UNK        -0.5000 
     62 CA         -4.1602  -13.9690  -48.3113 C.3       2 UNK         0.1400 
     63 CB         -4.6667  -13.2537  -49.5728 C.3       2 UNK        -0.1800 
     64 N          -2.7099  -14.1424  -48.4112 N.am      2 UNK        -0.5000 
     65 C          -2.0276  -15.1196  -47.7977 C.2       1 UNK         0.5000 
     66 O          -2.5704  -16.0052  -47.1404 O.2       1 UNK        -0.5000 
     67 C           3.0170  -24.7362  -47.8397 C.2       11 UNK         0.5000 
     68 O           2.8912  -25.2677  -48.9437 O.2       11 UNK        -0.5000 
     69 N           2.3192  -25.1140  -46.7560 N.am      12 UNK        -0.5000 
     70 CA          1.3062  -26.1700  -46.6628 C.3       12 UNK         0.1400 
     71 CB          1.9307  -27.5572  -46.9242 C.3       12 UNK        -0.1800 
     72 C           0.0408  -25.9046  -47.5077 C.2       12 UNK         0.5000 
     73 O          -0.5957  -26.8542  -47.9698 O.2       12 UNK        -0.5000 
     74 N          -0.3214  -24.6257  -47.6826 N.am      13 UNK        -0.5000 
     75 CA         -1.5688  -24.2087  -48.3262 C.3       13 UNK         0.1400 
     76 CB         -1.4943  -22.7065  -48.6217 C.3       13 UNK        -0.1800 
     77 C          -2.7970  -24.4959  -47.4410 C.2       13 UNK         0.5000 
     78 O          -2.6721  -24.5986  -46.2163 O.2       13 UNK        -0.5000 
     79 N          -3.9739  -24.5699  -48.0727 N.am      14 UNK        -0.5000 
     80 CA         -5.2801  -24.7223  -47.4295 C.3       14 UNK         0.1400 
     81 CB         -6.2834  -25.2354  -48.4782 C.3       14 UNK        -0.1800 
     82 C          -5.7430  -23.4110  -46.7549 C.2       14 UNK         0.5000 
     83 O          -6.6993  -22.7827  -47.2133 O.2       14 UNK        -0.5000 
     84 N          -5.0338  -23.0243  -45.6850 N.am      15 UNK        -0.5000 
     85 CA         -5.1521  -21.7696  -44.9330 C.3       15 UNK         0.1400 
     86 CB         -6.5355  -21.6504  -44.2555 C.3       15 UNK        -0.1800 
     87 C          -4.7698  -20.5415  -45.7888 C.2       15 UNK         0.5000 
     88 O          -4.0278  -20.6891  -46.7617 O.2       15 UNK        -0.5000 
     89 N          -5.2354  -19.3481  -45.3902 N.am      16 UNK        -0.5000 
     90 CA         -4.9711  -18.0818  -46.0766 C.3       16 UNK         0.1400 
     91 CB         -5.5361  -16.9166  -45.2475 C.3       16 UNK        -0.1800 
     92 C          -5.5720  -18.0668  -47.4921 C.2       16 UNK         0.5000 
     93 O          -6.7668  -18.3325  -47.6452 O.2       16 UNK        -0.5000 
     94 N          -4.7435  -17.7477  -48.4889 N.am      17 UNK        -0.5000 
     95 CA         -5.0949  -17.7466  -49.9031 C.3       17 UNK         0.1400 
     96 CB         -5.2833  -19.1918  -50.4016 C.3       17 UNK        -0.1800 
     97 C          -3.9823  -17.0646  -50.7056 C.2       17 UNK         0.5000 
     98 O          -2.8286  -17.0521  -50.2720 O.2       17 UNK        -0.5000 
     99 N          -4.3434  -16.5483  -51.8860 N.am      18 UNK        -0.5000 
    100 CA        -3.3972  -16.1280  -52.9199 C.3       18 UNK         0.1400 
    101 CB        -4.1607  -15.3353  -53.9918 C.3       18 UNK        -0.1800 
    102 C         -2.7008  -17.3505  -53.5488 C.2       18 UNK         0.5000 
    103 O         -3.2410  -18.4559  -53.4851 O.2       18 UNK        -0.5000 
    104 N         -1.5403  -17.1311  -54.1810 N.am      19 UNK        -0.5000 
    105 CA        -0.6652  -18.1782  -54.7260 C.3       19 UNK         0.1400 
    106 CB         0.5870  -17.5266  -55.3304 C.3       19 UNK        -0.1800 
    107 C         -1.3223  -19.1420  -55.7363 C.2       19 UNK         0.5000 
    108 O         -0.9347  -20.3086  -55.8027 O.2       19 UNK        -0.5000 
    109 N         -2.3190  -18.6498  -56.4815 N.am      20 UNK        -0.5000 
    110 CA        -3.1126  -19.4316  -57.4311 C.3       20 UNK         0.1400 
    111 CB        -3.6740  -18.4728  -58.4937 C.3       20 UNK        -0.1800 
    112 C         -4.2581  -20.2307  -56.7716 C.2       20 UNK         0.5000 
    113 O         -4.8693  -21.0591  -57.4480 O.2       20 UNK        -0.5000 
    114 N         -4.5563  -19.9584  -55.4940 N.am      21 UNK        -0.5000 
    115 CA        -5.7199  -20.4670  -54.7655 C.3       21 UNK         0.1400 
    116 CB        -6.6025  -19.2657  -54.3797 C.3       21 UNK        -0.1800 
    117 C         -5.3386  -21.3032  -53.5272 C.2       21 UNK         0.5000 
    118 O         -6.2301  -21.6639  -52.7578 O.2       21 UNK        -0.5000 
    119 N         -4.0439  -21.6007  -53.3448 N.am      22 UNK        -0.5000 
    120 CA        -3.4956  -22.3665  -52.2085 C.3       22 UNK         0.1400 
    121 C         -4.0235  -23.8233  -52.0468 C.2       22 UNK         0.5000 
    122 N         -4.5768  -24.4532  -53.0754 N.am      22 UNK        -0.7600 
    123 O         -3.9219  -24.3889  -50.9609 O.2       22 UNK        -0.5000 
    124 C124       -1.9470  -22.3800  -52.2289 C.3       23 UNK        -0.0398 
    125 S125       -1.2016  -20.7759  -51.7954 S.3       23 UNK        -0.2404 
    126 C126        0.4879  -21.0699  -52.4130 C.3       23 UNK        -0.0205 
    127 H127        1.0009  -13.3719  -45.5408 H         1 UNK         0.0600 
    128 H128       -0.7557  -13.4829  -45.7016 H         1 UNK         0.0600 
    129 H129        0.0114  -11.9179  -45.4862 H         1 UNK         0.0600 
    130 H130        0.1645  -13.6301  -49.2801 H         1 UNK         0.3000 
    131 H131       -0.1027  -15.3562  -46.9290 H         1 UNK         0.0600 
    132 H132       -0.3696  -17.1696  -48.6189 H         1 UNK         0.0800 
    133 H133       -0.3650  -15.9888  -49.8989 H         1 UNK         0.0800 
    134 H134        1.4077  -16.1686  -51.3047 H         1 UNK         0.0800 
    135 H135        3.1027  -16.0528  -50.9303 H         1 UNK         0.0800 
    136 H136        0.4114  -18.3714  -51.7380 H         1 UNK         0.1150 
    137 H137        2.9585  -21.8249  -51.6543 H         1 UNK         0.1150 
    138 H138        4.3827  -18.0786  -50.1553 H         1 UNK         0.1150 
    139 H139        5.3449  -21.5158  -51.1546 H         1 UNK         0.0800 
    140 H140        5.9468  -19.9620  -50.6389 H         1 UNK         0.0800 
    141 H141        2.8854  -22.0613  -48.7608 H         1 UNK         0.0800 
    142 H142        3.9277  -23.0299  -49.7786 H         1 UNK         0.0800 
    143 H143        5.0181  -24.0230  -47.7734 H         1 UNK         0.0600 
    144 H144        3.0851  -22.3589  -46.2373 H         1 UNK         0.3000 
    145 H145        4.5757  -23.1568  -43.1676 H         1 UNK         0.0600 
    146 H146        4.8994  -20.7250  -42.8089 H         1 UNK         0.0600 
    147 H147        4.8566  -20.4335  -44.5476 H         1 UNK         0.0600 
    148 H148        6.1776  -21.3528  -43.8370 H         1 UNK         0.0600 
    149 H149        2.6162  -21.2079  -43.8008 H         1 UNK         0.3000 
    150 H150       -0.1208  -23.3601  -44.5025 H         1 UNK         0.0600 
    151 H151       -0.0771  -23.3920  -41.9989 H         1 UNK         0.0600 
    152 H152       -1.2012  -22.1872  -42.6083 H         1 UNK         0.0600 
    153 H153        0.3695  -21.6892  -41.9805 H         1 UNK         0.0600 
    154 H154       -0.0831  -20.5713  -44.1591 H         1 UNK         0.3000 
    155 H155        0.9416  -19.6241  -47.4742 H         1 UNK         0.0600 
    156 H156       -1.4389  -19.8919  -47.6613 H         1 UNK         0.0600 
    157 H157       -1.2483  -18.3410  -46.8768 H         1 UNK         0.0600 
    158 H158       -1.6918  -19.7408  -45.9234 H         1 UNK         0.0600 
    159 H159        0.2770  -18.2835  -44.9753 H         1 UNK         0.3000 
    160 H160        3.6107  -17.5678  -44.0491 H         1 UNK         0.0600 
    161 H161        1.4880  -15.7111  -45.2449 H         1 UNK         0.0600 
    162 H162        3.1341  -15.8697  -45.8459 H         1 UNK         0.0600 
    163 H163        2.8486  -15.2220  -44.2365 H         1 UNK         0.0600 
    164 H164        1.0400  -16.7176  -43.0807 H         1 UNK         0.3000 
    165 H165        0.5090  -19.4300  -40.8346 H         1 UNK         0.0600 
    166 H166        0.4904  -17.5817  -39.1945 H         1 UNK         0.0600 
    167 H167        2.1418  -17.9162  -39.6885 H         1 UNK         0.0600 
    168 H168        1.3034  -16.5113  -40.3367 H         1 UNK         0.0600 
    169 H169       -1.0120  -17.1038  -41.1447 H         1 UNK         0.3000 
    170 H170       -2.9946  -17.9888  -43.9107 H         1 UNK         0.0600 
    171 H171       -3.8643  -19.6688  -42.2923 H         1 UNK         0.0600 
    172 H172       -3.7192  -18.5099  -40.9768 H         1 UNK         0.0600 
    173 H173       -4.8716  -18.2317  -42.2803 H         1 UNK         0.0600 
    174 H174       -3.4787  -16.1550  -41.7875 H         1 UNK         0.3000 
    175 H175       -3.3663  -14.0135  -42.1355 H         1 UNK         0.0600 
    176 H176       -0.4517  -13.3556  -42.8714 H         1 UNK         0.0600 
    177 H177       -1.5033  -12.3717  -41.8557 H         1 UNK         0.0600 
    178 H178       -0.9905  -13.9596  -41.3084 H         1 UNK         0.0600 
    179 H179       -2.6199  -13.6758  -44.9130 H         1 UNK         0.3000 
    180 H180       -4.9362  -11.1281  -45.4019 H         1 UNK         0.0600 
    181 H181       -3.1678   -9.5196  -44.7135 H         1 UNK         0.0600 
    182 H182       -3.2213   -9.6784  -46.4609 H         1 UNK         0.0600 
    183 H183       -1.9450  -10.4744  -45.5409 H         1 UNK         0.0600 
    184 H184       -2.7877  -12.2234  -47.0302 H         1 UNK         0.3000 
    185 H185       -4.6415  -14.9473  -48.2662 H         1 UNK         0.0600 
    186 H186       -5.7507  -13.1357  -49.5455 H         1 UNK         0.0600 
    187 H187       -4.2303  -12.2596  -49.6767 H         1 UNK         0.0600 
    188 H188       -4.4254  -13.8218  -50.4716 H         1 UNK         0.0600 
    189 H189       -2.1998  -13.4590  -48.9517 H         1 UNK         0.3000 
    190 H190        2.4985  -24.6275  -45.8851 H         1 UNK         0.3000 
    191 H191        0.9676  -26.1622  -45.6260 H         1 UNK         0.0600 
    192 H192        1.2234  -28.3546  -46.6936 H         1 UNK         0.0600 
    193 H193        2.8103  -27.7171  -46.3006 H         1 UNK         0.0600 
    194 H194        2.2299  -27.6786  -47.9655 H         1 UNK         0.0600 
    195 H195        0.2436  -23.8892  -47.2754 H         1 UNK         0.3000 
    196 H196       -1.6722  -24.7506  -49.2686 H         1 UNK         0.0600 
    197 H197       -1.5115  -22.1346  -47.6961 H         1 UNK         0.0600 
    198 H198       -0.5889  -22.4440  -49.1696 H         1 UNK         0.0600 
    199 H199       -2.3489  -22.3779  -49.2135 H         1 UNK         0.0600 
    200 H200       -3.9894  -24.4629  -49.0852 H         1 UNK         0.3000 
    201 H201       -5.1995  -25.4822  -46.6493 H         1 UNK         0.0600 
    202 H202       -7.2706  -25.3812  -48.0379 H         1 UNK         0.0600 
    203 H203       -5.9667  -26.1938  -48.8901 H         1 UNK         0.0600 
    204 H204       -6.3913  -24.5357  -49.3083 H         1 UNK         0.0600 
    205 H205       -4.2097  -23.5793  -45.4747 H         1 UNK         0.3000 
    206 H206       -4.4021  -21.8284  -44.1429 H         1 UNK         0.0600 
    207 H207       -6.7984  -22.5722  -43.7364 H         1 UNK         0.0600 
    208 H208       -6.5458  -20.8544  -43.5105 H         1 UNK         0.0600 
    209 H209       -7.3253  -21.4382  -44.9770 H         1 UNK         0.0600 
    210 H210       -5.8752  -19.3118  -44.6114 H         1 UNK         0.3000 
    211 H211       -3.8882  -17.9690  -46.1456 H         1 UNK         0.0600 
    212 H212       -6.6224  -16.9689  -45.1651 H         1 UNK         0.0600 
    213 H213       -5.2876  -15.9621  -45.7110 H         1 UNK         0.0600 
    214 H214       -5.1279  -16.8963  -44.2401 H         1 UNK         0.0600 
    215 H215       -3.7826  -17.4855  -48.2900 H         1 UNK         0.3000 
    216 H216       -6.0205  -17.1832  -50.0379 H         1 UNK         0.0600 
    217 H217       -6.1160  -19.6907  -49.9063 H         1 UNK         0.0600 
    218 H218       -4.3864  -19.7882  -50.2306 H         1 UNK         0.0600 
    219 H219       -5.4895  -19.2106  -51.4707 H         1 UNK         0.0600 
    220 H220       -5.3058  -16.6298  -52.1772 H         1 UNK         0.3000 
    221 H221       -2.6408  -15.4838  -52.4666 H         1 UNK         0.0600 
    222 H222       -4.6579  -14.4667  -53.5594 H         1 UNK         0.0600 
    223 H223       -3.4855  -14.9683  -54.7658 H         1 UNK         0.0600 
    224 H224       -4.9196  -15.9473  -54.4816 H         1 UNK         0.0600 
    225 H225       -1.1813  -16.1884  -54.2233 H         1 UNK         0.3000 
    226 H226       -0.3476  -18.7863  -53.8820 H         1 UNK         0.0600 
    227 H227        1.1345  -16.9543  -54.5812 H         1 UNK         0.0600 
    228 H228        1.2708  -18.2814  -55.7212 H         1 UNK         0.0600 
    229 H229        0.3338  -16.8549  -56.1515 H         1 UNK         0.0600 
    230 H230       -2.5799  -17.6827  -56.3568 H         1 UNK         0.3000 
    231 H231       -2.4615  -20.1499  -57.9339 H         1 UNK         0.0600 
    232 H232       -4.2406  -19.0150  -59.2520 H         1 UNK         0.0600 
    233 H233       -2.8732  -17.9416  -59.0085 H         1 UNK         0.0600 
    234 H234       -4.3415  -17.7309  -58.0534 H         1 UNK         0.0600 
    235 H235       -3.9751  -19.3073  -54.9707 H         1 UNK         0.3000 
    236 H236       -6.3126  -21.1252  -55.4034 H         1 UNK         0.0600 
    237 H237       -6.0667  -18.5636  -53.7407 H         1 UNK         0.0600 
    238 H238       -6.9331  -18.7229  -55.2653 H         1 UNK         0.0600 
    239 H239       -7.4979  -19.5838  -53.8444 H         1 UNK         0.0600 
    240 H240       -3.3726  -21.2340  -54.0033 H         1 UNK         0.3000 
    241 H241       -3.8135  -21.8478  -51.3029 H         1 UNK         0.0600 
    242 H242       -4.6715  -23.9974  -53.9684 H         1 UNK         0.3800 
    243 H243       -4.9159  -25.3942  -52.9534 H         1 UNK         0.3800 
    244 H244       -1.5900  -22.6920  -53.2121 H         1 UNK         0.0800 
    245 H245       -1.5466  -23.1082  -51.5212 H         1 UNK         0.0800 
    246 H246        0.7304  -22.1206  -52.2456 H         1 UNK         0.0800 
    247 H247        0.5127  -20.9236  -53.4928 H         1 UNK         0.0800 
@<TRIPOS>BOND
     1    1    2 1    
     2    1  127 1    
     3    1  128 1    
     4    1  129 1    
     5    2    3 2    
     6    2    4 am   BACKBONE|DICT|INTERRES
     7    4    5 1    
     8    4  130 1    
     9    5    6 1    
    10    5   65 1    
    11    5  131 1    
    12    6    7 1    
    13    6  132 1    
    14    6  133 1    
    15    7    8 1    
    16    8    9 1    
    17    8  134 1    
    18    8  135 1    
    19    9   10 ar   
    20    9   14 ar   
    21   10   11 ar   
    22   10  136 1    
    23   11   12 ar   
    24   11  126 1    
    25   12   13 ar   
    26   12  137 1    
    27   13   14 ar   
    28   13   15 1    
    29   14  138 1    
    30   15   16 1    
    31   15  139 1    
    32   15  140 1    
    33   16   17 1    
    34   17   18 1    
    35   17  141 1    
    36   17  142 1    
    37   18   19 1    
    38   18   67 1    
    39   18  143 1    
    40   19   20 am   BACKBONE|DICT|INTERRES
    41   19  144 1    
    42   20   21 2    
    43   20   22 1    
    44   22   23 1    
    45   22   24 1    
    46   22  145 1    
    47   23  146 1    
    48   23  147 1    
    49   23  148 1    
    50   24   25 am   BACKBONE|DICT|INTERRES
    51   24  149 1    
    52   25   26 2    
    53   25   27 1    
    54   27   28 1    
    55   27   29 1    
    56   27  150 1    
    57   28  151 1    
    58   28  152 1    
    59   28  153 1    
    60   29   30 am   BACKBONE|DICT|INTERRES
    61   29  154 1    
    62   30   31 2    
    63   30   32 1    
    64   32   33 1    
    65   32   34 1    
    66   32  155 1    
    67   33  156 1    
    68   33  157 1    
    69   33  158 1    
    70   34   35 am   BACKBONE|DICT|INTERRES
    71   34  159 1    
    72   35   36 2    
    73   35   37 1    
    74   37   38 1    
    75   37   39 1    
    76   37  160 1    
    77   38  161 1    
    78   38  162 1    
    79   38  163 1    
    80   39   40 am   BACKBONE|DICT|INTERRES
    81   39  164 1    
    82   40   41 2    
    83   40   42 1    
    84   42   43 1    
    85   42   44 1    
    86   42  165 1    
    87   43  166 1    
    88   43  167 1    
    89   43  168 1    
    90   44   45 am   BACKBONE|DICT|INTERRES
    91   44  169 1    
    92   45   46 2    
    93   45   47 1    
    94   47   48 1    
    95   47   49 1    
    96   47  170 1    
    97   48  171 1    
    98   48  172 1    
    99   48  173 1    
   100   49   50 am   BACKBONE|DICT|INTERRES
   101   49  174 1    
   102   50   51 2    
   103   50   52 1    
   104   52   53 1    
   105   52   54 1    
   106   52  175 1    
   107   53  176 1    
   108   53  177 1    
   109   53  178 1    
   110   54   55 am   BACKBONE|DICT|INTERRES
   111   54  179 1    
   112   55   56 2    
   113   55   57 1    
   114   57   58 1    
   115   57   59 1    
   116   57  180 1    
   117   58  181 1    
   118   58  182 1    
   119   58  183 1    
   120   59   60 am   BACKBONE|DICT|INTERRES
   121   59  184 1    
   122   60   61 2    
   123   60   62 1    
   124   62   63 1    
   125   62   64 1    
   126   62  185 1    
   127   63  186 1    
   128   63  187 1    
   129   63  188 1    
   130   64   65 am   BACKBONE|DICT|INTERRES
   131   64  189 1    
   132   65   66 2    
   133   67   68 2    
   134   67   69 am   BACKBONE|DICT|INTERRES
   135   69   70 1    
   136   69  190 1    
   137   70   71 1    
   138   70   72 1    
   139   70  191 1    
   140   71  192 1    
   141   71  193 1    
   142   71  194 1    
   143   72   73 2    
   144   72   74 am   BACKBONE|DICT|INTERRES
   145   74   75 1    
   146   74  195 1    
   147   75   76 1    
   148   75   77 1    
   149   75  196 1    
   150   76  197 1    
   151   76  198 1    
   152   76  199 1    
   153   77   78 2    
   154   77   79 am   BACKBONE|DICT|INTERRES
   155   79   80 1    
   156   79  200 1    
   157   80   81 1    
   158   80   82 1    
   159   80  201 1    
   160   81  202 1    
   161   81  203 1    
   162   81  204 1    
   163   82   83 2    
   164   82   84 am   BACKBONE|DICT|INTERRES
   165   84   85 1    
   166   84  205 1    
   167   85   86 1    
   168   85   87 1    
   169   85  206 1    
   170   86  207 1    
   171   86  208 1    
   172   86  209 1    
   173   87   88 2    
   174   87   89 am   BACKBONE|DICT|INTERRES
   175   89   90 1    
   176   89  210 1    
   177   90   91 1    
   178   90   92 1    
   179   90  211 1    
   180   91  212 1    
   181   91  213 1    
   182   91  214 1    
   183   92   93 2    
   184   92   94 am   BACKBONE|DICT|INTERRES
   185   94   95 1    
   186   94  215 1    
   187   95   96 1    
   188   95   97 1    
   189   95  216 1    
   190   96  217 1    
   191   96  218 1    
   192   96  219 1    
   193   97   98 2    
   194   97   99 am   BACKBONE|DICT|INTERRES
   195   99  100 1    
   196   99  220 1    
   197  100  101 1    
   198  100  102 1    
   199  100  221 1    
   200  101  222 1    
   201  101  223 1    
   202  101  224 1    
   203  102  103 2    
   204  102  104 am   BACKBONE|DICT|INTERRES
   205  104  105 1    
   206  104  225 1    
   207  105  106 1    
   208  105  107 1    
   209  105  226 1    
   210  106  227 1    
   211  106  228 1    
   212  106  229 1    
   213  107  108 2    
   214  107  109 am   BACKBONE|DICT|INTERRES
   215  109  110 1    
   216  109  230 1    
   217  110  111 1    
   218  110  112 1    
   219  110  231 1    
   220  111  232 1    
   221  111  233 1    
   222  111  234 1    
   223  112  113 2    
   224  112  114 am   BACKBONE|DICT|INTERRES
   225  114  115 1    
   226  114  235 1    
   227  115  116 1    
   228  115  117 1    
   229  115  236 1    
   230  116  237 1    
   231  116  238 1    
   232  116  239 1    
   233  117  118 2    
   234  117  119 am   BACKBONE|DICT|INTERRES
   235  119  120 1    
   236  119  240 1    
   237  120  121 1    
   238  120  124 1    
   239  120  241 1    
   240  121  122 am   BACKBONE|DICT|INTERRES
   241  121  123 2    
   242  122  242 1    
   243  122  243 1    
   244  124  125 1    
   245  124  244 1    
   246  124  245 1    
   247  125  126 1    
   248  126  246 1    
   249  126  247 1    
@<TRIPOS>SUBSTRUCTURE
     1 UNK         1 GROUP             0       ****    0 ROOT    
