@<TRIPOS>MOLECULE
3R540
247   249    1
SMALL
USER_CHARGES


@<TRIPOS>ATOM
      1 CA          0.8193  -11.9761  -53.9262 C.3       0 UNK        -0.1800 
      2 C           1.2215  -12.8618  -52.7557 C.2       0 UNK         0.5000 
      3 O           2.4124  -13.0388  -52.4999 O.2       0 UNK        -0.5000 
      4 N           0.2344  -13.4110  -52.0363 N.am      1 UNK        -0.5000 
      5 CA          0.4265  -14.2926  -50.8771 C.3       1 UNK         0.1400 
      6 C6         -0.8261  -15.1691  -50.6097 C.3       23 UNK        -0.0398 
      7 S7         -2.3651  -14.2419  -50.2414 S.3       23 UNK        -0.2404 
      8 C8         -2.3455  -14.0717  -48.4230 C.3       23 UNK        -0.0205 
      9 C9         -2.5606  -15.3909  -47.6980 C.ar      23 UNK        -0.0193 
     10 C10        -3.8540  -15.8067  -47.3737 C.ar      23 UNK        -0.1150 
     11 C11        -4.0694  -17.0153  -46.6984 C.ar      23 UNK        -0.0193 
     12 C12        -2.9656  -17.8042  -46.3590 C.ar      23 UNK        -0.1150 
     13 C13        -1.6655  -17.4043  -46.6818 C.ar      23 UNK        -0.0193 
     14 C14        -1.4709  -16.1851  -47.3320 C.ar      23 UNK        -0.1150 
     15 C15        -0.4676  -18.2813  -46.3415 C.3       23 UNK        -0.0205 
     16 S16         0.0635  -19.2918  -47.7556 S.3       23 UNK        -0.2404 
     17 C17        -1.2180  -20.5863  -47.7507 C.3       23 UNK        -0.0398 
     18 CA         -0.6880  -21.9755  -47.3357 C.3       11 UNK         0.1400 
     19 N          -0.0420  -22.0057  -46.0221 N.am      11 UNK        -0.5000 
     20 C           0.7524  -23.0065  -45.6143 C.2       10 UNK         0.5000 
     21 O           1.0816  -23.9543  -46.3278 O.2       10 UNK        -0.5000 
     22 CA          1.2181  -22.9696  -44.1499 C.3       10 UNK         0.1400 
     23 CB          2.5039  -22.1411  -44.0076 C.3       10 UNK        -0.1800 
     24 N           0.1832  -22.4530  -43.2514 N.am      10 UNK        -0.5000 
     25 C          -0.9513  -23.1106  -42.9640 C.2       9 UNK         0.5000 
     26 O          -1.2375  -24.2075  -43.4444 O.2       9 UNK        -0.5000 
     27 CA         -1.9476  -22.4393  -41.9982 C.3       9 UNK         0.1400 
     28 CB         -1.7271  -22.9505  -40.5669 C.3       9 UNK        -0.1800 
     29 N          -1.8879  -20.9787  -41.9955 N.am      9 UNK        -0.5000 
     30 C          -2.1847  -20.1900  -43.0369 C.2       8 UNK         0.5000 
     31 O          -2.5430  -20.6133  -44.1383 O.2       8 UNK        -0.5000 
     32 CA         -1.9844  -18.6749  -42.8146 C.3       8 UNK         0.1400 
     33 CB         -3.2397  -18.0512  -42.1889 C.3       8 UNK        -0.1800 
     34 N          -0.8102  -18.3279  -42.0021 N.am      8 UNK        -0.5000 
     35 C           0.4451  -18.7486  -42.2201 C.2       7 UNK         0.5000 
     36 O           0.7523  -19.5317  -43.1191 O.2       7 UNK        -0.5000 
     37 CA          1.5225  -18.1879  -41.2792 C.3       7 UNK         0.1400 
     38 CB          2.9106  -18.8063  -41.5275 C.3       7 UNK        -0.1800 
     39 N           1.6045  -16.7470  -41.4822 N.am      7 UNK        -0.5000 
     40 C           1.4628  -15.8091  -40.5374 C.2       6 UNK         0.5000 
     41 O           1.2700  -16.0637  -39.3479 O.2       6 UNK        -0.5000 
     42 CA          1.5427  -14.3334  -40.9871 C.3       6 UNK         0.1400 
     43 CB          2.9275  -13.7499  -40.6666 C.3       6 UNK        -0.1800 
     44 N           1.2689  -14.1373  -42.4123 N.am      6 UNK        -0.5000 
     45 C           0.0849  -14.3472  -43.0029 C.2       5 UNK         0.5000 
     46 O          -0.9408  -14.6358  -42.3858 O.2       5 UNK        -0.5000 
     47 CA          0.0379  -14.2491  -44.5412 C.3       5 UNK         0.1400 
     48 CB         -0.5523  -12.8977  -44.9675 C.3       5 UNK        -0.1800 
     49 N           1.3169  -14.4521  -45.2376 N.am      5 UNK        -0.5000 
     50 C           2.1027  -15.5367  -45.1487 C.2       4 UNK         0.5000 
     51 O           1.9131  -16.4430  -44.3387 O.2       4 UNK        -0.5000 
     52 CA          3.2914  -15.6504  -46.1200 C.3       4 UNK         0.1400 
     53 CB          3.0545  -16.8016  -47.1115 C.3       4 UNK        -0.1800 
     54 N           3.5178  -14.4223  -46.8829 N.am      4 UNK        -0.5000 
     55 C           4.4698  -13.5175  -46.6177 C.2       3 UNK         0.5000 
     56 O           5.2554  -13.6112  -45.6738 O.2       3 UNK        -0.5000 
     57 CA          4.5732  -12.3009  -47.5623 C.3       3 UNK         0.1400 
     58 CB          5.6533  -12.5420  -48.6279 C.3       3 UNK        -0.1800 
     59 N           3.3159  -11.9645  -48.2330 N.am      3 UNK        -0.5000 
     60 C           2.2258  -11.4934  -47.6142 C.2       2 UNK         0.5000 
     61 O           2.1795  -11.2506  -46.4085 O.2       2 UNK        -0.5000 
     62 CA          0.9609  -11.2934  -48.4715 C.3       2 UNK         0.1400 
     63 CB          0.8868   -9.8461  -48.9804 C.3       2 UNK        -0.1800 
     64 N           0.8063  -12.2034  -49.6130 N.am      2 UNK        -0.5000 
     65 C           0.8753  -13.5442  -49.6005 C.2       1 UNK         0.5000 
     66 O           1.2374  -14.1963  -48.6213 O.2       1 UNK        -0.5000 
     67 C          -1.8326  -22.9991  -47.3891 C.2       11 UNK         0.5000 
     68 O          -1.9494  -23.7115  -48.3839 O.2       11 UNK        -0.5000 
     69 N          -2.6455  -23.0716  -46.3232 N.am      12 UNK        -0.5000 
     70 CA         -3.7837  -23.9891  -46.2060 C.3       12 UNK         0.1400 
     71 CB         -4.5302  -23.7252  -44.8910 C.3       12 UNK        -0.1800 
     72 C          -3.3742  -25.4694  -46.3216 C.2       12 UNK         0.5000 
     73 O          -4.0149  -26.2217  -47.0566 O.2       12 UNK        -0.5000 
     74 N          -2.2651  -25.8347  -45.6632 N.am      13 UNK        -0.5000 
     75 CA         -1.6267  -27.1517  -45.7462 C.3       13 UNK         0.1400 
     76 CB         -0.5012  -27.2214  -44.7030 C.3       13 UNK        -0.1800 
     77 C          -1.0782  -27.4959  -47.1479 C.2       13 UNK         0.5000 
     78 O          -0.9250  -28.6761  -47.4636 O.2       13 UNK        -0.5000 
     79 N          -0.8125  -26.4688  -47.9639 N.am      14 UNK        -0.5000 
     80 CA         -0.3398  -26.5623  -49.3438 C.3       14 UNK         0.1400 
     81 CB          0.7964  -25.5415  -49.5355 C.3       14 UNK        -0.1800 
     82 C          -1.4805  -26.3498  -50.3628 C.2       14 UNK         0.5000 
     83 O          -1.1994  -26.0187  -51.5147 O.2       14 UNK        -0.5000 
     84 N          -2.7406  -26.5249  -49.9296 N.am      15 UNK        -0.5000 
     85 CA         -3.9777  -26.3760  -50.7069 C.3       15 UNK         0.1400 
     86 CB         -4.0601  -27.4391  -51.8228 C.3       15 UNK        -0.1800 
     87 C          -4.1634  -24.9373  -51.2281 C.2       15 UNK         0.5000 
     88 O          -4.2943  -24.7167  -52.4331 O.2       15 UNK        -0.5000 
     89 N          -4.1089  -23.9779  -50.2938 N.am      16 UNK        -0.5000 
     90 CA         -4.1283  -22.5250  -50.5066 C.3       16 UNK         0.1400 
     91 CB         -5.4762  -22.0664  -51.1006 C.3       16 UNK        -0.1800 
     92 C          -2.9149  -22.0361  -51.3244 C.2       16 UNK         0.5000 
     93 O          -3.0369  -21.0985  -52.1104 O.2       16 UNK        -0.5000 
     94 N          -1.7690  -22.7061  -51.1430 N.am      17 UNK        -0.5000 
     95 CA         -0.5257  -22.5575  -51.9086 C.3       17 UNK         0.1400 
     96 CB          0.0888  -21.1578  -51.6924 C.3       17 UNK        -0.1800 
     97 C          -0.6692  -22.9284  -53.4049 C.2       17 UNK         0.5000 
     98 O           0.1592  -22.5091  -54.2139 O.2       17 UNK        -0.5000 
     99 N          -1.7050  -23.7173  -53.7327 N.am      18 UNK        -0.5000 
    100 CA        -2.0809  -24.2478  -55.0454 C.3       18 UNK         0.1400 
    101 CB        -1.1296  -25.4026  -55.4193 C.3       18 UNK        -0.1800 
    102 C         -2.1767  -23.1698  -56.1534 C.2       18 UNK         0.5000 
    103 O         -1.3672  -23.1834  -57.0810 O.2       18 UNK        -0.5000 
    104 N         -3.1261  -22.2256  -56.0976 N.am      19 UNK        -0.5000 
    105 CA        -4.1909  -22.0325  -55.1103 C.3       19 UNK         0.1400 
    106 CB        -5.4372  -22.8413  -55.5173 C.3       19 UNK        -0.1800 
    107 C         -4.4626  -20.5199  -54.9795 C.2       19 UNK         0.5000 
    108 O         -5.6112  -20.0813  -55.0540 O.2       19 UNK        -0.5000 
    109 N         -3.3783  -19.7412  -54.8662 N.am      20 UNK        -0.5000 
    110 CA        -3.3836  -18.2781  -54.8935 C.3       20 UNK         0.1400 
    111 CB        -1.9864  -17.7977  -55.3185 C.3       20 UNK        -0.1800 
    112 C         -3.7887  -17.6105  -53.5648 C.2       20 UNK         0.5000 
    113 O         -4.1859  -16.4441  -53.5862 O.2       20 UNK        -0.5000 
    114 N         -3.6513  -18.3216  -52.4385 N.am      21 UNK        -0.5000 
    115 CA        -3.9460  -17.8079  -51.0999 C.3       21 UNK         0.1400 
    116 CB        -3.1302  -18.6069  -50.0738 C.3       21 UNK        -0.1800 
    117 C         -5.4531  -17.8431  -50.7741 C.2       21 UNK         0.5000 
    118 O         -6.2558  -18.3336  -51.5709 O.2       21 UNK        -0.5000 
    119 N         -5.8123  -17.3242  -49.5925 N.am      22 UNK        -0.5000 
    120 CA        -7.2015  -17.2017  -49.1135 C.3       22 UNK         0.1400 
    121 C         -7.9308  -18.5209  -48.7119 C.2       22 UNK         0.5000 
    122 N         -7.2899  -19.6820  -48.7635 N.am      22 UNK        -0.7600 
    123 O         -9.1071  -18.4917  -48.3609 O.2       22 UNK        -0.5000 
    124 C124       -7.3686  -16.0623  -48.0689 C.3       23 UNK        -0.0398 
    125 S125       -6.8117  -16.3007  -46.3324 S.3       23 UNK        -0.2404 
    126 C126       -5.4614  -17.5350  -46.3362 C.3       23 UNK        -0.0205 
    127 H127        1.2124  -10.9690  -53.7872 H         1 UNK         0.0600 
    128 H128       -0.2640  -11.9074  -54.0292 H         1 UNK         0.0600 
    129 H129        1.2244  -12.3763  -54.8556 H         1 UNK         0.0600 
    130 H130       -0.7282  -13.2259  -52.2836 H         1 UNK         0.3000 
    131 H131        1.2423  -14.9769  -51.1201 H         1 UNK         0.0600 
    132 H132       -1.0264  -15.7703  -51.4978 H         1 UNK         0.0800 
    133 H133       -0.6245  -15.9012  -49.8302 H         1 UNK         0.0800 
    134 H134       -3.1304  -13.3697  -48.1377 H         1 UNK         0.0800 
    135 H135       -1.4160  -13.6134  -48.0952 H         1 UNK         0.0800 
    136 H136       -4.6825  -15.1733  -47.6506 H         1 UNK         0.1150 
    137 H137       -3.1265  -18.7418  -45.8480 H         1 UNK         0.1150 
    138 H138       -0.4656  -15.8637  -47.5631 H         1 UNK         0.1150 
    139 H139        0.3645  -17.6547  -46.0305 H         1 UNK         0.0800 
    140 H140       -0.6774  -18.9400  -45.5013 H         1 UNK         0.0800 
    141 H141       -1.6214  -20.6361  -48.7623 H         1 UNK         0.0800 
    142 H142       -2.0479  -20.2893  -47.1111 H         1 UNK         0.0800 
    143 H143        0.0525  -22.2757  -48.0808 H         1 UNK         0.0600 
    144 H144       -0.2707  -21.2661  -45.3733 H         1 UNK         0.3000 
    145 H145        1.4436  -23.9943  -43.8462 H         1 UNK         0.0600 
    146 H146        2.8265  -22.0830  -42.9681 H         1 UNK         0.0600 
    147 H147        3.3179  -22.5913  -44.5769 H         1 UNK         0.0600 
    148 H148        2.3753  -21.1238  -44.3780 H         1 UNK         0.0600 
    149 H149        0.3248  -21.5155  -42.8914 H         1 UNK         0.3000 
    150 H150       -2.9531  -22.7267  -42.3091 H         1 UNK         0.0600 
    151 H151       -1.7945  -24.0386  -40.5260 H         1 UNK         0.0600 
    152 H152       -2.4801  -22.5545  -39.8853 H         1 UNK         0.0600 
    153 H153       -0.7450  -22.6678  -40.1856 H         1 UNK         0.0600 
    154 H154       -1.5834  -20.5402  -41.1390 H         1 UNK         0.3000 
    155 H155       -1.8438  -18.2057  -43.7856 H         1 UNK         0.0600 
    156 H156       -4.1241  -18.2678  -42.7900 H         1 UNK         0.0600 
    157 H157       -3.1502  -16.9662  -42.1268 H         1 UNK         0.0600 
    158 H158       -3.4221  -18.4326  -41.1836 H         1 UNK         0.0600 
    159 H159       -0.9649  -17.6621  -41.2585 H         1 UNK         0.3000 
    160 H160        1.2176  -18.4259  -40.2583 H         1 UNK         0.0600 
    161 H161        3.2637  -18.6073  -42.5405 H         1 UNK         0.0600 
    162 H162        2.8872  -19.8883  -41.3925 H         1 UNK         0.0600 
    163 H163        3.6486  -18.4069  -40.8320 H         1 UNK         0.0600 
    164 H164        1.7181  -16.4607  -42.4524 H         1 UNK         0.3000 
    165 H165        0.7951  -13.7764  -40.4186 H         1 UNK         0.0600 
    166 H166        2.9751  -12.6884  -40.9103 H         1 UNK         0.0600 
    167 H167        3.1575  -13.8488  -39.6049 H         1 UNK         0.0600 
    168 H168        3.7162  -14.2590  -41.2223 H         1 UNK         0.0600 
    169 H169        2.0570  -13.9078  -42.9996 H         1 UNK         0.3000 
    170 H170       -0.6379  -15.0360  -44.8799 H         1 UNK         0.0600 
    171 H171       -0.6901  -12.8511  -46.0455 H         1 UNK         0.0600 
    172 H172       -1.5290  -12.7335  -44.5102 H         1 UNK         0.0600 
    173 H173        0.0927  -12.0684  -44.6747 H         1 UNK         0.0600 
    174 H174        1.5721  -13.7471  -45.9141 H         1 UNK         0.3000 
    175 H175        4.1733  -15.8958  -45.5249 H         1 UNK         0.0600 
    176 H176        2.1632  -16.6356  -47.7181 H         1 UNK         0.0600 
    177 H177        3.9015  -16.9207  -47.7871 H         1 UNK         0.0600 
    178 H178        2.9218  -17.7499  -46.5888 H         1 UNK         0.0600 
    179 H179        2.8761  -14.2586  -47.6547 H         1 UNK         0.3000 
    180 H180        4.8747  -11.4423  -46.9587 H         1 UNK         0.0600 
    181 H181        5.3957  -13.3783  -49.2791 H         1 UNK         0.0600 
    182 H182        6.6150  -12.7695  -48.1659 H         1 UNK         0.0600 
    183 H183        5.7954  -11.6602  -49.2530 H         1 UNK         0.0600 
    184 H184        3.2612  -12.1512  -49.2239 H         1 UNK         0.3000 
    185 H185        0.1044  -11.4613  -47.8172 H         1 UNK         0.0600 
    186 H186       -0.0631   -9.6498  -49.4780 H         1 UNK         0.0600 
    187 H187        0.9721   -9.1355  -48.1570 H         1 UNK         0.0600 
    188 H188        1.6885   -9.6282  -49.6871 H         1 UNK         0.0600 
    189 H189        0.5068  -11.7749  -50.4763 H         1 UNK         0.3000 
    190 H190       -2.4880  -22.4445  -45.5441 H         1 UNK         0.3000 
    191 H191       -4.4653  -23.7676  -47.0297 H         1 UNK         0.0600 
    192 H192       -4.8103  -22.6758  -44.7959 H         1 UNK         0.0600 
    193 H193       -5.4472  -24.3136  -44.8417 H         1 UNK         0.0600 
    194 H194       -3.9266  -23.9930  -44.0247 H         1 UNK         0.0600 
    195 H195       -1.8216  -25.1600  -45.0455 H         1 UNK         0.3000 
    196 H196       -2.3768  -27.9040  -45.4945 H         1 UNK         0.0600 
    197 H197       -0.0103  -28.1953  -44.7176 H         1 UNK         0.0600 
    198 H198       -0.8878  -27.0676  -43.6953 H         1 UNK         0.0600 
    199 H199        0.2619  -26.4638  -44.8873 H         1 UNK         0.0600 
    200 H200       -1.0043  -25.5309  -47.6354 H         1 UNK         0.3000 
    201 H201        0.0694  -27.5565  -49.5324 H         1 UNK         0.0600 
    202 H202        1.6060  -25.7200  -48.8275 H         1 UNK         0.0600 
    203 H203        0.4490  -24.5192  -49.3869 H         1 UNK         0.0600 
    204 H204        1.2243  -25.6049  -50.5366 H         1 UNK         0.0600 
    205 H205       -2.8719  -26.7426  -48.9496 H         1 UNK         0.3000 
    206 H206       -4.8008  -26.5624  -50.0154 H         1 UNK         0.0600 
    207 H207       -3.9512  -28.4449  -51.4173 H         1 UNK         0.0600 
    208 H208       -5.0248  -27.3956  -52.3294 H         1 UNK         0.0600 
    209 H209       -3.2892  -27.2980  -52.5812 H         1 UNK         0.0600 
    210 H210       -3.8845  -24.2673  -49.3507 H         1 UNK         0.3000 
    211 H211       -4.0324  -22.0694  -49.5205 H         1 UNK         0.0600 
    212 H212       -5.6237  -22.4388  -52.1145 H         1 UNK         0.0600 
    213 H213       -5.5342  -20.9791  -51.1477 H         1 UNK         0.0600 
    214 H214       -6.3129  -22.4094  -50.4924 H         1 UNK         0.0600 
    215 H215       -1.7704  -23.4385  -50.4419 H         1 UNK         0.3000 
    216 H216        0.1700  -23.2864  -51.4926 H         1 UNK         0.0600 
    217 H217        1.0886  -21.0990  -52.1236 H         1 UNK         0.0600 
    218 H218       -0.5100  -20.3726  -52.1544 H         1 UNK         0.0600 
    219 H219        0.1828  -20.9274  -50.6313 H         1 UNK         0.0600 
    220 H220       -2.3206  -24.0058  -52.9816 H         1 UNK         0.3000 
    221 H221       -3.0754  -24.6793  -54.9338 H         1 UNK         0.0600 
    222 H222       -0.0994  -25.0610  -55.5259 H         1 UNK         0.0600 
    223 H223       -1.1446  -26.1831  -54.6580 H         1 UNK         0.0600 
    224 H224       -1.4241  -25.8633  -56.3629 H         1 UNK         0.0600 
    225 H225       -3.1236  -21.5279  -56.8283 H         1 UNK         0.3000 
    226 H226       -3.8772  -22.3804  -54.1302 H         1 UNK         0.0600 
    227 H227       -5.2225  -23.9077  -55.5772 H         1 UNK         0.0600 
    228 H228       -6.2367  -22.7175  -54.7858 H         1 UNK         0.0600 
    229 H229       -5.8230  -22.5230  -56.4864 H         1 UNK         0.0600 
    230 H230       -2.4766  -20.1874  -54.7792 H         1 UNK         0.3000 
    231 H231       -4.0977  -17.9497  -55.6518 H         1 UNK         0.0600 
    232 H232       -1.2212  -18.1088  -54.6060 H         1 UNK         0.0600 
    233 H233       -1.9491  -16.7095  -55.3856 H         1 UNK         0.0600 
    234 H234       -1.7141  -18.1912  -56.2980 H         1 UNK         0.0600 
    235 H235       -3.3808  -19.3006  -52.4972 H         1 UNK         0.3000 
    236 H236       -3.6200  -16.7681  -51.0525 H         1 UNK         0.0600 
    237 H237       -2.1013  -18.7523  -50.4044 H         1 UNK         0.0600 
    238 H238       -3.0830  -18.0809  -49.1244 H         1 UNK         0.0600 
    239 H239       -3.5691  -19.5843  -49.8815 H         1 UNK         0.0600 
    240 H240       -5.0984  -16.9627  -48.9760 H         1 UNK         0.3000 
    241 H241       -7.7671  -16.8637  -49.9843 H         1 UNK         0.0600 
    242 H242       -6.3422  -19.7265  -49.0947 H         1 UNK         0.3800 
    243 H243       -7.7794  -20.5254  -48.5103 H         1 UNK         0.3800 
    244 H244       -8.4264  -15.8005  -48.0109 H         1 UNK         0.0800 
    245 H245       -6.8898  -15.1589  -48.4482 H         1 UNK         0.0800 
    246 H246       -5.7075  -18.3825  -46.9711 H         1 UNK         0.0800 
    247 H247       -5.4135  -17.9384  -45.3235 H         1 UNK         0.0800 
@<TRIPOS>BOND
     1    1    2 1    
     2    1  127 1    
     3    1  128 1    
     4    1  129 1    
     5    2    3 2    
     6    2    4 am   BACKBONE|DICT|INTERRES
     7    4    5 1    
     8    4  130 1    
     9    5    6 1    
    10    5   65 1    
    11    5  131 1    
    12    6    7 1    
    13    6  132 1    
    14    6  133 1    
    15    7    8 1    
    16    8    9 1    
    17    8  134 1    
    18    8  135 1    
    19    9   10 ar   
    20    9   14 ar   
    21   10   11 ar   
    22   10  136 1    
    23   11   12 ar   
    24   11  126 1    
    25   12   13 ar   
    26   12  137 1    
    27   13   14 ar   
    28   13   15 1    
    29   14  138 1    
    30   15   16 1    
    31   15  139 1    
    32   15  140 1    
    33   16   17 1    
    34   17   18 1    
    35   17  141 1    
    36   17  142 1    
    37   18   19 1    
    38   18   67 1    
    39   18  143 1    
    40   19   20 am   BACKBONE|DICT|INTERRES
    41   19  144 1    
    42   20   21 2    
    43   20   22 1    
    44   22   23 1    
    45   22   24 1    
    46   22  145 1    
    47   23  146 1    
    48   23  147 1    
    49   23  148 1    
    50   24   25 am   BACKBONE|DICT|INTERRES
    51   24  149 1    
    52   25   26 2    
    53   25   27 1    
    54   27   28 1    
    55   27   29 1    
    56   27  150 1    
    57   28  151 1    
    58   28  152 1    
    59   28  153 1    
    60   29   30 am   BACKBONE|DICT|INTERRES
    61   29  154 1    
    62   30   31 2    
    63   30   32 1    
    64   32   33 1    
    65   32   34 1    
    66   32  155 1    
    67   33  156 1    
    68   33  157 1    
    69   33  158 1    
    70   34   35 am   BACKBONE|DICT|INTERRES
    71   34  159 1    
    72   35   36 2    
    73   35   37 1    
    74   37   38 1    
    75   37   39 1    
    76   37  160 1    
    77   38  161 1    
    78   38  162 1    
    79   38  163 1    
    80   39   40 am   BACKBONE|DICT|INTERRES
    81   39  164 1    
    82   40   41 2    
    83   40   42 1    
    84   42   43 1    
    85   42   44 1    
    86   42  165 1    
    87   43  166 1    
    88   43  167 1    
    89   43  168 1    
    90   44   45 am   BACKBONE|DICT|INTERRES
    91   44  169 1    
    92   45   46 2    
    93   45   47 1    
    94   47   48 1    
    95   47   49 1    
    96   47  170 1    
    97   48  171 1    
    98   48  172 1    
    99   48  173 1    
   100   49   50 am   BACKBONE|DICT|INTERRES
   101   49  174 1    
   102   50   51 2    
   103   50   52 1    
   104   52   53 1    
   105   52   54 1    
   106   52  175 1    
   107   53  176 1    
   108   53  177 1    
   109   53  178 1    
   110   54   55 am   BACKBONE|DICT|INTERRES
   111   54  179 1    
   112   55   56 2    
   113   55   57 1    
   114   57   58 1    
   115   57   59 1    
   116   57  180 1    
   117   58  181 1    
   118   58  182 1    
   119   58  183 1    
   120   59   60 am   BACKBONE|DICT|INTERRES
   121   59  184 1    
   122   60   61 2    
   123   60   62 1    
   124   62   63 1    
   125   62   64 1    
   126   62  185 1    
   127   63  186 1    
   128   63  187 1    
   129   63  188 1    
   130   64   65 am   BACKBONE|DICT|INTERRES
   131   64  189 1    
   132   65   66 2    
   133   67   68 2    
   134   67   69 am   BACKBONE|DICT|INTERRES
   135   69   70 1    
   136   69  190 1    
   137   70   71 1    
   138   70   72 1    
   139   70  191 1    
   140   71  192 1    
   141   71  193 1    
   142   71  194 1    
   143   72   73 2    
   144   72   74 am   BACKBONE|DICT|INTERRES
   145   74   75 1    
   146   74  195 1    
   147   75   76 1    
   148   75   77 1    
   149   75  196 1    
   150   76  197 1    
   151   76  198 1    
   152   76  199 1    
   153   77   78 2    
   154   77   79 am   BACKBONE|DICT|INTERRES
   155   79   80 1    
   156   79  200 1    
   157   80   81 1    
   158   80   82 1    
   159   80  201 1    
   160   81  202 1    
   161   81  203 1    
   162   81  204 1    
   163   82   83 2    
   164   82   84 am   BACKBONE|DICT|INTERRES
   165   84   85 1    
   166   84  205 1    
   167   85   86 1    
   168   85   87 1    
   169   85  206 1    
   170   86  207 1    
   171   86  208 1    
   172   86  209 1    
   173   87   88 2    
   174   87   89 am   BACKBONE|DICT|INTERRES
   175   89   90 1    
   176   89  210 1    
   177   90   91 1    
   178   90   92 1    
   179   90  211 1    
   180   91  212 1    
   181   91  213 1    
   182   91  214 1    
   183   92   93 2    
   184   92   94 am   BACKBONE|DICT|INTERRES
   185   94   95 1    
   186   94  215 1    
   187   95   96 1    
   188   95   97 1    
   189   95  216 1    
   190   96  217 1    
   191   96  218 1    
   192   96  219 1    
   193   97   98 2    
   194   97   99 am   BACKBONE|DICT|INTERRES
   195   99  100 1    
   196   99  220 1    
   197  100  101 1    
   198  100  102 1    
   199  100  221 1    
   200  101  222 1    
   201  101  223 1    
   202  101  224 1    
   203  102  103 2    
   204  102  104 am   BACKBONE|DICT|INTERRES
   205  104  105 1    
   206  104  225 1    
   207  105  106 1    
   208  105  107 1    
   209  105  226 1    
   210  106  227 1    
   211  106  228 1    
   212  106  229 1    
   213  107  108 2    
   214  107  109 am   BACKBONE|DICT|INTERRES
   215  109  110 1    
   216  109  230 1    
   217  110  111 1    
   218  110  112 1    
   219  110  231 1    
   220  111  232 1    
   221  111  233 1    
   222  111  234 1    
   223  112  113 2    
   224  112  114 am   BACKBONE|DICT|INTERRES
   225  114  115 1    
   226  114  235 1    
   227  115  116 1    
   228  115  117 1    
   229  115  236 1    
   230  116  237 1    
   231  116  238 1    
   232  116  239 1    
   233  117  118 2    
   234  117  119 am   BACKBONE|DICT|INTERRES
   235  119  120 1    
   236  119  240 1    
   237  120  121 1    
   238  120  124 1    
   239  120  241 1    
   240  121  122 am   BACKBONE|DICT|INTERRES
   241  121  123 2    
   242  122  242 1    
   243  122  243 1    
   244  124  125 1    
   245  124  244 1    
   246  124  245 1    
   247  125  126 1    
   248  126  246 1    
   249  126  247 1    
@<TRIPOS>SUBSTRUCTURE
     1 UNK         1 GROUP             0       ****    0 ROOT    
