@<TRIPOS>MOLECULE
3R540
247   249    1
SMALL
USER_CHARGES


@<TRIPOS>ATOM
      1 CA         -1.2587  -12.6946  -49.9763 C.3       0 UNK        -0.1800 
      2 C           0.1737  -12.3985  -49.5572 C.2       0 UNK         0.5000 
      3 O           0.5090  -11.2497  -49.2674 O.2       0 UNK        -0.5000 
      4 N           1.0205  -13.4336  -49.5090 N.am      1 UNK        -0.5000 
      5 CA          2.4540  -13.3722  -49.1894 C.3       1 UNK         0.1400 
      6 C6          3.2502  -14.5217  -49.8655 C.3       23 UNK        -0.0398 
      7 S7          2.9759  -14.5857  -51.6733 S.3       23 UNK        -0.2404 
      8 C8          2.9623  -16.3828  -52.0163 C.3       23 UNK        -0.0205 
      9 C9          1.8916  -17.2047  -51.2942 C.ar      23 UNK        -0.0193 
     10 C10         0.7036  -16.6432  -50.8089 C.ar      23 UNK        -0.1150 
     11 C11        -0.2286  -17.4231  -50.1178 C.ar      23 UNK        -0.0193 
     12 C12         0.0048  -18.7906  -49.9607 C.ar      23 UNK        -0.1150 
     13 C13         1.1653  -19.3756  -50.4749 C.ar      23 UNK        -0.0193 
     14 C14         2.1057  -18.5761  -51.1285 C.ar      23 UNK        -0.1150 
     15 C15         1.3921  -20.8752  -50.3583 C.3       23 UNK        -0.0205 
     16 S16         2.5054  -21.3201  -48.9855 S.3       23 UNK        -0.2404 
     17 C17         1.5409  -20.8454  -47.5102 C.3       23 UNK        -0.0398 
     18 CA          0.6861  -21.9978  -46.9296 C.3       11 UNK         0.1400 
     19 N           0.3277  -21.7538  -45.5310 N.am      11 UNK        -0.5000 
     20 C          -0.2752  -22.6413  -44.7281 C.2       10 UNK         0.5000 
     21 O          -0.5443  -23.7930  -45.0634 O.2       10 UNK        -0.5000 
     22 CA         -0.6948  -22.1488  -43.3330 C.3       10 UNK         0.1400 
     23 CB          0.4890  -22.2092  -42.3569 C.3       10 UNK        -0.1800 
     24 N          -1.2574  -20.7977  -43.3578 N.am      10 UNK        -0.5000 
     25 C          -2.3809  -20.4564  -44.0062 C.2       9 UNK         0.5000 
     26 O          -3.0856  -21.2588  -44.6178 O.2       9 UNK        -0.5000 
     27 CA         -2.7575  -18.9638  -44.0164 C.3       9 UNK         0.1400 
     28 CB         -3.4097  -18.5541  -42.6879 C.3       9 UNK        -0.1800 
     29 N          -1.6151  -18.0933  -44.2970 N.am      9 UNK        -0.5000 
     30 C          -0.9108  -18.1095  -45.4383 C.2       8 UNK         0.5000 
     31 O          -1.1720  -18.8392  -46.3955 O.2       8 UNK        -0.5000 
     32 CA          0.3320  -17.2023  -45.4959 C.3       8 UNK         0.1400 
     33 CB         -0.0544  -15.7446  -45.7842 C.3       8 UNK        -0.1800 
     34 N           1.1297  -17.2728  -44.2695 N.am      8 UNK        -0.5000 
     35 C           1.7398  -18.3860  -43.8366 C.2       7 UNK         0.5000 
     36 O           1.7397  -19.4506  -44.4535 O.2       7 UNK        -0.5000 
     37 CA          2.4134  -18.3174  -42.4570 C.3       7 UNK         0.1400 
     38 CB          3.7991  -17.6607  -42.5488 C.3       7 UNK        -0.1800 
     39 N           1.5821  -17.6151  -41.4785 N.am      7 UNK        -0.5000 
     40 C           0.4326  -18.1007  -40.9860 C.2       6 UNK         0.5000 
     41 O          -0.0298  -19.1982  -41.2912 O.2       6 UNK        -0.5000 
     42 CA         -0.3533  -17.1999  -40.0167 C.3       6 UNK         0.1400 
     43 CB          0.1453  -17.3932  -38.5771 C.3       6 UNK        -0.1800 
     44 N          -0.2746  -15.7837  -40.3693 N.am      6 UNK        -0.5000 
     45 C          -0.7807  -15.2445  -41.4874 C.2       5 UNK         0.5000 
     46 O          -1.4056  -15.8803  -42.3365 O.2       5 UNK        -0.5000 
     47 CA         -0.4717  -13.7539  -41.7188 C.3       5 UNK         0.1400 
     48 CB         -1.5053  -12.8655  -41.0117 C.3       5 UNK        -0.1800 
     49 N           0.8788  -13.3831  -41.2792 N.am      5 UNK        -0.5000 
     50 C           1.9957  -13.8727  -41.8298 C.2       4 UNK         0.5000 
     51 O           1.9931  -14.6868  -42.7596 O.2       4 UNK        -0.5000 
     52 CA          3.3364  -13.3908  -41.2590 C.3       4 UNK         0.1400 
     53 CB          3.8982  -14.3838  -40.2303 C.3       4 UNK        -0.1800 
     54 N           4.2260  -13.2958  -42.4030 N.am      4 UNK        -0.5000 
     55 C           5.0925  -12.3097  -42.6542 C.2       3 UNK         0.5000 
     56 O           5.5261  -11.5306  -41.8050 O.2       3 UNK        -0.5000 
     57 CA          5.4407  -12.1140  -44.1453 C.3       3 UNK         0.1400 
     58 CB          6.5710  -13.0601  -44.5774 C.3       3 UNK        -0.1800 
     59 N           4.2599  -12.3441  -44.9878 N.am      3 UNK        -0.5000 
     60 C           3.1444  -11.6020  -44.9421 C.2       2 UNK         0.5000 
     61 O           3.0845  -10.4944  -44.4050 O.2       2 UNK        -0.5000 
     62 CA          1.8825  -12.2387  -45.5522 C.3       2 UNK         0.1400 
     63 CB          0.5956  -11.4661  -45.2133 C.3       2 UNK        -0.1800 
     64 N           1.9710  -12.3926  -46.9996 N.am      2 UNK        -0.5000 
     65 C           2.6651  -13.3267  -47.6588 C.2       1 UNK         0.5000 
     66 O           3.3980  -14.1445  -47.0985 O.2       1 UNK        -0.5000 
     67 C          -0.5620  -22.2818  -47.7916 C.2       11 UNK         0.5000 
     68 O          -0.5778  -23.2668  -48.5300 O.2       11 UNK        -0.5000 
     69 N          -1.5992  -21.4420  -47.6595 N.am      12 UNK        -0.5000 
     70 CA         -2.8775  -21.5980  -48.3568 C.3       12 UNK         0.1400 
     71 CB         -3.7514  -20.3611  -48.1078 C.3       12 UNK        -0.1800 
     72 C          -3.6199  -22.8910  -47.9660 C.2       12 UNK         0.5000 
     73 O          -4.1886  -23.5493  -48.8375 O.2       12 UNK        -0.5000 
     74 N          -3.5636  -23.2530  -46.6764 N.am      13 UNK        -0.5000 
     75 CA         -4.0908  -24.5077  -46.1414 C.3       13 UNK         0.1400 
     76 CB         -4.0920  -24.4588  -44.6064 C.3       13 UNK        -0.1800 
     77 C          -3.3202  -25.7389  -46.6523 C.2       13 UNK         0.5000 
     78 O          -3.9498  -26.7258  -47.0314 O.2       13 UNK        -0.5000 
     79 N          -1.9822  -25.6540  -46.6931 N.am      14 UNK        -0.5000 
     80 CA         -1.0928  -26.6930  -47.2221 C.3       14 UNK         0.1400 
     81 CB          0.3664  -26.3443  -46.8922 C.3       14 UNK        -0.1800 
     82 C          -1.2677  -26.9247  -48.7349 C.2       14 UNK         0.5000 
     83 O          -1.1617  -28.0639  -49.1905 O.2       14 UNK        -0.5000 
     84 N          -1.5740  -25.8517  -49.4776 N.am      15 UNK        -0.5000 
     85 CA         -1.9353  -25.8859  -50.8967 C.3       15 UNK         0.1400 
     86 CB         -1.8749  -24.4590  -51.4631 C.3       15 UNK        -0.1800 
     87 C          -3.3184  -26.5164  -51.1665 C.2       15 UNK         0.5000 
     88 O          -3.6077  -26.8529  -52.3155 O.2       15 UNK        -0.5000 
     89 N          -4.1454  -26.6540  -50.1188 N.am      16 UNK        -0.5000 
     90 CA         -5.4779  -27.2658  -50.0422 C.3       16 UNK         0.1400 
     91 CB         -5.4392  -28.7495  -50.4535 C.3       16 UNK        -0.1800 
     92 C          -6.5818  -26.5043  -50.7972 C.2       16 UNK         0.5000 
     93 O          -7.6560  -26.2856  -50.2361 O.2       16 UNK        -0.5000 
     94 N          -6.3070  -26.1128  -52.0461 N.am      17 UNK        -0.5000 
     95 CA         -7.2150  -25.3571  -52.9068 C.3       17 UNK         0.1400 
     96 CB         -6.7051  -25.4257  -54.3547 C.3       17 UNK        -0.1800 
     97 C          -7.3713  -23.8911  -52.4677 C.2       17 UNK         0.5000 
     98 O          -8.4387  -23.3133  -52.6759 O.2       17 UNK        -0.5000 
     99 N          -6.2980  -23.3167  -51.8997 N.am      18 UNK        -0.5000 
    100 CA        -6.1156  -21.9355  -51.4268 C.3       18 UNK         0.1400 
    101 CB        -7.0755  -21.6046  -50.2706 C.3       18 UNK        -0.1800 
    102 C         -6.1846  -20.8641  -52.5343 C.2       18 UNK         0.5000 
    103 O         -5.3007  -20.0086  -52.6069 O.2       18 UNK        -0.5000 
    104 N         -7.1961  -20.9451  -53.4065 N.am      19 UNK        -0.5000 
    105 CA        -7.4196  -20.0824  -54.5700 C.3       19 UNK         0.1400 
    106 CB        -8.7630  -20.4558  -55.2142 C.3       19 UNK        -0.1800 
    107 C         -6.2863  -20.1549  -55.6108 C.2       19 UNK         0.5000 
    108 O         -6.0029  -19.1591  -56.2765 O.2       19 UNK        -0.5000 
    109 N         -5.6479  -21.3285  -55.7127 N.am      20 UNK        -0.5000 
    110 CA        -4.4861  -21.5741  -56.5664 C.3       20 UNK         0.1400 
    111 CB        -4.3104  -23.0913  -56.7357 C.3       20 UNK        -0.1800 
    112 C         -3.1918  -20.9447  -56.0144 C.2       20 UNK         0.5000 
    113 O         -2.2873  -20.6478  -56.7957 O.2       20 UNK        -0.5000 
    114 N         -3.1183  -20.7689  -54.6879 N.am      21 UNK        -0.5000 
    115 CA        -1.9706  -20.1914  -53.9933 C.3       21 UNK         0.1400 
    116 CB        -1.8658  -20.8013  -52.5865 C.3       21 UNK        -0.1800 
    117 C         -2.0725  -18.6605  -53.9238 C.2       21 UNK         0.5000 
    118 O         -1.1188  -17.9708  -54.2862 O.2       21 UNK        -0.5000 
    119 N         -3.2272  -18.1613  -53.4699 N.am      22 UNK        -0.5000 
    120 CA        -3.4786  -16.7322  -53.2268 C.3       22 UNK         0.1400 
    121 C         -4.9807  -16.3439  -53.1428 C.2       22 UNK         0.5000 
    122 N         -5.9080  -17.2681  -52.9307 N.am      22 UNK        -0.7600 
    123 O         -5.3160  -15.1713  -53.2873 O.2       22 UNK        -0.5000 
    124 C124       -2.6845  -16.1845  -52.0087 C.3       23 UNK        -0.0398 
    125 S125       -2.9787  -17.1332  -50.4718 S.3       23 UNK        -0.2404 
    126 C126       -1.4732  -16.7881  -49.5140 C.3       23 UNK        -0.0205 
    127 H127       -1.6616  -11.8657  -50.5596 H         1 UNK         0.0600 
    128 H128       -1.3157  -13.5935  -50.5907 H         1 UNK         0.0600 
    129 H129       -1.8882  -12.8331  -49.0966 H         1 UNK         0.0600 
    130 H130        0.6768  -14.3572  -49.7182 H         1 UNK         0.3000 
    131 H131        2.8517  -12.4342  -49.5828 H         1 UNK         0.0600 
    132 H132        2.9845  -15.4818  -49.4203 H         1 UNK         0.0800 
    133 H133        4.3201  -14.3945  -49.6929 H         1 UNK         0.0800 
    134 H134        2.8324  -16.5247  -53.0899 H         1 UNK         0.0800 
    135 H135        3.9502  -16.7766  -51.7717 H         1 UNK         0.0800 
    136 H136        0.4997  -15.5974  -50.9694 H         1 UNK         0.1150 
    137 H137       -0.7253  -19.3975  -49.4442 H         1 UNK         0.1150 
    138 H138        3.0073  -19.0289  -51.5173 H         1 UNK         0.1150 
    139 H139        0.4417  -21.3985  -50.2597 H         1 UNK         0.0800 
    140 H140        1.8302  -21.2422  -51.2876 H         1 UNK         0.0800 
    141 H141        0.9437  -19.9545  -47.6992 H         1 UNK         0.0800 
    142 H142        2.2800  -20.5401  -46.7692 H         1 UNK         0.0800 
    143 H143        1.2965  -22.9034  -46.9352 H         1 UNK         0.0600 
    144 H144        0.5627  -20.8394  -45.1559 H         1 UNK         0.3000 
    145 H145       -1.4701  -22.8232  -42.9641 H         1 UNK         0.0600 
    146 H146        0.1761  -21.9594  -41.3431 H         1 UNK         0.0600 
    147 H147        0.9194  -23.2110  -42.3258 H         1 UNK         0.0600 
    148 H148        1.2828  -21.5187  -42.6424 H         1 UNK         0.0600 
    149 H149       -0.7566  -20.0902  -42.8274 H         1 UNK         0.3000 
    150 H150       -3.4893  -18.8137  -44.8128 H         1 UNK         0.0600 
    151 H151       -4.2814  -19.1735  -42.4737 H         1 UNK         0.0600 
    152 H152       -3.7459  -17.5175  -42.7173 H         1 UNK         0.0600 
    153 H153       -2.7192  -18.6577  -41.8509 H         1 UNK         0.0600 
    154 H154       -1.3583  -17.4316  -43.5706 H         1 UNK         0.3000 
    155 H155        0.9545  -17.5535  -46.3218 H         1 UNK         0.0600 
    156 H156       -0.5965  -15.2949  -44.9519 H         1 UNK         0.0600 
    157 H157       -0.6871  -15.6714  -46.6692 H         1 UNK         0.0600 
    158 H158        0.8329  -15.1435  -45.9730 H         1 UNK         0.0600 
    159 H159        1.1974  -16.4303  -43.7099 H         1 UNK         0.3000 
    160 H160        2.5541  -19.3420  -42.1060 H         1 UNK         0.0600 
    161 H161        4.3009  -17.6634  -41.5813 H         1 UNK         0.0600 
    162 H162        3.7426  -16.6301  -42.8980 H         1 UNK         0.0600 
    163 H163        4.4386  -18.2041  -43.2454 H         1 UNK         0.0600 
    164 H164        1.8662  -16.6814  -41.2244 H         1 UNK         0.3000 
    165 H165       -1.4022  -17.5003  -40.0587 H         1 UNK         0.0600 
    166 H166       -0.4548  -16.8186  -37.8713 H         1 UNK         0.0600 
    167 H167        0.0803  -18.4407  -38.2795 H         1 UNK         0.0600 
    168 H168        1.1852  -17.0837  -38.4646 H         1 UNK         0.0600 
    169 H169        0.2264  -15.1827  -39.7319 H         1 UNK         0.3000 
    170 H170       -0.5403  -13.5670  -42.7929 H         1 UNK         0.0600 
    171 H171       -2.5176  -13.1125  -41.3348 H         1 UNK         0.0600 
    172 H172       -1.4678  -12.9851  -39.9283 H         1 UNK         0.0600 
    173 H173       -1.3410  -11.8122  -41.2398 H         1 UNK         0.0600 
    174 H174        0.9451  -12.7157  -40.5239 H         1 UNK         0.3000 
    175 H175        3.2020  -12.4095  -40.7987 H         1 UNK         0.0600 
    176 H176        4.0362  -15.3763  -40.6586 H         1 UNK         0.0600 
    177 H177        4.8638  -14.0487  -39.8513 H         1 UNK         0.0600 
    178 H178        3.2285  -14.4825  -39.3751 H         1 UNK         0.0600 
    179 H179        3.9215  -13.8706  -43.1787 H         1 UNK         0.3000 
    180 H180        5.7735  -11.0837  -44.2873 H         1 UNK         0.0600 
    181 H181        6.2851  -14.1074  -44.4707 H         1 UNK         0.0600 
    182 H182        7.4650  -12.8999  -43.9735 H         1 UNK         0.0600 
    183 H183        6.8476  -12.8927  -45.6186 H         1 UNK         0.0600 
    184 H184        4.2288  -13.2065  -45.5229 H         1 UNK         0.3000 
    185 H185        1.7876  -13.2289  -45.1041 H         1 UNK         0.0600 
    186 H186        0.4788  -11.3542  -44.1344 H         1 UNK         0.0600 
    187 H187        0.5972  -10.4677  -45.6521 H         1 UNK         0.0600 
    188 H188       -0.2860  -11.9923  -45.5800 H         1 UNK         0.0600 
    189 H189        1.4099  -11.7570  -47.5578 H         1 UNK         0.3000 
    190 H190       -1.5081  -20.6346  -47.0481 H         1 UNK         0.3000 
    191 H191       -2.6649  -21.6503  -49.4267 H         1 UNK         0.0600 
    192 H192       -3.9911  -20.2430  -47.0508 H         1 UNK         0.0600 
    193 H193       -4.6918  -20.4298  -48.6548 H         1 UNK         0.0600 
    194 H194       -3.2487  -19.4522  -48.4383 H         1 UNK         0.0600 
    195 H195       -3.1329  -22.6182  -46.0099 H         1 UNK         0.3000 
    196 H196       -5.1261  -24.6028  -46.4756 H         1 UNK         0.0600 
    197 H197       -3.0853  -24.3433  -44.2049 H         1 UNK         0.0600 
    198 H198       -4.5099  -25.3747  -44.1869 H         1 UNK         0.0600 
    199 H199       -4.6947  -23.6278  -44.2395 H         1 UNK         0.0600 
    200 H200       -1.5303  -24.8292  -46.3063 H         1 UNK         0.3000 
    201 H201       -1.3390  -27.6289  -46.7164 H         1 UNK         0.0600 
    202 H202        0.6654  -25.3967  -47.3407 H         1 UNK         0.0600 
    203 H203        1.0458  -27.1126  -47.2631 H         1 UNK         0.0600 
    204 H204        0.5193  -26.2681  -45.8157 H         1 UNK         0.0600 
    205 H205       -1.5491  -24.9374  -49.0358 H         1 UNK         0.3000 
    206 H206       -1.1940  -26.4919  -51.4213 H         1 UNK         0.0600 
    207 H207       -0.8852  -24.0223  -51.3263 H         1 UNK         0.0600 
    208 H208       -2.0875  -24.4527  -52.5330 H         1 UNK         0.0600 
    209 H209       -2.5984  -23.8019  -50.9810 H         1 UNK         0.0600 
    210 H210       -3.8064  -26.3076  -49.2301 H         1 UNK         0.3000 
    211 H211       -5.7510  -27.2323  -48.9866 H         1 UNK         0.0600 
    212 H212       -5.1859  -28.8771  -51.5062 H         1 UNK         0.0600 
    213 H213       -6.4091  -29.2219  -50.2934 H         1 UNK         0.0600 
    214 H214       -4.7074  -29.3011  -49.8630 H         1 UNK         0.0600 
    215 H215       -5.3914  -26.3524  -52.4192 H         1 UNK         0.3000 
    216 H216       -8.2010  -25.8247  -52.8666 H         1 UNK         0.0600 
    217 H217       -7.3591  -24.8706  -55.0288 H         1 UNK         0.0600 
    218 H218       -6.6717  -26.4554  -54.7109 H         1 UNK         0.0600 
    219 H219       -5.7023  -25.0076  -54.4487 H         1 UNK         0.0600 
    220 H220       -5.4904  -23.9103  -51.7762 H         1 UNK         0.3000 
    221 H221       -5.1016  -21.8950  -51.0254 H         1 UNK         0.0600 
    222 H222       -8.1201  -21.6454  -50.5797 H         1 UNK         0.0600 
    223 H223       -6.9429  -22.3011  -49.4424 H         1 UNK         0.0600 
    224 H224       -6.8900  -20.6014  -49.8848 H         1 UNK         0.0600 
    225 H225       -7.8648  -21.6988  -53.2601 H         1 UNK         0.3000 
    226 H226       -7.4877  -19.0520  -54.2208 H         1 UNK         0.0600 
    227 H227       -9.5855  -20.3307  -54.5097 H         1 UNK         0.0600 
    228 H228       -8.9743  -19.8211  -56.0759 H         1 UNK         0.0600 
    229 H229       -8.7706  -21.4912  -55.5573 H         1 UNK         0.0600 
    230 H230       -5.9635  -22.0952  -55.1384 H         1 UNK         0.3000 
    231 H231       -4.6776  -21.1384  -57.5494 H         1 UNK         0.0600 
    232 H232       -5.2046  -23.5490  -57.1594 H         1 UNK         0.0600 
    233 H233       -4.0995  -23.5813  -55.7844 H         1 UNK         0.0600 
    234 H234       -3.4820  -23.3147  -57.4092 H         1 UNK         0.0600 
    235 H235       -3.9306  -20.9742  -54.1248 H         1 UNK         0.3000 
    236 H236       -1.0544  -20.4448  -54.5313 H         1 UNK         0.0600 
    237 H237       -2.7425  -20.5882  -51.9746 H         1 UNK         0.0600 
    238 H238       -1.7437  -21.8819  -52.6375 H         1 UNK         0.0600 
    239 H239       -0.9990  -20.4022  -52.0634 H         1 UNK         0.0600 
    240 H240       -3.9616  -18.8006  -53.1870 H         1 UNK         0.3000 
    241 H241       -3.1160  -16.2032  -54.1103 H         1 UNK         0.0600 
    242 H242       -6.8704  -16.9774  -52.8757 H         1 UNK         0.3800 
    243 H243       -5.6672  -18.2392  -52.7607 H         1 UNK         0.3800 
    244 H244       -1.6215  -16.2062  -52.2439 H         1 UNK         0.0800 
    245 H245       -2.9209  -15.1349  -51.8264 H         1 UNK         0.0800 
    246 H246       -1.3506  -15.7107  -49.4056 H         1 UNK         0.0800 
    247 H247       -1.6149  -17.1772  -48.5053 H         1 UNK         0.0800 
@<TRIPOS>BOND
     1    1    2 1    
     2    1  127 1    
     3    1  128 1    
     4    1  129 1    
     5    2    3 2    
     6    2    4 am   BACKBONE|DICT|INTERRES
     7    4    5 1    
     8    4  130 1    
     9    5    6 1    
    10    5   65 1    
    11    5  131 1    
    12    6    7 1    
    13    6  132 1    
    14    6  133 1    
    15    7    8 1    
    16    8    9 1    
    17    8  134 1    
    18    8  135 1    
    19    9   10 ar   
    20    9   14 ar   
    21   10   11 ar   
    22   10  136 1    
    23   11   12 ar   
    24   11  126 1    
    25   12   13 ar   
    26   12  137 1    
    27   13   14 ar   
    28   13   15 1    
    29   14  138 1    
    30   15   16 1    
    31   15  139 1    
    32   15  140 1    
    33   16   17 1    
    34   17   18 1    
    35   17  141 1    
    36   17  142 1    
    37   18   19 1    
    38   18   67 1    
    39   18  143 1    
    40   19   20 am   BACKBONE|DICT|INTERRES
    41   19  144 1    
    42   20   21 2    
    43   20   22 1    
    44   22   23 1    
    45   22   24 1    
    46   22  145 1    
    47   23  146 1    
    48   23  147 1    
    49   23  148 1    
    50   24   25 am   BACKBONE|DICT|INTERRES
    51   24  149 1    
    52   25   26 2    
    53   25   27 1    
    54   27   28 1    
    55   27   29 1    
    56   27  150 1    
    57   28  151 1    
    58   28  152 1    
    59   28  153 1    
    60   29   30 am   BACKBONE|DICT|INTERRES
    61   29  154 1    
    62   30   31 2    
    63   30   32 1    
    64   32   33 1    
    65   32   34 1    
    66   32  155 1    
    67   33  156 1    
    68   33  157 1    
    69   33  158 1    
    70   34   35 am   BACKBONE|DICT|INTERRES
    71   34  159 1    
    72   35   36 2    
    73   35   37 1    
    74   37   38 1    
    75   37   39 1    
    76   37  160 1    
    77   38  161 1    
    78   38  162 1    
    79   38  163 1    
    80   39   40 am   BACKBONE|DICT|INTERRES
    81   39  164 1    
    82   40   41 2    
    83   40   42 1    
    84   42   43 1    
    85   42   44 1    
    86   42  165 1    
    87   43  166 1    
    88   43  167 1    
    89   43  168 1    
    90   44   45 am   BACKBONE|DICT|INTERRES
    91   44  169 1    
    92   45   46 2    
    93   45   47 1    
    94   47   48 1    
    95   47   49 1    
    96   47  170 1    
    97   48  171 1    
    98   48  172 1    
    99   48  173 1    
   100   49   50 am   BACKBONE|DICT|INTERRES
   101   49  174 1    
   102   50   51 2    
   103   50   52 1    
   104   52   53 1    
   105   52   54 1    
   106   52  175 1    
   107   53  176 1    
   108   53  177 1    
   109   53  178 1    
   110   54   55 am   BACKBONE|DICT|INTERRES
   111   54  179 1    
   112   55   56 2    
   113   55   57 1    
   114   57   58 1    
   115   57   59 1    
   116   57  180 1    
   117   58  181 1    
   118   58  182 1    
   119   58  183 1    
   120   59   60 am   BACKBONE|DICT|INTERRES
   121   59  184 1    
   122   60   61 2    
   123   60   62 1    
   124   62   63 1    
   125   62   64 1    
   126   62  185 1    
   127   63  186 1    
   128   63  187 1    
   129   63  188 1    
   130   64   65 am   BACKBONE|DICT|INTERRES
   131   64  189 1    
   132   65   66 2    
   133   67   68 2    
   134   67   69 am   BACKBONE|DICT|INTERRES
   135   69   70 1    
   136   69  190 1    
   137   70   71 1    
   138   70   72 1    
   139   70  191 1    
   140   71  192 1    
   141   71  193 1    
   142   71  194 1    
   143   72   73 2    
   144   72   74 am   BACKBONE|DICT|INTERRES
   145   74   75 1    
   146   74  195 1    
   147   75   76 1    
   148   75   77 1    
   149   75  196 1    
   150   76  197 1    
   151   76  198 1    
   152   76  199 1    
   153   77   78 2    
   154   77   79 am   BACKBONE|DICT|INTERRES
   155   79   80 1    
   156   79  200 1    
   157   80   81 1    
   158   80   82 1    
   159   80  201 1    
   160   81  202 1    
   161   81  203 1    
   162   81  204 1    
   163   82   83 2    
   164   82   84 am   BACKBONE|DICT|INTERRES
   165   84   85 1    
   166   84  205 1    
   167   85   86 1    
   168   85   87 1    
   169   85  206 1    
   170   86  207 1    
   171   86  208 1    
   172   86  209 1    
   173   87   88 2    
   174   87   89 am   BACKBONE|DICT|INTERRES
   175   89   90 1    
   176   89  210 1    
   177   90   91 1    
   178   90   92 1    
   179   90  211 1    
   180   91  212 1    
   181   91  213 1    
   182   91  214 1    
   183   92   93 2    
   184   92   94 am   BACKBONE|DICT|INTERRES
   185   94   95 1    
   186   94  215 1    
   187   95   96 1    
   188   95   97 1    
   189   95  216 1    
   190   96  217 1    
   191   96  218 1    
   192   96  219 1    
   193   97   98 2    
   194   97   99 am   BACKBONE|DICT|INTERRES
   195   99  100 1    
   196   99  220 1    
   197  100  101 1    
   198  100  102 1    
   199  100  221 1    
   200  101  222 1    
   201  101  223 1    
   202  101  224 1    
   203  102  103 2    
   204  102  104 am   BACKBONE|DICT|INTERRES
   205  104  105 1    
   206  104  225 1    
   207  105  106 1    
   208  105  107 1    
   209  105  226 1    
   210  106  227 1    
   211  106  228 1    
   212  106  229 1    
   213  107  108 2    
   214  107  109 am   BACKBONE|DICT|INTERRES
   215  109  110 1    
   216  109  230 1    
   217  110  111 1    
   218  110  112 1    
   219  110  231 1    
   220  111  232 1    
   221  111  233 1    
   222  111  234 1    
   223  112  113 2    
   224  112  114 am   BACKBONE|DICT|INTERRES
   225  114  115 1    
   226  114  235 1    
   227  115  116 1    
   228  115  117 1    
   229  115  236 1    
   230  116  237 1    
   231  116  238 1    
   232  116  239 1    
   233  117  118 2    
   234  117  119 am   BACKBONE|DICT|INTERRES
   235  119  120 1    
   236  119  240 1    
   237  120  121 1    
   238  120  124 1    
   239  120  241 1    
   240  121  122 am   BACKBONE|DICT|INTERRES
   241  121  123 2    
   242  122  242 1    
   243  122  243 1    
   244  124  125 1    
   245  124  244 1    
   246  124  245 1    
   247  125  126 1    
   248  126  246 1    
   249  126  247 1    
@<TRIPOS>SUBSTRUCTURE
     1 UNK         1 GROUP             0       ****    0 ROOT    
