@<TRIPOS>MOLECULE
3R540
247   249    1
SMALL
USER_CHARGES


@<TRIPOS>ATOM
      1 CA          8.0095  -12.1444  -49.6460 C.3       0 UNK        -0.1800 
      2 C           6.5798  -12.1197  -49.1244 C.2       0 UNK         0.5000 
      3 O           5.8464  -11.1697  -49.3973 O.2       0 UNK        -0.5000 
      4 N           6.1856  -13.1592  -48.3742 N.am      1 UNK        -0.5000 
      5 CA          4.8580  -13.3357  -47.7635 C.3       1 UNK         0.1400 
      6 C6          3.7111  -13.4213  -48.8158 C.3       23 UNK        -0.0398 
      7 S7          2.5123  -14.7547  -48.4642 S.3       23 UNK        -0.2404 
      8 C8          2.2369  -15.3942  -50.1484 C.3       23 UNK        -0.0205 
      9 C9          1.2226  -16.5275  -50.1712 C.ar      23 UNK        -0.0193 
     10 C10        -0.1394  -16.2503  -50.0303 C.ar      23 UNK        -0.1150 
     11 C11        -1.0829  -17.2818  -50.0512 C.ar      23 UNK        -0.0193 
     12 C12        -0.6529  -18.6009  -50.2235 C.ar      23 UNK        -0.1150 
     13 C13         0.7061  -18.8917  -50.3829 C.ar      23 UNK        -0.0193 
     14 C14         1.6386  -17.8494  -50.3557 C.ar      23 UNK        -0.1150 
     15 C15         1.1600  -20.3317  -50.5939 C.3       23 UNK        -0.0205 
     16 S16         2.3616  -20.9084  -49.3442 S.3       23 UNK        -0.2404 
     17 C17         1.4865  -20.5899  -47.7728 C.3       23 UNK        -0.0398 
     18 CA          0.7527  -21.8155  -47.1792 C.3       11 UNK         0.1400 
     19 N           0.2830  -21.5413  -45.8200 N.am      11 UNK        -0.5000 
     20 C          -0.3018  -22.4235  -44.9980 C.2       10 UNK         0.5000 
     21 O          -0.4736  -23.6101  -45.2737 O.2       10 UNK        -0.5000 
     22 CA         -0.8329  -21.8719  -43.6623 C.3       10 UNK         0.1400 
     23 CB          0.3102  -21.6547  -42.6600 C.3       10 UNK        -0.1800 
     24 N          -1.5843  -20.6276  -43.8354 N.am      10 UNK        -0.5000 
     25 C          -2.7283  -20.5301  -44.5294 C.2       9 UNK         0.5000 
     26 O          -3.2977  -21.4909  -45.0488 O.2       9 UNK        -0.5000 
     27 CA         -3.3123  -19.1172  -44.7087 C.3       9 UNK         0.1400 
     28 CB         -4.0988  -18.6901  -43.4606 C.3       9 UNK        -0.1800 
     29 N          -2.2875  -18.1168  -45.0059 N.am      9 UNK        -0.5000 
     30 C          -1.5209  -18.1161  -46.1055 C.2       8 UNK         0.5000 
     31 O          -1.6148  -18.9500  -47.0032 O.2       8 UNK        -0.5000 
     32 CA         -0.4174  -17.0470  -46.1804 C.3       8 UNK         0.1400 
     33 CB         -0.9940  -15.6690  -46.5355 C.3       8 UNK        -0.1800 
     34 N           0.3382  -16.9575  -44.9313 N.am      8 UNK        -0.5000 
     35 C           1.1051  -17.9390  -44.4378 C.2       7 UNK         0.5000 
     36 O           1.2866  -19.0152  -45.0021 O.2       7 UNK        -0.5000 
     37 CA          1.7543  -17.6950  -43.0672 C.3       7 UNK         0.1400 
     38 CB          3.1416  -17.0689  -43.2396 C.3       7 UNK        -0.1800 
     39 N           0.9297  -16.8604  -42.1910 N.am      7 UNK        -0.5000 
     40 C          -0.2160  -17.2850  -41.6402 C.2       6 UNK         0.5000 
     41 O          -0.6852  -18.4104  -41.8208 O.2       6 UNK        -0.5000 
     42 CA         -0.9887  -16.2652  -40.7846 C.3       6 UNK         0.1400 
     43 CB         -0.2488  -15.9724  -39.4699 C.3       6 UNK        -0.1800 
     44 N          -1.2663  -15.0061  -41.4823 N.am      6 UNK        -0.5000 
     45 C          -1.9633  -14.8976  -42.6221 C.2       5 UNK         0.5000 
     46 O          -2.3789  -15.8631  -43.2592 O.2       5 UNK        -0.5000 
     47 CA         -2.2434  -13.4837  -43.1646 C.3       5 UNK         0.1400 
     48 CB         -3.7244  -13.1299  -42.9622 C.3       5 UNK        -0.1800 
     49 N          -1.4267  -12.4342  -42.5491 N.am      5 UNK        -0.5000 
     50 C          -0.1561  -12.1065  -42.8246 C.2       4 UNK         0.5000 
     51 O           0.3870  -11.1627  -42.2489 O.2       4 UNK        -0.5000 
     52 CA          0.6390  -12.8917  -43.8991 C.3       4 UNK         0.1400 
     53 CB          0.4110  -12.2824  -45.2915 C.3       4 UNK        -0.1800 
     54 N           2.0753  -12.8863  -43.6161 N.am      4 UNK        -0.5000 
     55 C           2.6433  -13.4429  -42.5364 C.2       3 UNK         0.5000 
     56 O           2.0268  -14.1895  -41.7726 O.2       3 UNK        -0.5000 
     57 CA          4.1313  -13.1257  -42.2610 C.3       3 UNK         0.1400 
     58 CB          4.9301  -14.3654  -41.8259 C.3       3 UNK        -0.1800 
     59 N           4.8124  -12.5143  -43.4034 N.am      3 UNK        -0.5000 
     60 C           4.8930  -11.2013  -43.6527 C.2       2 UNK         0.5000 
     61 O           4.4146  -10.3353  -42.9203 O.2       2 UNK        -0.5000 
     62 CA          5.6173  -10.7845  -44.9490 C.3       2 UNK         0.1400 
     63 CB          7.0560  -10.3411  -44.6420 C.3       2 UNK        -0.1800 
     64 N           5.6541  -11.8262  -45.9820 N.am      2 UNK        -0.5000 
     65 C           4.5849  -12.3070  -46.6357 C.2       1 UNK         0.5000 
     66 O           3.4333  -11.9665  -46.3665 O.2       1 UNK        -0.5000 
     67 C          -0.3961  -22.2953  -48.0869 C.2       11 UNK         0.5000 
     68 O          -0.2523  -23.3269  -48.7409 O.2       11 UNK        -0.5000 
     69 N          -1.5215  -21.5669  -48.0794 N.am      12 UNK        -0.5000 
     70 CA         -2.7376  -21.8845  -48.8272 C.3       12 UNK         0.1400 
     71 CB         -3.7918  -20.7991  -48.5676 C.3       12 UNK        -0.1800 
     72 C          -3.3021  -23.2754  -48.4962 C.2       12 UNK         0.5000 
     73 O          -3.6230  -24.0326  -49.4121 O.2       12 UNK        -0.5000 
     74 N          -3.3739  -23.5964  -47.1972 N.am      13 UNK        -0.5000 
     75 CA         -3.8088  -24.8964  -46.6904 C.3       13 UNK         0.1400 
     76 CB         -4.0090  -24.8078  -45.1699 C.3       13 UNK        -0.1800 
     77 C          -2.8390  -26.0387  -47.0473 C.2       13 UNK         0.5000 
     78 O          -3.2945  -27.1229  -47.4128 O.2       13 UNK        -0.5000 
     79 N          -1.5287  -25.7809  -46.9330 N.am      14 UNK        -0.5000 
     80 CA         -0.4673  -26.7447  -47.2230 C.3       14 UNK         0.1400 
     81 CB          0.8665  -26.2290  -46.6602 C.3       14 UNK        -0.1800 
     82 C          -0.3369  -27.0625  -48.7224 C.2       14 UNK         0.5000 
     83 O          -0.2283  -28.2349  -49.0850 O.2       14 UNK        -0.5000 
     84 N          -0.3392  -26.0195  -49.5627 N.am      15 UNK        -0.5000 
     85 CA         -0.2195  -26.1329  -51.0157 C.3       15 UNK         0.1400 
     86 CB          0.1795  -24.7710  -51.6037 C.3       15 UNK        -0.1800 
     87 C          -1.5031  -26.6668  -51.6746 C.2       15 UNK         0.5000 
     88 O          -1.4100  -27.4863  -52.5901 O.2       15 UNK        -0.5000 
     89 N          -2.6645  -26.2107  -51.1800 N.am      16 UNK        -0.5000 
     90 CA         -4.0163  -26.5427  -51.6383 C.3       16 UNK         0.1400 
     91 CB         -4.3327  -28.0260  -51.3468 C.3       16 UNK        -0.1800 
     92 C          -4.2775  -26.1377  -53.1081 C.2       16 UNK         0.5000 
     93 O          -3.5482  -25.3121  -53.6634 O.2       16 UNK        -0.5000 
     94 N          -5.3384  -26.7000  -53.7065 N.am      17 UNK        -0.5000 
     95 CA         -5.7802  -26.4902  -55.0900 C.3       17 UNK         0.1400 
     96 CB         -4.8121  -27.1946  -56.0678 C.3       17 UNK        -0.1800 
     97 C          -6.0150  -24.9953  -55.3980 C.2       17 UNK         0.5000 
     98 O          -6.8483  -24.3727  -54.7392 O.2       17 UNK        -0.5000 
     99 N          -5.2690  -24.4344  -56.3585 N.am      18 UNK        -0.5000 
    100 CA        -5.3274  -23.0243  -56.7467 C.3       18 UNK         0.1400 
    101 CB        -4.5166  -22.8275  -58.0366 C.3       18 UNK        -0.1800 
    102 C         -4.8396  -22.0547  -55.6514 C.2       18 UNK         0.5000 
    103 O         -5.2977  -20.9124  -55.6174 O.2       18 UNK        -0.5000 
    104 N         -3.9405  -22.5149  -54.7682 N.am      19 UNK        -0.5000 
    105 CA        -3.4068  -21.7192  -53.6602 C.3       19 UNK         0.1400 
    106 CB        -2.0853  -22.3292  -53.1720 C.3       19 UNK        -0.1800 
    107 C         -4.3978  -21.5853  -52.4916 C.2       19 UNK         0.5000 
    108 O         -4.2655  -20.6510  -51.7045 O.2       19 UNK        -0.5000 
    109 N         -5.3868  -22.4892  -52.4047 N.am      20 UNK        -0.5000 
    110 CA        -6.4208  -22.4909  -51.3653 C.3       20 UNK         0.1400 
    111 CB        -7.2450  -23.7831  -51.4599 C.3       20 UNK        -0.1800 
    112 C         -7.3499  -21.2618  -51.4203 C.2       20 UNK         0.5000 
    113 O         -7.9491  -20.9122  -50.4028 O.2       20 UNK        -0.5000 
    114 N         -7.4341  -20.6167  -52.5935 N.am      21 UNK        -0.5000 
    115 CA        -8.2535  -19.4367  -52.8755 C.3       21 UNK         0.1400 
    116 CB        -8.1080  -19.0793  -54.3624 C.3       21 UNK        -0.1800 
    117 C         -7.9420  -18.2096  -51.9947 C.2       21 UNK         0.5000 
    118 O         -8.8395  -17.3950  -51.7744 O.2       21 UNK        -0.5000 
    119 N         -6.7022  -18.1060  -51.4979 N.am      22 UNK        -0.5000 
    120 CA        -6.2655  -17.0841  -50.5331 C.3       22 UNK         0.1400 
    121 C         -6.1236  -17.6167  -49.0763 C.2       22 UNK         0.5000 
    122 N         -6.5980  -18.8147  -48.7534 N.am      22 UNK        -0.7600 
    123 O         -5.6074  -16.9177  -48.2089 O.2       22 UNK        -0.5000 
    124 C124       -5.0289  -16.2935  -51.0366 C.3       23 UNK        -0.0398 
    125 S125       -3.5311  -17.2872  -51.3683 S.3       23 UNK        -0.2404 
    126 C126       -2.5598  -16.9671  -49.8619 C.3       23 UNK        -0.0205 
    127 H127        8.5582  -11.2777  -49.2772 H         1 UNK         0.0600 
    128 H128        8.5413  -13.0427  -49.3314 H         1 UNK         0.0600 
    129 H129        8.0118  -12.1123  -50.7356 H         1 UNK         0.0600 
    130 H130        6.8421  -13.9073  -48.1967 H         1 UNK         0.3000 
    131 H131        4.9239  -14.2990  -47.2555 H         1 UNK         0.0600 
    132 H132        3.1776  -12.4748  -48.9203 H         1 UNK         0.0800 
    133 H133        4.1340  -13.6126  -49.8027 H         1 UNK         0.0800 
    134 H134        1.8856  -14.5840  -50.7892 H         1 UNK         0.0800 
    135 H135        3.1874  -15.7295  -50.5666 H         1 UNK         0.0800 
    136 H136       -0.4605  -15.2274  -49.8921 H         1 UNK         0.1150 
    137 H137       -1.3833  -19.3978  -50.2369 H         1 UNK         0.1150 
    138 H138        2.6898  -18.0714  -50.4751 H         1 UNK         0.1150 
    139 H139        0.3054  -21.0093  -50.6061 H         1 UNK         0.0800 
    140 H140        1.6192  -20.4111  -51.5799 H         1 UNK         0.0800 
    141 H141        0.8088  -19.7426  -47.8733 H         1 UNK         0.0800 
    142 H142        2.2530  -20.2623  -47.0701 H         1 UNK         0.0800 
    143 H143        1.4720  -22.6336  -47.1039 H         1 UNK         0.0600 
    144 H144        0.4198  -20.5883  -45.4917 H         1 UNK         0.3000 
    145 H145       -1.5137  -22.6157  -43.2430 H         1 UNK         0.0600 
    146 H146       -0.0688  -21.3069  -41.6988 H         1 UNK         0.0600 
    147 H147        0.8516  -22.5843  -42.4804 H         1 UNK         0.0600 
    148 H148        1.0304  -20.9208  -43.0206 H         1 UNK         0.0600 
    149 H149       -1.1999  -19.7936  -43.4064 H         1 UNK         0.3000 
    150 H150       -4.0036  -19.1459  -45.5532 H         1 UNK         0.0600 
    151 H151       -4.8761  -19.4164  -43.2198 H         1 UNK         0.0600 
    152 H152       -4.5878  -17.7281  -43.6150 H         1 UNK         0.0600 
    153 H153       -3.4502  -18.5979  -42.5885 H         1 UNK         0.0600 
    154 H154       -2.1710  -17.3742  -44.3204 H         1 UNK         0.3000 
    155 H155        0.2742  -17.3372  -46.9748 H         1 UNK         0.0600 
    156 H156       -0.1999  -14.9382  -46.6837 H         1 UNK         0.0600 
    157 H157       -1.6634  -15.2946  -45.7633 H         1 UNK         0.0600 
    158 H158       -1.5667  -15.7134  -47.4602 H         1 UNK         0.0600 
    159 H159        0.2126  -16.1276  -44.3752 H         1 UNK         0.3000 
    160 H160        1.8858  -18.6657  -42.5846 H         1 UNK         0.0600 
    161 H161        3.0869  -16.1003  -43.7363 H         1 UNK         0.0600 
    162 H162        3.7859  -17.7093  -43.8435 H         1 UNK         0.0600 
    163 H163        3.6287  -16.9379  -42.2740 H         1 UNK         0.0600 
    164 H164        1.2622  -15.9199  -41.9904 H         1 UNK         0.3000 
    165 H165       -1.9509  -16.7168  -40.5339 H         1 UNK         0.0600 
    166 H166        0.6985  -15.4603  -39.6430 H         1 UNK         0.0600 
    167 H167       -0.8508  -15.3474  -38.8103 H         1 UNK         0.0600 
    168 H168       -0.0298  -16.8951  -38.9308 H         1 UNK         0.0600 
    169 H169       -0.9372  -14.1617  -41.0371 H         1 UNK         0.3000 
    170 H170       -2.0591  -13.5010  -44.2385 H         1 UNK         0.0600 
    171 H171       -4.3728  -13.8684  -43.4361 H         1 UNK         0.0600 
    172 H172       -3.9894  -13.0916  -41.9048 H         1 UNK         0.0600 
    173 H173       -3.9629  -12.1620  -43.4038 H         1 UNK         0.0600 
    174 H174       -1.9023  -11.8879  -41.8459 H         1 UNK         0.3000 
    175 H175        0.3216  -13.9331  -43.9160 H         1 UNK         0.0600 
    176 H176        0.9151  -12.8649  -46.0626 H         1 UNK         0.0600 
    177 H177       -0.6465  -12.2510  -45.5528 H         1 UNK         0.0600 
    178 H178        0.7892  -11.2608  -45.3469 H         1 UNK         0.0600 
    179 H179        2.6444  -12.3040  -44.2162 H         1 UNK         0.3000 
    180 H180        4.1373  -12.4269  -41.4222 H         1 UNK         0.0600 
    181 H181        5.0659  -15.0659  -42.6490 H         1 UNK         0.0600 
    182 H182        4.4393  -14.8951  -41.0085 H         1 UNK         0.0600 
    183 H183        5.9212  -14.0816  -41.4715 H         1 UNK         0.0600 
    184 H184        5.2264  -13.1473  -44.0718 H         1 UNK         0.3000 
    185 H185        5.0775   -9.9286  -45.3595 H         1 UNK         0.0600 
    186 H186        7.5507   -9.9594  -45.5354 H         1 UNK         0.0600 
    187 H187        7.0695   -9.5423  -43.8991 H         1 UNK         0.0600 
    188 H188        7.6554  -11.1638  -44.2502 H         1 UNK         0.0600 
    189 H189        6.5679  -12.1511  -46.2624 H         1 UNK         0.3000 
    190 H190       -1.5449  -20.7039  -47.5389 H         1 UNK         0.3000 
    191 H191       -2.4851  -21.8737  -49.8890 H         1 UNK         0.0600 
    192 H192       -3.4665  -19.8361  -48.9574 H         1 UNK         0.0600 
    193 H193       -4.7351  -21.0370  -49.0566 H         1 UNK         0.0600 
    194 H194       -3.9995  -20.6777  -47.5056 H         1 UNK         0.0600 
    195 H195       -3.1157  -22.8996  -46.5051 H         1 UNK         0.3000 
    196 H196       -4.7739  -25.1267  -47.1464 H         1 UNK         0.0600 
    197 H197       -4.3482  -25.7612  -44.7630 H         1 UNK         0.0600 
    198 H198       -4.7591  -24.0590  -44.9149 H         1 UNK         0.0600 
    199 H199       -3.0842  -24.5403  -44.6572 H         1 UNK         0.0600 
    200 H200       -1.2340  -24.8753  -46.5793 H         1 UNK         0.3000 
    201 H201       -0.7092  -27.6763  -46.7070 H         1 UNK         0.0600 
    202 H202        0.8133  -26.1001  -45.5791 H         1 UNK         0.0600 
    203 H203        1.1441  -25.2693  -47.0976 H         1 UNK         0.0600 
    204 H204        1.6758  -26.9310  -46.8644 H         1 UNK         0.0600 
    205 H205       -0.4038  -25.0755  -49.1839 H         1 UNK         0.3000 
    206 H206        0.5833  -26.8388  -51.2394 H         1 UNK         0.0600 
    207 H207       -0.5332  -23.9943  -51.3290 H         1 UNK         0.0600 
    208 H208        1.1601  -24.4598  -51.2431 H         1 UNK         0.0600 
    209 H209        0.2267  -24.8088  -52.6928 H         1 UNK         0.0600 
    210 H210       -2.6344  -25.5075  -50.4495 H         1 UNK         0.3000 
    211 H211       -4.6871  -25.9374  -51.0295 H         1 UNK         0.0600 
    212 H212       -3.7895  -28.6956  -52.0147 H         1 UNK         0.0600 
    213 H213       -5.3961  -28.2383  -51.4580 H         1 UNK         0.0600 
    214 H214       -4.0640  -28.2881  -50.3229 H         1 UNK         0.0600 
    215 H215       -5.9071  -27.3351  -53.1651 H         1 UNK         0.3000 
    216 H216       -6.7534  -26.9741  -55.1835 H         1 UNK         0.0600 
    217 H217       -4.7397  -28.2582  -55.8401 H         1 UNK         0.0600 
    218 H218       -3.8035  -26.7821  -56.0200 H         1 UNK         0.0600 
    219 H219       -5.1611  -27.1140  -57.0981 H         1 UNK         0.0600 
    220 H220       -4.5886  -25.0080  -56.8354 H         1 UNK         0.3000 
    221 H221       -6.3699  -22.7779  -56.9590 H         1 UNK         0.0600 
    222 H222       -3.4654  -23.0813  -57.8936 H         1 UNK         0.0600 
    223 H223       -4.9054  -23.4458  -58.8459 H         1 UNK         0.0600 
    224 H224       -4.5612  -21.7903  -58.3718 H         1 UNK         0.0600 
    225 H225       -3.6554  -23.4875  -54.8049 H         1 UNK         0.3000 
    226 H226       -3.1938  -20.7125  -54.0267 H         1 UNK         0.0600 
    227 H227       -1.3716  -22.4423  -53.9879 H         1 UNK         0.0600 
    228 H228       -1.6200  -21.6952  -52.4161 H         1 UNK         0.0600 
    229 H229       -2.2433  -23.3082  -52.7220 H         1 UNK         0.0600 
    230 H230       -5.4507  -23.2067  -53.1140 H         1 UNK         0.3000 
    231 H231       -5.9179  -22.4861  -50.3975 H         1 UNK         0.0600 
    232 H232       -7.9399  -23.8607  -50.6229 H         1 UNK         0.0600 
    233 H233       -6.6097  -24.6666  -51.4352 H         1 UNK         0.0600 
    234 H234       -7.8359  -23.8178  -52.3752 H         1 UNK         0.0600 
    235 H235       -6.8833  -20.9700  -53.3632 H         1 UNK         0.3000 
    236 H236       -9.2934  -19.7123  -52.6899 H         1 UNK         0.0600 
    237 H237       -8.7333  -18.2246  -54.6236 H         1 UNK         0.0600 
    238 H238       -7.0779  -18.8224  -54.6133 H         1 UNK         0.0600 
    239 H239       -8.4105  -19.9098  -55.0007 H         1 UNK         0.0600 
    240 H240       -6.0221  -18.8249  -51.7097 H         1 UNK         0.3000 
    241 H241       -7.0564  -16.3382  -50.4408 H         1 UNK         0.0600 
    242 H242       -7.0691  -19.4004  -49.4337 H         1 UNK         0.3800 
    243 H243       -6.5149  -19.1297  -47.8013 H         1 UNK         0.3800 
    244 H244       -5.2917  -15.7977  -51.9718 H         1 UNK         0.0800 
    245 H245       -4.7927  -15.4809  -50.3482 H         1 UNK         0.0800 
    246 H246       -2.6812  -15.9231  -49.5717 H         1 UNK         0.0800 
    247 H247       -2.9566  -17.5605  -49.0380 H         1 UNK         0.0800 
@<TRIPOS>BOND
     1    1    2 1    
     2    1  127 1    
     3    1  128 1    
     4    1  129 1    
     5    2    3 2    
     6    2    4 am   BACKBONE|DICT|INTERRES
     7    4    5 1    
     8    4  130 1    
     9    5    6 1    
    10    5   65 1    
    11    5  131 1    
    12    6    7 1    
    13    6  132 1    
    14    6  133 1    
    15    7    8 1    
    16    8    9 1    
    17    8  134 1    
    18    8  135 1    
    19    9   10 ar   
    20    9   14 ar   
    21   10   11 ar   
    22   10  136 1    
    23   11   12 ar   
    24   11  126 1    
    25   12   13 ar   
    26   12  137 1    
    27   13   14 ar   
    28   13   15 1    
    29   14  138 1    
    30   15   16 1    
    31   15  139 1    
    32   15  140 1    
    33   16   17 1    
    34   17   18 1    
    35   17  141 1    
    36   17  142 1    
    37   18   19 1    
    38   18   67 1    
    39   18  143 1    
    40   19   20 am   BACKBONE|DICT|INTERRES
    41   19  144 1    
    42   20   21 2    
    43   20   22 1    
    44   22   23 1    
    45   22   24 1    
    46   22  145 1    
    47   23  146 1    
    48   23  147 1    
    49   23  148 1    
    50   24   25 am   BACKBONE|DICT|INTERRES
    51   24  149 1    
    52   25   26 2    
    53   25   27 1    
    54   27   28 1    
    55   27   29 1    
    56   27  150 1    
    57   28  151 1    
    58   28  152 1    
    59   28  153 1    
    60   29   30 am   BACKBONE|DICT|INTERRES
    61   29  154 1    
    62   30   31 2    
    63   30   32 1    
    64   32   33 1    
    65   32   34 1    
    66   32  155 1    
    67   33  156 1    
    68   33  157 1    
    69   33  158 1    
    70   34   35 am   BACKBONE|DICT|INTERRES
    71   34  159 1    
    72   35   36 2    
    73   35   37 1    
    74   37   38 1    
    75   37   39 1    
    76   37  160 1    
    77   38  161 1    
    78   38  162 1    
    79   38  163 1    
    80   39   40 am   BACKBONE|DICT|INTERRES
    81   39  164 1    
    82   40   41 2    
    83   40   42 1    
    84   42   43 1    
    85   42   44 1    
    86   42  165 1    
    87   43  166 1    
    88   43  167 1    
    89   43  168 1    
    90   44   45 am   BACKBONE|DICT|INTERRES
    91   44  169 1    
    92   45   46 2    
    93   45   47 1    
    94   47   48 1    
    95   47   49 1    
    96   47  170 1    
    97   48  171 1    
    98   48  172 1    
    99   48  173 1    
   100   49   50 am   BACKBONE|DICT|INTERRES
   101   49  174 1    
   102   50   51 2    
   103   50   52 1    
   104   52   53 1    
   105   52   54 1    
   106   52  175 1    
   107   53  176 1    
   108   53  177 1    
   109   53  178 1    
   110   54   55 am   BACKBONE|DICT|INTERRES
   111   54  179 1    
   112   55   56 2    
   113   55   57 1    
   114   57   58 1    
   115   57   59 1    
   116   57  180 1    
   117   58  181 1    
   118   58  182 1    
   119   58  183 1    
   120   59   60 am   BACKBONE|DICT|INTERRES
   121   59  184 1    
   122   60   61 2    
   123   60   62 1    
   124   62   63 1    
   125   62   64 1    
   126   62  185 1    
   127   63  186 1    
   128   63  187 1    
   129   63  188 1    
   130   64   65 am   BACKBONE|DICT|INTERRES
   131   64  189 1    
   132   65   66 2    
   133   67   68 2    
   134   67   69 am   BACKBONE|DICT|INTERRES
   135   69   70 1    
   136   69  190 1    
   137   70   71 1    
   138   70   72 1    
   139   70  191 1    
   140   71  192 1    
   141   71  193 1    
   142   71  194 1    
   143   72   73 2    
   144   72   74 am   BACKBONE|DICT|INTERRES
   145   74   75 1    
   146   74  195 1    
   147   75   76 1    
   148   75   77 1    
   149   75  196 1    
   150   76  197 1    
   151   76  198 1    
   152   76  199 1    
   153   77   78 2    
   154   77   79 am   BACKBONE|DICT|INTERRES
   155   79   80 1    
   156   79  200 1    
   157   80   81 1    
   158   80   82 1    
   159   80  201 1    
   160   81  202 1    
   161   81  203 1    
   162   81  204 1    
   163   82   83 2    
   164   82   84 am   BACKBONE|DICT|INTERRES
   165   84   85 1    
   166   84  205 1    
   167   85   86 1    
   168   85   87 1    
   169   85  206 1    
   170   86  207 1    
   171   86  208 1    
   172   86  209 1    
   173   87   88 2    
   174   87   89 am   BACKBONE|DICT|INTERRES
   175   89   90 1    
   176   89  210 1    
   177   90   91 1    
   178   90   92 1    
   179   90  211 1    
   180   91  212 1    
   181   91  213 1    
   182   91  214 1    
   183   92   93 2    
   184   92   94 am   BACKBONE|DICT|INTERRES
   185   94   95 1    
   186   94  215 1    
   187   95   96 1    
   188   95   97 1    
   189   95  216 1    
   190   96  217 1    
   191   96  218 1    
   192   96  219 1    
   193   97   98 2    
   194   97   99 am   BACKBONE|DICT|INTERRES
   195   99  100 1    
   196   99  220 1    
   197  100  101 1    
   198  100  102 1    
   199  100  221 1    
   200  101  222 1    
   201  101  223 1    
   202  101  224 1    
   203  102  103 2    
   204  102  104 am   BACKBONE|DICT|INTERRES
   205  104  105 1    
   206  104  225 1    
   207  105  106 1    
   208  105  107 1    
   209  105  226 1    
   210  106  227 1    
   211  106  228 1    
   212  106  229 1    
   213  107  108 2    
   214  107  109 am   BACKBONE|DICT|INTERRES
   215  109  110 1    
   216  109  230 1    
   217  110  111 1    
   218  110  112 1    
   219  110  231 1    
   220  111  232 1    
   221  111  233 1    
   222  111  234 1    
   223  112  113 2    
   224  112  114 am   BACKBONE|DICT|INTERRES
   225  114  115 1    
   226  114  235 1    
   227  115  116 1    
   228  115  117 1    
   229  115  236 1    
   230  116  237 1    
   231  116  238 1    
   232  116  239 1    
   233  117  118 2    
   234  117  119 am   BACKBONE|DICT|INTERRES
   235  119  120 1    
   236  119  240 1    
   237  120  121 1    
   238  120  124 1    
   239  120  241 1    
   240  121  122 am   BACKBONE|DICT|INTERRES
   241  121  123 2    
   242  122  242 1    
   243  122  243 1    
   244  124  125 1    
   245  124  244 1    
   246  124  245 1    
   247  125  126 1    
   248  126  246 1    
   249  126  247 1    
@<TRIPOS>SUBSTRUCTURE
     1 UNK         1 GROUP             0       ****    0 ROOT    
