@<TRIPOS>MOLECULE
3R540
247   249    1
SMALL
USER_CHARGES


@<TRIPOS>ATOM
      1 CA         -1.7375  -13.7744  -53.9472 C.3       0 UNK        -0.1800 
      2 C          -1.1904  -13.1504  -52.6729 C.2       0 UNK         0.5000 
      3 O          -1.3515  -11.9476  -52.4614 O.2       0 UNK        -0.5000 
      4 N          -0.5272  -13.9589  -51.8373 N.am      1 UNK        -0.5000 
      5 CA          0.0595  -13.5370  -50.5601 C.3       1 UNK         0.1400 
      6 C6          1.0483  -14.5966  -50.0130 C.3       23 UNK        -0.0398 
      7 S7          2.4571  -13.8243  -49.1416 S.3       23 UNK        -0.2404 
      8 C8          3.2537  -15.2662  -48.3550 C.3       23 UNK        -0.0205 
      9 C9          3.5070  -16.4279  -49.3085 C.ar      23 UNK        -0.0193 
     10 C10         4.0025  -16.2127  -50.5986 C.ar      23 UNK        -0.1150 
     11 C11         4.1483  -17.2766  -51.4903 C.ar      23 UNK        -0.0193 
     12 C12         3.8549  -18.5743  -51.0637 C.ar      23 UNK        -0.1150 
     13 C13         3.3486  -18.8058  -49.7812 C.ar      23 UNK        -0.0193 
     14 C14         3.2003  -17.7288  -48.9033 C.ar      23 UNK        -0.1150 
     15 C15         2.9334  -20.2118  -49.3661 C.3       23 UNK        -0.0205 
     16 S16         1.2094  -20.2799  -48.7653 S.3       23 UNK        -0.2404 
     17 C17         0.8560  -22.0577  -48.9685 C.3       23 UNK        -0.0398 
     18 CA          0.0655  -22.7204  -47.8155 C.3       11 UNK         0.1400 
     19 N           0.6859  -22.5620  -46.4960 N.am      11 UNK        -0.5000 
     20 C           0.4034  -23.3403  -45.4412 C.2       10 UNK         0.5000 
     21 O          -0.4092  -24.2653  -45.4977 O.2       10 UNK        -0.5000 
     22 CA          1.0706  -23.0236  -44.0878 C.3       10 UNK         0.1400 
     23 CB          1.6986  -24.2772  -43.4470 C.3       10 UNK        -0.1800 
     24 N           2.0118  -21.8991  -44.0996 N.am      10 UNK        -0.5000 
     25 C           3.2320  -21.8148  -44.6474 C.2       9 UNK         0.5000 
     26 O           3.7619  -22.7212  -45.2895 O.2       9 UNK        -0.5000 
     27 CA          3.9864  -20.4796  -44.4619 C.3       9 UNK         0.1400 
     28 CB          4.0555  -19.7167  -45.7915 C.3       9 UNK        -0.1800 
     29 N           3.3817  -19.6038  -43.4547 N.am      9 UNK        -0.5000 
     30 C           3.4868  -19.7689  -42.1290 C.2       8 UNK         0.5000 
     31 O           4.1682  -20.6477  -41.6004 O.2       8 UNK        -0.5000 
     32 CA          2.6514  -18.8182  -41.2494 C.3       8 UNK         0.1400 
     33 CB          3.3748  -17.4787  -41.0438 C.3       8 UNK        -0.1800 
     34 N           1.3127  -18.5775  -41.7952 N.am      8 UNK        -0.5000 
     35 C           0.3622  -19.5169  -41.9106 C.2       7 UNK         0.5000 
     36 O           0.4997  -20.6782  -41.5278 O.2       7 UNK        -0.5000 
     37 CA         -0.9435  -19.1113  -42.6123 C.3       7 UNK         0.1400 
     38 CB         -1.8930  -18.4004  -41.6375 C.3       7 UNK        -0.1800 
     39 N          -0.6972  -18.2678  -43.7817 N.am      7 UNK        -0.5000 
     40 C          -0.1707  -18.7059  -44.9334 C.2       6 UNK         0.5000 
     41 O           0.0425  -19.8944  -45.1712 O.2       6 UNK        -0.5000 
     42 CA          0.1948  -17.6537  -45.9957 C.3       6 UNK         0.1400 
     43 CB         -0.9599  -17.4359  -46.9767 C.3       6 UNK        -0.1800 
     44 N           0.5952  -16.3695  -45.4275 N.am      6 UNK        -0.5000 
     45 C           1.7115  -16.1710  -44.7163 C.2       5 UNK         0.5000 
     46 O           2.5412  -17.0507  -44.4914 O.2       5 UNK        -0.5000 
     47 CA          1.9037  -14.7690  -44.1151 C.3       5 UNK         0.1400 
     48 CB          2.4509  -13.7839  -45.1584 C.3       5 UNK        -0.1800 
     49 N           0.6581  -14.2457  -43.5568 N.am      5 UNK        -0.5000 
     50 C           0.0715  -14.7178  -42.4489 C.2       4 UNK         0.5000 
     51 O           0.5320  -15.6354  -41.7691 O.2       4 UNK        -0.5000 
     52 CA         -1.2754  -14.0799  -42.0623 C.3       4 UNK         0.1400 
     53 CB         -1.0553  -12.7566  -41.3140 C.3       4 UNK        -0.1800 
     54 N          -2.1402  -13.8464  -43.2210 N.am      4 UNK        -0.5000 
     55 C          -2.6919  -14.8239  -43.9532 C.2       3 UNK         0.5000 
     56 O          -2.5371  -16.0205  -43.7202 O.2       3 UNK        -0.5000 
     57 CA         -3.5238  -14.3992  -45.1758 C.3       3 UNK         0.1400 
     58 CB         -4.9660  -14.0729  -44.7605 C.3       3 UNK        -0.1800 
     59 N          -2.9632  -13.2684  -45.9208 N.am      3 UNK        -0.5000 
     60 C          -1.7490  -13.2506  -46.4852 C.2       2 UNK         0.5000 
     61 O          -0.9067  -14.1385  -46.3360 O.2       2 UNK        -0.5000 
     62 CA         -1.4061  -12.0180  -47.3397 C.3       2 UNK         0.1400 
     63 CB         -0.6303  -10.9913  -46.5006 C.3       2 UNK        -0.1800 
     64 N          -0.6030  -12.3807  -48.5073 N.am      2 UNK        -0.5000 
     65 C          -1.0117  -13.1738  -49.5070 C.2       1 UNK         0.5000 
     66 O          -2.1575  -13.6238  -49.6002 O.2       1 UNK        -0.5000 
     67 C          -1.4348  -22.3569  -47.8214 C.2       11 UNK         0.5000 
     68 O          -2.1832  -22.9415  -48.6062 O.2       11 UNK        -0.5000 
     69 N          -1.8684  -21.4735  -46.9053 N.am      12 UNK        -0.5000 
     70 CA         -3.2837  -21.1868  -46.6468 C.3       12 UNK         0.1400 
     71 CB         -3.4272  -20.0562  -45.6185 C.3       12 UNK        -0.1800 
     72 C          -4.0571  -22.4318  -46.1834 C.2       12 UNK         0.5000 
     73 O          -5.1222  -22.7247  -46.7265 O.2       12 UNK        -0.5000 
     74 N          -3.4809  -23.1542  -45.2140 N.am      13 UNK        -0.5000 
     75 CA         -4.0393  -24.3826  -44.6538 C.3       13 UNK         0.1400 
     76 CB         -3.3041  -24.7238  -43.3482 C.3       13 UNK        -0.1800 
     77 C          -3.9778  -25.5612  -45.6400 C.2       13 UNK         0.5000 
     78 O          -4.9221  -26.3494  -45.6966 O.2       13 UNK        -0.5000 
     79 N          -2.8747  -25.6572  -46.3963 N.am      14 UNK        -0.5000 
     80 CA         -2.6435  -26.7088  -47.3855 C.3       14 UNK         0.1400 
     81 CB         -1.1801  -26.6718  -47.8500 C.3       14 UNK        -0.1800 
     82 C          -3.5981  -26.6209  -48.5895 C.2       14 UNK         0.5000 
     83 O          -4.1537  -27.6440  -48.9920 O.2       14 UNK        -0.5000 
     84 N          -3.7693  -25.4124  -49.1448 N.am      15 UNK        -0.5000 
     85 CA         -4.6374  -25.1745  -50.2980 C.3       15 UNK         0.1400 
     86 CB         -4.2240  -23.8716  -50.9941 C.3       15 UNK        -0.1800 
     87 C          -6.1239  -25.1136  -49.9134 C.2       15 UNK         0.5000 
     88 O          -6.9557  -25.6588  -50.6389 O.2       15 UNK        -0.5000 
     89 N          -6.4267  -24.4232  -48.8016 N.am      16 UNK        -0.5000 
     90 CA         -7.7664  -24.1436  -48.2658 C.3       16 UNK         0.1400 
     91 CB         -8.4523  -25.4462  -47.8047 C.3       16 UNK        -0.1800 
     92 C          -8.6610  -23.2964  -49.2031 C.2       16 UNK         0.5000 
     93 O          -9.8822  -23.2882  -49.0384 O.2       16 UNK        -0.5000 
     94 N          -8.0463  -22.5883  -50.1596 N.am      17 UNK        -0.5000 
     95 CA         -8.7066  -21.7742  -51.1738 C.3       17 UNK         0.1400 
     96 CB         -9.2103  -22.6693  -52.3224 C.3       17 UNK        -0.1800 
     97 C          -7.7100  -20.7145  -51.6605 C.2       17 UNK         0.5000 
     98 O          -6.8876  -21.0022  -52.5334 O.2       17 UNK        -0.5000 
     99 N          -7.7557  -19.5271  -51.0359 N.am      18 UNK        -0.5000 
    100 CA        -6.9601  -18.3252  -51.3452 C.3       18 UNK         0.1400 
    101 CB        -7.4315  -17.7132  -52.6808 C.3       18 UNK        -0.1800 
    102 C         -5.4307  -18.5503  -51.3173 C.2       18 UNK         0.5000 
    103 O         -4.6922  -17.8849  -52.0469 O.2       18 UNK        -0.5000 
    104 N         -4.9939  -19.5369  -50.5183 N.am      19 UNK        -0.5000 
    105 CA        -3.6261  -20.0582  -50.4049 C.3       19 UNK         0.1400 
    106 CB        -2.7153  -19.0136  -49.7327 C.3       19 UNK        -0.1800 
    107 C         -3.0234  -20.5747  -51.7284 C.2       19 UNK         0.5000 
    108 O         -1.8032  -20.6960  -51.8207 O.2       19 UNK        -0.5000 
    109 N         -3.8691  -20.8220  -52.7446 N.am      20 UNK        -0.5000 
    110 CA        -3.5078  -21.0696  -54.1469 C.3       20 UNK         0.1400 
    111 CB        -2.9267  -22.4889  -54.3111 C.3       20 UNK        -0.1800 
    112 C         -2.5862  -19.9709  -54.7312 C.2       20 UNK         0.5000 
    113 O         -1.7119  -20.2688  -55.5470 O.2       20 UNK        -0.5000 
    114 N         -2.7586  -18.7300  -54.2459 N.am      21 UNK        -0.5000 
    115 CA        -1.9043  -17.5477  -54.4054 C.3       21 UNK         0.1400 
    116 CB        -1.7542  -17.1382  -55.8842 C.3       21 UNK        -0.1800 
    117 C         -0.5350  -17.6741  -53.7026 C.2       21 UNK         0.5000 
    118 O         -0.1871  -16.7993  -52.9067 O.2       21 UNK        -0.5000 
    119 N          0.1933  -18.7546  -54.0028 N.am      22 UNK        -0.5000 
    120 CA         1.5261  -19.1012  -53.4900 C.3       22 UNK         0.1400 
    121 C          1.6753  -20.6374  -53.2534 C.2       22 UNK         0.5000 
    122 N          0.6214  -21.3721  -52.9310 N.am      22 UNK        -0.7600 
    123 O          2.7654  -21.1935  -53.3558 O.2       22 UNK        -0.5000 
    124 C124        2.6648  -18.5182  -54.3849 C.3       23 UNK        -0.0398 
    125 S125        3.1071  -16.7880  -54.0064 S.3       23 UNK        -0.2404 
    126 C126        4.5658  -17.0077  -52.9276 C.3       23 UNK        -0.0205 
    127 H127       -2.7110  -14.2273  -53.7598 H         1 UNK         0.0600 
    128 H128       -1.8533  -13.0205  -54.7262 H         1 UNK         0.0600 
    129 H129       -1.0590  -14.5396  -54.3216 H         1 UNK         0.0600 
    130 H130       -0.4314  -14.9429  -52.0711 H         1 UNK         0.3000 
    131 H131        0.6180  -12.6242  -50.7803 H         1 UNK         0.0600 
    132 H132        1.4600  -15.1773  -50.8396 H         1 UNK         0.0800 
    133 H133        0.5562  -15.3209  -49.3609 H         1 UNK         0.0800 
    134 H134        2.6185  -15.5915  -47.5310 H         1 UNK         0.0800 
    135 H135        4.2020  -14.9546  -47.9159 H         1 UNK         0.0800 
    136 H136        4.2263  -15.2078  -50.9276 H         1 UNK         0.1150 
    137 H137        3.9754  -19.3988  -51.7510 H         1 UNK         0.1150 
    138 H138        2.8142  -17.9019  -47.9110 H         1 UNK         0.1150 
    139 H139        3.0347  -20.8894  -50.2157 H         1 UNK         0.0800 
    140 H140        3.6068  -20.5828  -48.5950 H         1 UNK         0.0800 
    141 H141        1.8010  -22.5904  -49.0813 H         1 UNK         0.0800 
    142 H142        0.3334  -22.1928  -49.9178 H         1 UNK         0.0800 
    143 H143        0.0969  -23.7892  -48.0306 H         1 UNK         0.0600 
    144 H144        1.2977  -21.7688  -46.3677 H         1 UNK         0.3000 
    145 H145        0.2559  -22.7053  -43.4363 H         1 UNK         0.0600 
    146 H146        2.1344  -24.0461  -42.4749 H         1 UNK         0.0600 
    147 H147        0.9480  -25.0525  -43.2884 H         1 UNK         0.0600 
    148 H148        2.4800  -24.7071  -44.0739 H         1 UNK         0.0600 
    149 H149        1.6708  -21.0696  -43.6334 H         1 UNK         0.3000 
    150 H150        5.0056  -20.7156  -44.1496 H         1 UNK         0.0600 
    151 H151        4.6122  -20.2871  -46.5348 H         1 UNK         0.0600 
    152 H152        4.5613  -18.7579  -45.6758 H         1 UNK         0.0600 
    153 H153        3.0594  -19.5250  -46.1911 H         1 UNK         0.0600 
    154 H154        2.8704  -18.7968  -43.8040 H         1 UNK         0.3000 
    155 H155        2.5329  -19.2903  -40.2718 H         1 UNK         0.0600 
    156 H156        3.5158  -16.9455  -41.9838 H         1 UNK         0.0600 
    157 H157        4.3603  -17.6316  -40.6025 H         1 UNK         0.0600 
    158 H158        2.8146  -16.8279  -40.3721 H         1 UNK         0.0600 
    159 H159        1.1054  -17.6304  -42.0922 H         1 UNK         0.3000 
    160 H160       -1.4317  -20.0293  -42.9436 H         1 UNK         0.0600 
    161 H161       -2.8600  -18.2089  -42.1026 H         1 UNK         0.0600 
    162 H162       -1.4880  -17.4458  -41.3014 H         1 UNK         0.0600 
    163 H163       -2.0747  -19.0113  -40.7524 H         1 UNK         0.0600 
    164 H164       -0.9548  -17.2903  -43.6997 H         1 UNK         0.3000 
    165 H165        1.0398  -18.0507  -46.5574 H         1 UNK         0.0600 
    166 H166       -0.6737  -16.7609  -47.7830 H         1 UNK         0.0600 
    167 H167       -1.2470  -18.3824  -47.4308 H         1 UNK         0.0600 
    168 H168       -1.8370  -17.0170  -46.4829 H         1 UNK         0.0600 
    169 H169       -0.0176  -15.5773  -45.6114 H         1 UNK         0.3000 
    170 H170        2.6347  -14.8482  -43.3076 H         1 UNK         0.0600 
    171 H171        3.4082  -14.1272  -45.5515 H         1 UNK         0.0600 
    172 H172        1.7702  -13.6656  -46.0021 H         1 UNK         0.0600 
    173 H173        2.6159  -12.7988  -44.7220 H         1 UNK         0.0600 
    174 H174        0.1812  -13.5374  -44.0944 H         1 UNK         0.3000 
    175 H175       -1.7881  -14.7702  -41.3888 H         1 UNK         0.0600 
    176 H176       -2.0003  -12.3391  -40.9660 H         1 UNK         0.0600 
    177 H177       -0.4243  -12.9053  -40.4367 H         1 UNK         0.0600 
    178 H178       -0.5703  -12.0106  -41.9449 H         1 UNK         0.0600 
    179 H179       -2.3125  -12.8874  -43.4841 H         1 UNK         0.3000 
    180 H180       -3.5543  -15.2518  -45.8573 H         1 UNK         0.0600 
    181 H181       -5.0107  -13.1976  -44.1113 H         1 UNK         0.0600 
    182 H182       -5.4145  -14.9069  -44.2187 H         1 UNK         0.0600 
    183 H183       -5.5932  -13.8788  -45.6307 H         1 UNK         0.0600 
    184 H184       -3.5844  -12.4881  -46.0784 H         1 UNK         0.3000 
    185 H185       -2.3319  -11.5599  -47.6936 H         1 UNK         0.0600 
    186 H186        0.3149  -11.3985  -46.1386 H         1 UNK         0.0600 
    187 H187       -0.4090  -10.0946  -47.0798 H         1 UNK         0.0600 
    188 H188       -1.2083  -10.6794  -45.6298 H         1 UNK         0.0600 
    189 H189        0.3668  -12.1005  -48.4824 H         1 UNK         0.3000 
    190 H190       -1.1847  -21.0305  -46.2990 H         1 UNK         0.3000 
    191 H191       -3.7424  -20.8454  -47.5722 H         1 UNK         0.0600 
    192 H192       -3.0069  -19.1245  -45.9901 H         1 UNK         0.0600 
    193 H193       -2.9343  -20.3008  -44.6788 H         1 UNK         0.0600 
    194 H194       -4.4771  -19.8627  -45.3947 H         1 UNK         0.0600 
    195 H195       -2.5784  -22.8674  -44.8665 H         1 UNK         0.3000 
    196 H196       -5.0898  -24.2021  -44.4155 H         1 UNK         0.0600 
    197 H197       -3.7180  -25.6241  -42.8923 H         1 UNK         0.0600 
    198 H198       -3.3993  -23.9183  -42.6198 H         1 UNK         0.0600 
    199 H199       -2.2411  -24.9007  -43.5160 H         1 UNK         0.0600 
    200 H200       -2.1143  -25.0048  -46.2334 H         1 UNK         0.3000 
    201 H201       -2.8137  -27.6686  -46.8931 H         1 UNK         0.0600 
    202 H202       -0.4925  -26.7242  -47.0055 H         1 UNK         0.0600 
    203 H203       -0.9599  -25.7639  -48.4099 H         1 UNK         0.0600 
    204 H204       -0.9597  -27.5172  -48.5029 H         1 UNK         0.0600 
    205 H205       -3.2572  -24.6139  -48.7818 H         1 UNK         0.3000 
    206 H206       -4.5061  -25.9901  -51.0126 H         1 UNK         0.0600 
    207 H207       -3.1826  -23.9032  -51.3151 H         1 UNK         0.0600 
    208 H208       -4.8361  -23.6885  -51.8781 H         1 UNK         0.0600 
    209 H209       -4.3452  -23.0174  -50.3308 H         1 UNK         0.0600 
    210 H210       -5.6713  -24.0095  -48.2653 H         1 UNK         0.3000 
    211 H211       -7.6109  -23.5304  -47.3776 H         1 UNK         0.0600 
    212 H212       -8.7159  -26.0867  -48.6466 H         1 UNK         0.0600 
    213 H213       -9.3709  -25.2335  -47.2567 H         1 UNK         0.0600 
    214 H214       -7.8041  -26.0163  -47.1387 H         1 UNK         0.0600 
    215 H215       -7.0409  -22.6444  -50.2275 H         1 UNK         0.3000 
    216 H216       -9.5645  -21.2619  -50.7328 H         1 UNK         0.0600 
    217 H217       -9.6475  -22.0700  -53.1219 H         1 UNK         0.0600 
    218 H218       -9.9793  -23.3603  -51.9768 H         1 UNK         0.0600 
    219 H219       -8.4029  -23.2610  -52.7561 H         1 UNK         0.0600 
    220 H220       -8.4340  -19.4103  -50.2953 H         1 UNK         0.3000 
    221 H221       -7.1715  -17.6023  -50.5561 H         1 UNK         0.0600 
    222 H222       -7.1997  -18.3628  -53.5256 H         1 UNK         0.0600 
    223 H223       -8.5075  -17.5396  -52.6770 H         1 UNK         0.0600 
    224 H224       -6.9514  -16.7514  -52.8655 H         1 UNK         0.0600 
    225 H225       -5.6919  -20.0215  -49.9735 H         1 UNK         0.3000 
    226 H226       -3.6801  -20.9276  -49.7548 H         1 UNK         0.0600 
    227 H227       -3.1572  -18.6450  -48.8075 H         1 UNK         0.0600 
    228 H228       -1.7457  -19.4466  -49.4847 H         1 UNK         0.0600 
    229 H229       -2.5322  -18.1566  -50.3818 H         1 UNK         0.0600 
    230 H230       -4.8648  -20.7234  -52.5717 H         1 UNK         0.3000 
    231 H231       -4.4365  -21.0219  -54.7170 H         1 UNK         0.0600 
    232 H232       -3.6224  -23.2434  -53.9459 H         1 UNK         0.0600 
    233 H233       -1.9878  -22.6081  -53.7703 H         1 UNK         0.0600 
    234 H234       -2.7317  -22.7154  -55.3598 H         1 UNK         0.0600 
    235 H235       -3.4886  -18.6097  -53.5498 H         1 UNK         0.3000 
    236 H236       -2.4394  -16.7433  -53.8989 H         1 UNK         0.0600 
    237 H237       -1.1932  -16.2084  -55.9777 H         1 UNK         0.0600 
    238 H238       -1.2229  -17.8884  -56.4695 H         1 UNK         0.0600 
    239 H239       -2.7274  -16.9785  -56.3481 H         1 UNK         0.0600 
    240 H240       -0.2230  -19.4377  -54.6297 H         1 UNK         0.3000 
    241 H241        1.6114  -18.6718  -52.4921 H         1 UNK         0.0600 
    242 H242        0.7500  -22.3610  -52.7992 H         1 UNK         0.3800 
    243 H243       -0.2762  -20.9546  -52.6862 H         1 UNK         0.3800 
    244 H244        3.5845  -19.0987  -54.3153 H         1 UNK         0.0800 
    245 H245        2.3787  -18.5772  -55.4358 H         1 UNK         0.0800 
    246 H246        5.1697  -16.1001  -52.9718 H         1 UNK         0.0800 
    247 H247        5.2048  -17.8101  -53.2985 H         1 UNK         0.0800 
@<TRIPOS>BOND
     1    1    2 1    
     2    1  127 1    
     3    1  128 1    
     4    1  129 1    
     5    2    3 2    
     6    2    4 am   BACKBONE|DICT|INTERRES
     7    4    5 1    
     8    4  130 1    
     9    5    6 1    
    10    5   65 1    
    11    5  131 1    
    12    6    7 1    
    13    6  132 1    
    14    6  133 1    
    15    7    8 1    
    16    8    9 1    
    17    8  134 1    
    18    8  135 1    
    19    9   10 ar   
    20    9   14 ar   
    21   10   11 ar   
    22   10  136 1    
    23   11   12 ar   
    24   11  126 1    
    25   12   13 ar   
    26   12  137 1    
    27   13   14 ar   
    28   13   15 1    
    29   14  138 1    
    30   15   16 1    
    31   15  139 1    
    32   15  140 1    
    33   16   17 1    
    34   17   18 1    
    35   17  141 1    
    36   17  142 1    
    37   18   19 1    
    38   18   67 1    
    39   18  143 1    
    40   19   20 am   BACKBONE|DICT|INTERRES
    41   19  144 1    
    42   20   21 2    
    43   20   22 1    
    44   22   23 1    
    45   22   24 1    
    46   22  145 1    
    47   23  146 1    
    48   23  147 1    
    49   23  148 1    
    50   24   25 am   BACKBONE|DICT|INTERRES
    51   24  149 1    
    52   25   26 2    
    53   25   27 1    
    54   27   28 1    
    55   27   29 1    
    56   27  150 1    
    57   28  151 1    
    58   28  152 1    
    59   28  153 1    
    60   29   30 am   BACKBONE|DICT|INTERRES
    61   29  154 1    
    62   30   31 2    
    63   30   32 1    
    64   32   33 1    
    65   32   34 1    
    66   32  155 1    
    67   33  156 1    
    68   33  157 1    
    69   33  158 1    
    70   34   35 am   BACKBONE|DICT|INTERRES
    71   34  159 1    
    72   35   36 2    
    73   35   37 1    
    74   37   38 1    
    75   37   39 1    
    76   37  160 1    
    77   38  161 1    
    78   38  162 1    
    79   38  163 1    
    80   39   40 am   BACKBONE|DICT|INTERRES
    81   39  164 1    
    82   40   41 2    
    83   40   42 1    
    84   42   43 1    
    85   42   44 1    
    86   42  165 1    
    87   43  166 1    
    88   43  167 1    
    89   43  168 1    
    90   44   45 am   BACKBONE|DICT|INTERRES
    91   44  169 1    
    92   45   46 2    
    93   45   47 1    
    94   47   48 1    
    95   47   49 1    
    96   47  170 1    
    97   48  171 1    
    98   48  172 1    
    99   48  173 1    
   100   49   50 am   BACKBONE|DICT|INTERRES
   101   49  174 1    
   102   50   51 2    
   103   50   52 1    
   104   52   53 1    
   105   52   54 1    
   106   52  175 1    
   107   53  176 1    
   108   53  177 1    
   109   53  178 1    
   110   54   55 am   BACKBONE|DICT|INTERRES
   111   54  179 1    
   112   55   56 2    
   113   55   57 1    
   114   57   58 1    
   115   57   59 1    
   116   57  180 1    
   117   58  181 1    
   118   58  182 1    
   119   58  183 1    
   120   59   60 am   BACKBONE|DICT|INTERRES
   121   59  184 1    
   122   60   61 2    
   123   60   62 1    
   124   62   63 1    
   125   62   64 1    
   126   62  185 1    
   127   63  186 1    
   128   63  187 1    
   129   63  188 1    
   130   64   65 am   BACKBONE|DICT|INTERRES
   131   64  189 1    
   132   65   66 2    
   133   67   68 2    
   134   67   69 am   BACKBONE|DICT|INTERRES
   135   69   70 1    
   136   69  190 1    
   137   70   71 1    
   138   70   72 1    
   139   70  191 1    
   140   71  192 1    
   141   71  193 1    
   142   71  194 1    
   143   72   73 2    
   144   72   74 am   BACKBONE|DICT|INTERRES
   145   74   75 1    
   146   74  195 1    
   147   75   76 1    
   148   75   77 1    
   149   75  196 1    
   150   76  197 1    
   151   76  198 1    
   152   76  199 1    
   153   77   78 2    
   154   77   79 am   BACKBONE|DICT|INTERRES
   155   79   80 1    
   156   79  200 1    
   157   80   81 1    
   158   80   82 1    
   159   80  201 1    
   160   81  202 1    
   161   81  203 1    
   162   81  204 1    
   163   82   83 2    
   164   82   84 am   BACKBONE|DICT|INTERRES
   165   84   85 1    
   166   84  205 1    
   167   85   86 1    
   168   85   87 1    
   169   85  206 1    
   170   86  207 1    
   171   86  208 1    
   172   86  209 1    
   173   87   88 2    
   174   87   89 am   BACKBONE|DICT|INTERRES
   175   89   90 1    
   176   89  210 1    
   177   90   91 1    
   178   90   92 1    
   179   90  211 1    
   180   91  212 1    
   181   91  213 1    
   182   91  214 1    
   183   92   93 2    
   184   92   94 am   BACKBONE|DICT|INTERRES
   185   94   95 1    
   186   94  215 1    
   187   95   96 1    
   188   95   97 1    
   189   95  216 1    
   190   96  217 1    
   191   96  218 1    
   192   96  219 1    
   193   97   98 2    
   194   97   99 am   BACKBONE|DICT|INTERRES
   195   99  100 1    
   196   99  220 1    
   197  100  101 1    
   198  100  102 1    
   199  100  221 1    
   200  101  222 1    
   201  101  223 1    
   202  101  224 1    
   203  102  103 2    
   204  102  104 am   BACKBONE|DICT|INTERRES
   205  104  105 1    
   206  104  225 1    
   207  105  106 1    
   208  105  107 1    
   209  105  226 1    
   210  106  227 1    
   211  106  228 1    
   212  106  229 1    
   213  107  108 2    
   214  107  109 am   BACKBONE|DICT|INTERRES
   215  109  110 1    
   216  109  230 1    
   217  110  111 1    
   218  110  112 1    
   219  110  231 1    
   220  111  232 1    
   221  111  233 1    
   222  111  234 1    
   223  112  113 2    
   224  112  114 am   BACKBONE|DICT|INTERRES
   225  114  115 1    
   226  114  235 1    
   227  115  116 1    
   228  115  117 1    
   229  115  236 1    
   230  116  237 1    
   231  116  238 1    
   232  116  239 1    
   233  117  118 2    
   234  117  119 am   BACKBONE|DICT|INTERRES
   235  119  120 1    
   236  119  240 1    
   237  120  121 1    
   238  120  124 1    
   239  120  241 1    
   240  121  122 am   BACKBONE|DICT|INTERRES
   241  121  123 2    
   242  122  242 1    
   243  122  243 1    
   244  124  125 1    
   245  124  244 1    
   246  124  245 1    
   247  125  126 1    
   248  126  246 1    
   249  126  247 1    
@<TRIPOS>SUBSTRUCTURE
     1 UNK         1 GROUP             0       ****    0 ROOT    
