@<TRIPOS>MOLECULE
3R540
247   249    1
SMALL
USER_CHARGES


@<TRIPOS>ATOM
      1 CA          1.6177  -11.1239  -46.8451 C.3       0 UNK        -0.1800 
      2 C           2.8578  -11.9105  -47.2430 C.2       0 UNK         0.5000 
      3 O           3.7374  -11.3713  -47.9149 O.2       0 UNK        -0.5000 
      4 N           2.9417  -13.1791  -46.8258 N.am      1 UNK        -0.5000 
      5 CA          4.0501  -14.0897  -47.1272 C.3       1 UNK         0.1400 
      6 C6          3.5465  -15.5396  -47.3352 C.3       23 UNK        -0.0398 
      7 S7          4.7730  -16.5981  -48.1733 S.3       23 UNK        -0.2404 
      8 C8          4.3900  -16.2925  -49.9274 C.3       23 UNK        -0.0205 
      9 C9          3.0911  -16.9546  -50.3617 C.ar      23 UNK        -0.0193 
     10 C10         1.9838  -16.1822  -50.7236 C.ar      23 UNK        -0.1150 
     11 C11         0.8057  -16.7915  -51.1672 C.ar      23 UNK        -0.0193 
     12 C12         0.7371  -18.1887  -51.2216 C.ar      23 UNK        -0.1150 
     13 C13         1.8306  -18.9744  -50.8457 C.ar      23 UNK        -0.0193 
     14 C14         3.0108  -18.3466  -50.4353 C.ar      23 UNK        -0.1150 
     15 C15         1.7304  -20.4964  -50.9070 C.3       23 UNK        -0.0205 
     16 S16         2.4472  -21.3335  -49.4515 S.3       23 UNK        -0.2404 
     17 C17         1.4277  -20.6484  -48.1020 C.3       23 UNK        -0.0398 
     18 CA          0.5110  -21.7011  -47.4410 C.3       11 UNK         0.1400 
     19 N           0.0262  -21.2458  -46.1377 N.am      11 UNK        -0.5000 
     20 C          -0.6314  -22.0098  -45.2553 C.2       10 UNK         0.5000 
     21 O          -0.8470  -23.2109  -45.4178 O.2       10 UNK        -0.5000 
     22 CA         -1.1867  -21.2982  -44.0078 C.3       10 UNK         0.1400 
     23 CB         -0.0920  -21.1213  -42.9456 C.3       10 UNK        -0.1800 
     24 N          -1.7847  -19.9994  -44.3264 N.am      10 UNK        -0.5000 
     25 C          -2.8659  -19.8394  -45.1034 C.2       9 UNK         0.5000 
     26 O          -3.5067  -20.7775  -45.5758 O.2       9 UNK        -0.5000 
     27 CA         -3.2777  -18.3974  -45.4502 C.3       9 UNK         0.1400 
     28 CB         -4.0936  -17.7727  -44.3090 C.3       9 UNK        -0.1800 
     29 N          -2.1353  -17.5401  -45.7658 N.am      9 UNK        -0.5000 
     30 C          -1.3063  -17.7136  -46.8051 C.2       8 UNK         0.5000 
     31 O          -1.4373  -18.6070  -47.6398 O.2       8 UNK        -0.5000 
     32 CA         -0.0877  -16.7740  -46.8825 C.3       8 UNK         0.1400 
     33 CB         -0.4709  -15.4017  -47.4580 C.3       8 UNK        -0.1800 
     34 N           0.5483  -16.6025  -45.5747 N.am      8 UNK        -0.5000 
     35 C           1.1678  -17.5877  -44.9086 C.2       7 UNK         0.5000 
     36 O           1.3125  -18.7260  -45.3528 O.2       7 UNK        -0.5000 
     37 CA          1.6694  -17.2615  -43.4921 C.3       7 UNK         0.1400 
     38 CB          3.0619  -16.6250  -43.5333 C.3       7 UNK        -0.1800 
     39 N           0.7574  -16.3830  -42.7619 N.am      7 UNK        -0.5000 
     40 C          -0.4547  -16.7579  -42.3300 C.2       6 UNK         0.5000 
     41 O          -0.9108  -17.8917  -42.4756 O.2       6 UNK        -0.5000 
     42 CA         -1.3231  -15.6676  -41.6772 C.3       6 UNK         0.1400 
     43 CB         -0.9167  -15.4547  -40.2114 C.3       6 UNK        -0.1800 
     44 N          -1.2515  -14.3911  -42.3890 N.am      6 UNK        -0.5000 
     45 C          -1.6202  -14.2007  -43.6643 C.2       5 UNK         0.5000 
     46 O          -2.1171  -15.0795  -44.3652 O.2       5 UNK        -0.5000 
     47 CA         -1.3607  -12.8125  -44.2775 C.3       5 UNK         0.1400 
     48 CB         -2.6538  -11.9852  -44.3042 C.3       5 UNK        -0.1800 
     49 N          -0.3224  -12.0570  -43.5753 N.am      5 UNK        -0.5000 
     50 C           0.9790  -12.3725  -43.5539 C.2       4 UNK         0.5000 
     51 O           1.4571  -13.3130  -44.1970 O.2       4 UNK        -0.5000 
     52 CA          1.8723  -11.4537  -42.6910 C.3       4 UNK         0.1400 
     53 CB          1.2152  -11.0863  -41.3412 C.3       4 UNK        -0.1800 
     54 N           3.2216  -11.9733  -42.4605 N.am      4 UNK        -0.5000 
     55 C           3.5795  -13.1038  -41.8353 C.2       3 UNK         0.5000 
     56 O           2.7810  -13.9284  -41.3847 O.2       3 UNK        -0.5000 
     57 CA          5.1015  -13.3230  -41.6982 C.3       3 UNK         0.1400 
     58 CB          5.4779  -14.6557  -41.0281 C.3       3 UNK        -0.1800 
     59 N           5.7639  -13.2412  -42.9993 N.am      3 UNK        -0.5000 
     60 C           6.1779  -12.1219  -43.6022 C.2       2 UNK         0.5000 
     61 O           6.0743  -11.0029  -43.0986 O.2       2 UNK        -0.5000 
     62 CA          6.7421  -12.2657  -45.0275 C.3       2 UNK         0.1400 
     63 CB          8.0301  -13.1124  -45.0589 C.3       2 UNK        -0.1800 
     64 N           5.7432  -12.7502  -45.9879 N.am      2 UNK        -0.5000 
     65 C           5.1373  -13.9456  -46.0419 C.2       1 UNK         0.5000 
     66 O           5.3741  -14.8718  -45.2644 O.2       1 UNK        -0.5000 
     67 C          -0.6499  -22.1290  -48.3642 C.2       11 UNK         0.5000 
     68 O          -0.5704  -23.1920  -48.9772 O.2       11 UNK        -0.5000 
     69 N          -1.7277  -21.3328  -48.4081 N.am      12 UNK        -0.5000 
     70 CA         -2.9563  -21.6457  -49.1387 C.3       12 UNK         0.1400 
     71 CB         -3.9059  -20.4404  -49.1069 C.3       12 UNK        -0.1800 
     72 C          -3.6576  -22.9133  -48.6160 C.2       12 UNK         0.5000 
     73 O          -4.1066  -23.7285  -49.4190 O.2       12 UNK        -0.5000 
     74 N          -3.7121  -23.0855  -47.2883 N.am      13 UNK        -0.5000 
     75 CA         -4.2397  -24.2862  -46.6376 C.3       13 UNK         0.1400 
     76 CB         -4.3228  -24.0645  -45.1204 C.3       13 UNK        -0.1800 
     77 C          -3.4197  -25.5472  -46.9719 C.2       13 UNK         0.5000 
     78 O          -4.0054  -26.5867  -47.2787 O.2       13 UNK        -0.5000 
     79 N          -2.0847  -25.4203  -46.9545 N.am      14 UNK        -0.5000 
     80 CA         -1.1456  -26.4688  -47.3595 C.3       14 UNK         0.1400 
     81 CB          0.2856  -26.0455  -46.9965 C.3       14 UNK        -0.1800 
     82 C          -1.2511  -26.8264  -48.8555 C.2       14 UNK         0.5000 
     83 O          -1.1166  -27.9989  -49.2105 O.2       14 UNK        -0.5000 
     84 N          -1.5280  -25.8252  -49.7013 N.am      15 UNK        -0.5000 
     85 CA         -1.7965  -25.9532  -51.1331 C.3       15 UNK         0.1400 
     86 CB         -1.5941  -24.5864  -51.8110 C.3       15 UNK        -0.1800 
     87 C          -3.1951  -26.5465  -51.4032 C.2       15 UNK         0.5000 
     88 O          -4.0806  -25.8581  -51.9128 O.2       15 UNK        -0.5000 
     89 N          -3.3574  -27.8275  -51.0447 N.am      16 UNK        -0.5000 
     90 CA         -4.5078  -28.6964  -51.3124 C.3       16 UNK         0.1400 
     91 CB         -4.5319  -29.0858  -52.8050 C.3       16 UNK        -0.1800 
     92 C          -5.8569  -28.1312  -50.8183 C.2       16 UNK         0.5000 
     93 O          -6.8700  -28.2801  -51.5040 O.2       16 UNK        -0.5000 
     94 N          -5.8389  -27.5040  -49.6321 N.am      17 UNK        -0.5000 
     95 CA         -6.9732  -26.8714  -48.9554 C.3       17 UNK         0.1400 
     96 CB         -8.0148  -27.9252  -48.5223 C.3       17 UNK        -0.1800 
     97 C          -7.5784  -25.7182  -49.7806 C.2       17 UNK         0.5000 
     98 O          -8.7359  -25.7919  -50.1980 O.2       17 UNK        -0.5000 
     99 N          -6.7731  -24.6655  -49.9774 N.am      18 UNK        -0.5000 
    100 CA        -7.1207  -23.3943  -50.6165 C.3       18 UNK         0.1400 
    101 CB        -8.2937  -22.6990  -49.8874 C.3       18 UNK        -0.1800 
    102 C         -7.3088  -23.4917  -52.1427 C.2       18 UNK         0.5000 
    103 O         -8.1253  -22.7581  -52.7043 O.2       18 UNK        -0.5000 
    104 N         -6.5241  -24.3527  -52.8058 N.am      19 UNK        -0.5000 
    105 CA        -6.4218  -24.3843  -54.2634 C.3       19 UNK         0.1400 
    106 CB        -5.9194  -25.7625  -54.7228 C.3       19 UNK        -0.1800 
    107 C         -5.4795  -23.2545  -54.7153 C.2       19 UNK         0.5000 
    108 O         -4.2930  -23.2901  -54.3844 O.2       19 UNK        -0.5000 
    109 N         -6.0340  -22.2624  -55.4288 N.am      20 UNK        -0.5000 
    110 CA        -5.3738  -21.0277  -55.8767 C.3       20 UNK         0.1400 
    111 CB        -4.2990  -21.3308  -56.9421 C.3       20 UNK        -0.1800 
    112 C         -4.8381  -20.1965  -54.6900 C.2       20 UNK         0.5000 
    113 O         -3.6540  -19.8561  -54.6422 O.2       20 UNK        -0.5000 
    114 N         -5.7322  -19.9156  -53.7321 N.am      21 UNK        -0.5000 
    115 CA        -5.4674  -19.2335  -52.4633 C.3       21 UNK         0.1400 
    116 CB        -6.6504  -19.4985  -51.5179 C.3       21 UNK        -0.1800 
    117 C         -5.1712  -17.7261  -52.6137 C.2       21 UNK         0.5000 
    118 O         -5.9464  -16.8911  -52.1440 O.2       21 UNK        -0.5000 
    119 N         -4.0458  -17.4114  -53.2623 N.am      22 UNK        -0.5000 
    120 CA        -3.4635  -16.0654  -53.4153 C.3       22 UNK         0.1400 
    121 C         -4.2683  -15.0943  -54.3337 C.2       22 UNK         0.5000 
    122 N         -5.2263  -15.5668  -55.1215 N.am      22 UNK        -0.7600 
    123 O         -3.9996  -13.8962  -54.3630 O.2       22 UNK        -0.5000 
    124 C124       -3.0717  -15.4118  -52.0562 C.3       23 UNK        -0.0398 
    125 S125       -1.9795  -16.4676  -51.0403 S.3       23 UNK        -0.2404 
    126 C126       -0.3523  -15.9294  -51.6579 C.3       23 UNK        -0.0205 
    127 H127        0.8024  -11.7848  -46.5520 H         1 UNK         0.0600 
    128 H128        1.2710  -10.5179  -47.6821 H         1 UNK         0.0600 
    129 H129        1.8441  -10.4591  -46.0119 H         1 UNK         0.0600 
    130 H130        2.2594  -13.5171  -46.1560 H         1 UNK         0.3000 
    131 H131        4.5061  -13.7775  -48.0692 H         1 UNK         0.0600 
    132 H132        3.2731  -16.0021  -46.3878 H         1 UNK         0.0800 
    133 H133        2.6362  -15.5365  -47.9340 H         1 UNK         0.0800 
    134 H134        4.3640  -15.2181  -50.1149 H         1 UNK         0.0800 
    135 H135        5.2054  -16.6863  -50.5358 H         1 UNK         0.0800 
    136 H136        2.0499  -15.1038  -50.6876 H         1 UNK         0.1150 
    137 H137       -0.1688  -18.6652  -51.5693 H         1 UNK         0.1150 
    138 H138        3.8709  -18.9415  -50.1617 H         1 UNK         0.1150 
    139 H139        0.6899  -20.8100  -51.0080 H         1 UNK         0.0800 
    140 H140        2.2472  -20.8440  -51.8022 H         1 UNK         0.0800 
    141 H141        0.8507  -19.7888  -48.4447 H         1 UNK         0.0800 
    142 H142        2.1273  -20.2555  -47.3635 H         1 UNK         0.0800 
    143 H143        1.1136  -22.5916  -47.2487 H         1 UNK         0.0600 
    144 H144        0.2061  -20.2742  -45.9035 H         1 UNK         0.3000 
    145 H145       -1.9694  -21.9315  -43.5853 H         1 UNK         0.0600 
    146 H146       -0.4954  -20.6800  -42.0341 H         1 UNK         0.0600 
    147 H147        0.3479  -22.0820  -42.6753 H         1 UNK         0.0600 
    148 H148        0.7142  -20.4789  -43.2997 H         1 UNK         0.0600 
    149 H149       -1.3487  -19.1802  -43.9144 H         1 UNK         0.3000 
    150 H150       -3.9137  -18.4382  -46.3364 H         1 UNK         0.0600 
    151 H151       -4.9654  -18.3838  -44.0719 H         1 UNK         0.0600 
    152 H152       -4.4552  -16.7809  -44.5812 H         1 UNK         0.0600 
    153 H153       -3.5032  -17.6738  -43.3980 H         1 UNK         0.0600 
    154 H154       -1.9878  -16.7419  -45.1523 H         1 UNK         0.3000 
    155 H155        0.6429  -17.2290  -47.5555 H         1 UNK         0.0600 
    156 H156       -1.2549  -14.9190  -46.8756 H         1 UNK         0.0600 
    157 H157        0.3844  -14.7278  -47.4924 H         1 UNK         0.0600 
    158 H158       -0.8418  -15.5034  -48.4773 H         1 UNK         0.0600 
    159 H159        0.4401  -15.7074  -45.1203 H         1 UNK         0.3000 
    160 H160        1.7475  -18.2040  -42.9463 H         1 UNK         0.0600 
    161 H161        3.0364  -15.6204  -43.9566 H         1 UNK         0.0600 
    162 H162        3.7566  -17.2205  -44.1273 H         1 UNK         0.0600 
    163 H163        3.4712  -16.5538  -42.5276 H         1 UNK         0.0600 
    164 H164        1.0670  -15.4320  -42.6064 H         1 UNK         0.3000 
    165 H165       -2.3603  -16.0081  -41.7015 H         1 UNK         0.0600 
    166 H166       -1.5791  -14.7436  -39.7176 H         1 UNK         0.0600 
    167 H167       -0.9698  -16.3898  -39.6522 H         1 UNK         0.0600 
    168 H168        0.1039  -15.0782  -40.1265 H         1 UNK         0.0600 
    169 H169       -0.8482  -13.6145  -41.8875 H         1 UNK         0.3000 
    170 H170       -1.0325  -12.9665  -45.3071 H         1 UNK         0.0600 
    171 H171       -3.0247  -11.7840  -43.2984 H         1 UNK         0.0600 
    172 H172       -2.5000  -11.0288  -44.8044 H         1 UNK         0.0600 
    173 H173       -3.4419  -12.5102  -44.8459 H         1 UNK         0.0600 
    174 H174       -0.6363  -11.2583  -43.0429 H         1 UNK         0.3000 
    175 H175        2.0018  -10.5335  -43.2621 H         1 UNK         0.0600 
    176 H176        1.8896  -10.4889  -40.7273 H         1 UNK         0.0600 
    177 H177        0.9447  -11.9734  -40.7669 H         1 UNK         0.0600 
    178 H178        0.3109  -10.4932  -41.4793 H         1 UNK         0.0600 
    179 H179        3.9760  -11.3912  -42.8039 H         1 UNK         0.3000 
    180 H180        5.4735  -12.5237  -41.0538 H         1 UNK         0.0600 
    181 H181        5.2415  -15.5085  -41.6617 H         1 UNK         0.0600 
    182 H182        4.9544  -14.7866  -40.0802 H         1 UNK         0.0600 
    183 H183        6.5460  -14.6934  -40.8140 H         1 UNK         0.0600 
    184 H184        5.7748  -14.0910  -43.5571 H         1 UNK         0.3000 
    185 H185        7.0099  -11.2618  -45.3611 H         1 UNK         0.0600 
    186 H186        8.7885  -12.6865  -44.4009 H         1 UNK         0.0600 
    187 H187        7.8616  -14.1396  -44.7352 H         1 UNK         0.0600 
    188 H188        8.4532  -13.1450  -46.0629 H         1 UNK         0.0600 
    189 H189        5.4191  -12.0550  -46.6507 H         1 UNK         0.3000 
    190 H190       -1.6991  -20.4375  -47.9256 H         1 UNK         0.3000 
    191 H191       -2.6827  -21.8261  -50.1798 H         1 UNK         0.0600 
    192 H192       -3.4534  -19.5673  -49.5782 H         1 UNK         0.0600 
    193 H193       -4.8287  -20.6635  -49.6410 H         1 UNK         0.0600 
    194 H194       -4.1791  -20.1668  -48.0886 H         1 UNK         0.0600 
    195 H195       -3.3852  -22.3381  -46.6817 H         1 UNK         0.3000 
    196 H196       -5.2544  -24.4432  -47.0089 H         1 UNK         0.0600 
    197 H197       -4.7477  -24.9364  -44.6218 H         1 UNK         0.0600 
    198 H198       -4.9576  -23.2110  -44.8818 H         1 UNK         0.0600 
    199 H199       -3.3414  -23.8823  -44.6830 H         1 UNK         0.0600 
    200 H200       -1.6815  -24.5399  -46.6480 H         1 UNK         0.3000 
    201 H201       -1.3868  -27.3681  -46.7891 H         1 UNK         0.0600 
    202 H202        0.3804  -25.8528  -45.9277 H         1 UNK         0.0600 
    203 H203        0.5863  -25.1416  -47.5261 H         1 UNK         0.0600 
    204 H204        1.0007  -26.8285  -47.2515 H         1 UNK         0.0600 
    205 H205       -1.5646  -24.8820  -49.3279 H         1 UNK         0.3000 
    206 H206       -1.0636  -26.6402  -51.5608 H         1 UNK         0.0600 
    207 H207       -0.5836  -24.2104  -51.6507 H         1 UNK         0.0600 
    208 H208       -1.7496  -24.6579  -52.8882 H         1 UNK         0.0600 
    209 H209       -2.2925  -23.8412  -51.4319 H         1 UNK         0.0600 
    210 H210       -2.5839  -28.2595  -50.5483 H         1 UNK         0.3000 
    211 H211       -4.3391  -29.6088  -50.7388 H         1 UNK         0.0600 
    212 H212       -4.7259  -28.2233  -53.4422 H         1 UNK         0.0600 
    213 H213       -5.3075  -29.8253  -53.0076 H         1 UNK         0.0600 
    214 H214       -3.5823  -29.5228  -53.1138 H         1 UNK         0.0600 
    215 H215       -4.9509  -27.4095  -49.1534 H         1 UNK         0.3000 
    216 H216       -6.5791  -26.4221  -48.0435 H         1 UNK         0.0600 
    217 H217       -8.8120  -27.4641  -47.9381 H         1 UNK         0.0600 
    218 H218       -7.5595  -28.6946  -47.8988 H         1 UNK         0.0600 
    219 H219       -8.4814  -28.4181  -49.3756 H         1 UNK         0.0600 
    220 H220       -5.8068  -24.7161  -49.6665 H         1 UNK         0.3000 
    221 H221       -6.2505  -22.7525  -50.4843 H         1 UNK         0.0600 
    222 H222       -9.2322  -23.2381  -50.0157 H         1 UNK         0.0600 
    223 H223       -8.0973  -22.6150  -48.8185 H         1 UNK         0.0600 
    224 H224       -8.4566  -21.6896  -50.2636 H         1 UNK         0.0600 
    225 H225       -5.8160  -24.8785  -52.3001 H         1 UNK         0.3000 
    226 H226       -7.4119  -24.2334  -54.6991 H         1 UNK         0.0600 
    227 H227       -6.5470  -26.5629  -54.3302 H         1 UNK         0.0600 
    228 H228       -5.9354  -25.8363  -55.8105 H         1 UNK         0.0600 
    229 H229       -4.8954  -25.9511  -54.4006 H         1 UNK         0.0600 
    230 H230       -7.0240  -22.3184  -55.6253 H         1 UNK         0.3000 
    231 H231       -6.1429  -20.4194  -56.3550 H         1 UNK         0.0600 
    232 H232       -3.4692  -21.9082  -56.5336 H         1 UNK         0.0600 
    233 H233       -3.8837  -20.4079  -57.3485 H         1 UNK         0.0600 
    234 H234       -4.7190  -21.8924  -57.7765 H         1 UNK         0.0600 
    235 H235       -6.6804  -20.2369  -53.8644 H         1 UNK         0.3000 
    236 H236       -4.5801  -19.6871  -52.0170 H         1 UNK         0.0600 
    237 H237       -6.7682  -20.5645  -51.3433 H         1 UNK         0.0600 
    238 H238       -6.4963  -19.0258  -50.5470 H         1 UNK         0.0600 
    239 H239       -7.5884  -19.1191  -51.9251 H         1 UNK         0.0600 
    240 H240       -3.5251  -18.1744  -53.6853 H         1 UNK         0.3000 
    241 H241       -2.5354  -16.2292  -53.9633 H         1 UNK         0.0600 
    242 H242       -5.4591  -16.5465  -55.1095 H         1 UNK         0.3800 
    243 H243       -5.7346  -14.9353  -55.7207 H         1 UNK         0.3800 
    244 H244       -2.5731  -14.4545  -52.2162 H         1 UNK         0.0800 
    245 H245       -3.9649  -15.1856  -51.4725 H         1 UNK         0.0800 
    246 H246       -0.3541  -15.9555  -52.7481 H         1 UNK         0.0800 
    247 H247       -0.2021  -14.8874  -51.3708 H         1 UNK         0.0800 
@<TRIPOS>BOND
     1    1    2 1    
     2    1  127 1    
     3    1  128 1    
     4    1  129 1    
     5    2    3 2    
     6    2    4 am   BACKBONE|DICT|INTERRES
     7    4    5 1    
     8    4  130 1    
     9    5    6 1    
    10    5   65 1    
    11    5  131 1    
    12    6    7 1    
    13    6  132 1    
    14    6  133 1    
    15    7    8 1    
    16    8    9 1    
    17    8  134 1    
    18    8  135 1    
    19    9   10 ar   
    20    9   14 ar   
    21   10   11 ar   
    22   10  136 1    
    23   11   12 ar   
    24   11  126 1    
    25   12   13 ar   
    26   12  137 1    
    27   13   14 ar   
    28   13   15 1    
    29   14  138 1    
    30   15   16 1    
    31   15  139 1    
    32   15  140 1    
    33   16   17 1    
    34   17   18 1    
    35   17  141 1    
    36   17  142 1    
    37   18   19 1    
    38   18   67 1    
    39   18  143 1    
    40   19   20 am   BACKBONE|DICT|INTERRES
    41   19  144 1    
    42   20   21 2    
    43   20   22 1    
    44   22   23 1    
    45   22   24 1    
    46   22  145 1    
    47   23  146 1    
    48   23  147 1    
    49   23  148 1    
    50   24   25 am   BACKBONE|DICT|INTERRES
    51   24  149 1    
    52   25   26 2    
    53   25   27 1    
    54   27   28 1    
    55   27   29 1    
    56   27  150 1    
    57   28  151 1    
    58   28  152 1    
    59   28  153 1    
    60   29   30 am   BACKBONE|DICT|INTERRES
    61   29  154 1    
    62   30   31 2    
    63   30   32 1    
    64   32   33 1    
    65   32   34 1    
    66   32  155 1    
    67   33  156 1    
    68   33  157 1    
    69   33  158 1    
    70   34   35 am   BACKBONE|DICT|INTERRES
    71   34  159 1    
    72   35   36 2    
    73   35   37 1    
    74   37   38 1    
    75   37   39 1    
    76   37  160 1    
    77   38  161 1    
    78   38  162 1    
    79   38  163 1    
    80   39   40 am   BACKBONE|DICT|INTERRES
    81   39  164 1    
    82   40   41 2    
    83   40   42 1    
    84   42   43 1    
    85   42   44 1    
    86   42  165 1    
    87   43  166 1    
    88   43  167 1    
    89   43  168 1    
    90   44   45 am   BACKBONE|DICT|INTERRES
    91   44  169 1    
    92   45   46 2    
    93   45   47 1    
    94   47   48 1    
    95   47   49 1    
    96   47  170 1    
    97   48  171 1    
    98   48  172 1    
    99   48  173 1    
   100   49   50 am   BACKBONE|DICT|INTERRES
   101   49  174 1    
   102   50   51 2    
   103   50   52 1    
   104   52   53 1    
   105   52   54 1    
   106   52  175 1    
   107   53  176 1    
   108   53  177 1    
   109   53  178 1    
   110   54   55 am   BACKBONE|DICT|INTERRES
   111   54  179 1    
   112   55   56 2    
   113   55   57 1    
   114   57   58 1    
   115   57   59 1    
   116   57  180 1    
   117   58  181 1    
   118   58  182 1    
   119   58  183 1    
   120   59   60 am   BACKBONE|DICT|INTERRES
   121   59  184 1    
   122   60   61 2    
   123   60   62 1    
   124   62   63 1    
   125   62   64 1    
   126   62  185 1    
   127   63  186 1    
   128   63  187 1    
   129   63  188 1    
   130   64   65 am   BACKBONE|DICT|INTERRES
   131   64  189 1    
   132   65   66 2    
   133   67   68 2    
   134   67   69 am   BACKBONE|DICT|INTERRES
   135   69   70 1    
   136   69  190 1    
   137   70   71 1    
   138   70   72 1    
   139   70  191 1    
   140   71  192 1    
   141   71  193 1    
   142   71  194 1    
   143   72   73 2    
   144   72   74 am   BACKBONE|DICT|INTERRES
   145   74   75 1    
   146   74  195 1    
   147   75   76 1    
   148   75   77 1    
   149   75  196 1    
   150   76  197 1    
   151   76  198 1    
   152   76  199 1    
   153   77   78 2    
   154   77   79 am   BACKBONE|DICT|INTERRES
   155   79   80 1    
   156   79  200 1    
   157   80   81 1    
   158   80   82 1    
   159   80  201 1    
   160   81  202 1    
   161   81  203 1    
   162   81  204 1    
   163   82   83 2    
   164   82   84 am   BACKBONE|DICT|INTERRES
   165   84   85 1    
   166   84  205 1    
   167   85   86 1    
   168   85   87 1    
   169   85  206 1    
   170   86  207 1    
   171   86  208 1    
   172   86  209 1    
   173   87   88 2    
   174   87   89 am   BACKBONE|DICT|INTERRES
   175   89   90 1    
   176   89  210 1    
   177   90   91 1    
   178   90   92 1    
   179   90  211 1    
   180   91  212 1    
   181   91  213 1    
   182   91  214 1    
   183   92   93 2    
   184   92   94 am   BACKBONE|DICT|INTERRES
   185   94   95 1    
   186   94  215 1    
   187   95   96 1    
   188   95   97 1    
   189   95  216 1    
   190   96  217 1    
   191   96  218 1    
   192   96  219 1    
   193   97   98 2    
   194   97   99 am   BACKBONE|DICT|INTERRES
   195   99  100 1    
   196   99  220 1    
   197  100  101 1    
   198  100  102 1    
   199  100  221 1    
   200  101  222 1    
   201  101  223 1    
   202  101  224 1    
   203  102  103 2    
   204  102  104 am   BACKBONE|DICT|INTERRES
   205  104  105 1    
   206  104  225 1    
   207  105  106 1    
   208  105  107 1    
   209  105  226 1    
   210  106  227 1    
   211  106  228 1    
   212  106  229 1    
   213  107  108 2    
   214  107  109 am   BACKBONE|DICT|INTERRES
   215  109  110 1    
   216  109  230 1    
   217  110  111 1    
   218  110  112 1    
   219  110  231 1    
   220  111  232 1    
   221  111  233 1    
   222  111  234 1    
   223  112  113 2    
   224  112  114 am   BACKBONE|DICT|INTERRES
   225  114  115 1    
   226  114  235 1    
   227  115  116 1    
   228  115  117 1    
   229  115  236 1    
   230  116  237 1    
   231  116  238 1    
   232  116  239 1    
   233  117  118 2    
   234  117  119 am   BACKBONE|DICT|INTERRES
   235  119  120 1    
   236  119  240 1    
   237  120  121 1    
   238  120  124 1    
   239  120  241 1    
   240  121  122 am   BACKBONE|DICT|INTERRES
   241  121  123 2    
   242  122  242 1    
   243  122  243 1    
   244  124  125 1    
   245  124  244 1    
   246  124  245 1    
   247  125  126 1    
   248  126  246 1    
   249  126  247 1    
@<TRIPOS>SUBSTRUCTURE
     1 UNK         1 GROUP             0       ****    0 ROOT    
