@<TRIPOS>MOLECULE
3R540
247   249    1
SMALL
USER_CHARGES


@<TRIPOS>ATOM
      1 CA         -0.1001  -11.6376  -49.2032 C.3       0 UNK        -0.1800 
      2 C           1.3696  -11.7180  -48.8174 C.2       0 UNK         0.5000 
      3 O           2.2248  -11.2050  -49.5402 O.2       0 UNK        -0.5000 
      4 N           1.6680  -12.3377  -47.6713 N.am      1 UNK        -0.5000 
      5 CA          3.0133  -12.5174  -47.1175 C.3       1 UNK         0.1400 
      6 C6          3.1114  -13.7616  -46.1956 C.3       23 UNK        -0.0398 
      7 S7          2.4968  -15.2844  -46.9814 S.3       23 UNK        -0.2404 
      8 C8          3.9471  -15.8875  -47.8945 C.3       23 UNK        -0.0205 
      9 C9          3.5949  -17.1273  -48.7058 C.ar      23 UNK        -0.0193 
     10 C10         2.6827  -17.0322  -49.7621 C.ar      23 UNK        -0.1150 
     11 C11         2.3287  -18.1640  -50.5007 C.ar      23 UNK        -0.0193 
     12 C12         2.9188  -19.3928  -50.1992 C.ar      23 UNK        -0.1150 
     13 C13         3.8411  -19.5023  -49.1553 C.ar      23 UNK        -0.0193 
     14 C14         4.1709  -18.3671  -48.4063 C.ar      23 UNK        -0.1150 
     15 C15         4.4923  -20.8456  -48.8570 C.3       23 UNK        -0.0205 
     16 S16         3.5916  -21.7918  -47.5897 S.3       23 UNK        -0.2404 
     17 C17         2.0085  -22.1352  -48.4337 C.3       23 UNK        -0.0398 
     18 CA          1.1618  -23.1833  -47.6757 C.3       11 UNK         0.1400 
     19 N           0.7123  -22.7029  -46.3667 N.am      11 UNK        -0.5000 
     20 C           0.1475  -23.4685  -45.4238 C.2       10 UNK         0.5000 
     21 O          -0.0296  -24.6814  -45.5451 O.2       10 UNK        -0.5000 
     22 CA         -0.3416  -22.7510  -44.1516 C.3       10 UNK         0.1400 
     23 CB          0.8348  -22.4056  -43.2269 C.3       10 UNK        -0.1800 
     24 N          -1.1097  -21.5401  -44.4499 N.am      10 UNK        -0.5000 
     25 C          -2.2956  -21.5360  -45.0755 C.2       9 UNK         0.5000 
     26 O          -2.8760  -22.5558  -45.4425 O.2       9 UNK        -0.5000 
     27 CA         -2.9271  -20.1668  -45.3771 C.3       9 UNK         0.1400 
     28 CB         -3.7168  -19.6394  -44.1704 C.3       9 UNK        -0.1800 
     29 N          -1.9308  -19.1791  -45.7788 N.am      9 UNK        -0.5000 
     30 C          -1.2823  -19.1971  -46.9516 C.2       8 UNK         0.5000 
     31 O          -1.4692  -20.0408  -47.8272 O.2       8 UNK        -0.5000 
     32 CA         -0.2140  -18.1088  -47.1483 C.3       8 UNK         0.1400 
     33 CB         -0.8913  -16.7782  -47.5149 C.3       8 UNK        -0.1800 
     34 N           0.6307  -17.9317  -45.9631 N.am      8 UNK        -0.5000 
     35 C           1.3911  -18.8998  -45.4288 C.2       7 UNK         0.5000 
     36 O           1.4536  -20.0394  -45.8807 O.2       7 UNK        -0.5000 
     37 CA          2.1526  -18.5845  -44.1285 C.3       7 UNK         0.1400 
     38 CB          3.5587  -18.0459  -44.4297 C.3       7 UNK        -0.1800 
     39 N           1.4484  -17.6552  -43.2479 N.am      7 UNK        -0.5000 
     40 C           0.2223  -17.8420  -42.7400 C.2       6 UNK         0.5000 
     41 O          -0.4526  -18.8556  -42.9317 O.2       6 UNK        -0.5000 
     42 CA         -0.3690  -16.6822  -41.9134 C.3       6 UNK         0.1400 
     43 CB          0.7035  -15.8004  -41.2355 C.3       6 UNK        -0.1800 
     44 N          -1.2858  -15.8445  -42.6954 N.am      6 UNK        -0.5000 
     45 C          -1.0370  -15.2272  -43.8612 C.2       5 UNK         0.5000 
     46 O           0.0170  -15.3386  -44.4863 O.2       5 UNK        -0.5000 
     47 CA         -2.1417  -14.3070  -44.4147 C.3       5 UNK         0.1400 
     48 CB         -3.5551  -14.6598  -43.9104 C.3       5 UNK        -0.1800 
     49 N          -1.8351  -12.9205  -44.0672 N.am      5 UNK        -0.5000 
     50 C          -0.9886  -12.1392  -44.7484 C.2       4 UNK         0.5000 
     51 O          -0.4506  -12.4653  -45.8094 O.2       4 UNK        -0.5000 
     52 CA         -0.6853  -10.7645  -44.1361 C.3       4 UNK         0.1400 
     53 CB          0.3509  -10.8819  -43.0054 C.3       4 UNK        -0.1800 
     54 N          -0.1686   -9.8863  -45.1807 N.am      4 UNK        -0.5000 
     55 C          -0.3670   -8.5667  -45.2603 C.2       3 UNK         0.5000 
     56 O          -0.9749   -7.9166  -44.4073 O.2       3 UNK        -0.5000 
     57 CA          0.1998   -7.8713  -46.5172 C.3       3 UNK         0.1400 
     58 CB          0.1318   -6.3307  -46.4462 C.3       3 UNK        -0.1800 
     59 N           1.5532   -8.3233  -46.8634 N.am      3 UNK        -0.5000 
     60 C           2.6728   -8.1794  -46.1363 C.2       2 UNK         0.5000 
     61 O           2.7222   -7.6190  -45.0399 O.2       2 UNK        -0.5000 
     62 CA          3.9446   -8.7891  -46.7639 C.3       2 UNK         0.1400 
     63 CB          5.1989   -8.6600  -45.8732 C.3       2 UNK        -0.1800 
     64 N           3.7193  -10.1780  -47.1808 N.am      2 UNK        -0.5000 
     65 C           3.4293  -11.2226  -46.3911 C.2       1 UNK         0.5000 
     66 O           3.4192  -11.1745  -45.1606 O.2       1 UNK        -0.5000 
     67 C          -0.0218  -23.6686  -48.5350 C.2       11 UNK         0.5000 
     68 O           0.0972  -24.7074  -49.1852 O.2       11 UNK        -0.5000 
     69 N          -1.1568  -22.9550  -48.4823 N.am      12 UNK        -0.5000 
     70 CA         -2.4030  -23.3656  -49.1254 C.3       12 UNK         0.1400 
     71 CB         -3.4454  -22.2515  -49.0240 C.3       12 UNK        -0.1800 
     72 C          -2.9627  -24.6751  -48.5496 C.2       12 UNK         0.5000 
     73 O          -3.3274  -25.5560  -49.3238 O.2       12 UNK        -0.5000 
     74 N          -2.9793  -24.8082  -47.2158 N.am      13 UNK        -0.5000 
     75 CA         -3.4095  -26.0188  -46.5134 C.3       13 UNK         0.1400 
     76 CB         -3.4392  -25.7638  -44.9992 C.3       13 UNK        -0.1800 
     77 C          -2.5402  -27.2445  -46.8478 C.2       13 UNK         0.5000 
     78 O          -3.0834  -28.3302  -47.0528 O.2       13 UNK        -0.5000 
     79 N          -1.2191  -27.0403  -46.9531 N.am      14 UNK        -0.5000 
     80 CA         -0.2545  -28.0521  -47.3903 C.3       14 UNK         0.1400 
     81 CB          1.1719  -27.5286  -47.1643 C.3       14 UNK        -0.1800 
     82 C          -0.4559  -28.4822  -48.8581 C.2       14 UNK         0.5000 
     83 O          -0.3020  -29.6631  -49.1715 O.2       14 UNK        -0.5000 
     84 N          -0.8229  -27.5264  -49.7223 N.am      15 UNK        -0.5000 
     85 CA         -1.1489  -27.7459  -51.1339 C.3       15 UNK         0.1400 
     86 CB         -0.9898  -26.4140  -51.8861 C.3       15 UNK        -0.1800 
     87 C          -2.5626  -28.3238  -51.3640 C.2       15 UNK         0.5000 
     88 O          -2.8621  -28.7326  -52.4866 O.2       15 UNK        -0.5000 
     89 N          -3.4036  -28.3255  -50.3186 N.am      16 UNK        -0.5000 
     90 CA         -4.8341  -28.6534  -50.3132 C.3       16 UNK         0.1400 
     91 CB         -5.0695  -30.1373  -50.6647 C.3       16 UNK        -0.1800 
     92 C          -5.6642  -27.6756  -51.1759 C.2       16 UNK         0.5000 
     93 O          -6.5787  -28.0918  -51.8902 O.2       16 UNK        -0.5000 
     94 N          -5.3145  -26.3884  -51.0912 N.am      17 UNK        -0.5000 
     95 CA         -5.9256  -25.2672  -51.7968 C.3       17 UNK         0.1400 
     96 CB         -4.8227  -24.5740  -52.6161 C.3       17 UNK        -0.1800 
     97 C          -6.5474  -24.2786  -50.7936 C.2       17 UNK         0.5000 
     98 O          -6.3553  -24.4095  -49.5819 O.2       17 UNK        -0.5000 
     99 N          -7.2708  -23.2847  -51.3220 N.am      18 UNK        -0.5000 
    100 CA        -7.7711  -22.1369  -50.5653 C.3       18 UNK         0.1400 
    101 CB        -8.9290  -21.4969  -51.3470 C.3       18 UNK        -0.1800 
    102 C         -6.6521  -21.1036  -50.3487 C.2       18 UNK         0.5000 
    103 O         -5.7754  -20.9666  -51.2056 O.2       18 UNK        -0.5000 
    104 N         -6.7231  -20.3467  -49.2455 N.am      19 UNK        -0.5000 
    105 CA        -5.7590  -19.2924  -48.8990 C.3       19 UNK         0.1400 
    106 CB        -6.0661  -18.7628  -47.4901 C.3       19 UNK        -0.1800 
    107 C         -5.7066  -18.1368  -49.9200 C.2       19 UNK         0.5000 
    108 O         -4.6591  -17.5100  -50.0723 O.2       19 UNK        -0.5000 
    109 N         -6.8240  -17.9043  -50.6239 N.am      20 UNK        -0.5000 
    110 CA        -6.9319  -16.9544  -51.7320 C.3       20 UNK         0.1400 
    111 CB        -8.4177  -16.7031  -52.0311 C.3       20 UNK        -0.1800 
    112 C         -6.1991  -17.4266  -53.0043 C.2       20 UNK         0.5000 
    113 O         -5.7168  -16.5881  -53.7664 O.2       20 UNK        -0.5000 
    114 N         -6.1236  -18.7497  -53.2114 N.am      21 UNK        -0.5000 
    115 CA        -5.3686  -19.3734  -54.3003 C.3       21 UNK         0.1400 
    116 CB        -5.9710  -20.7508  -54.6203 C.3       21 UNK        -0.1800 
    117 C         -3.8739  -19.4939  -53.9513 C.2       21 UNK         0.5000 
    118 O         -3.0322  -19.3776  -54.8422 O.2       21 UNK        -0.5000 
    119 N         -3.5784  -19.6935  -52.6595 N.am      22 UNK        -0.5000 
    120 CA        -2.2315  -19.7533  -52.0684 C.3       22 UNK         0.1400 
    121 C         -1.4533  -21.0757  -52.3556 C.2       22 UNK         0.5000 
    122 N         -2.1023  -22.1252  -52.8456 N.am      22 UNK        -0.7600 
    123 O         -0.2537  -21.1697  -52.1148 O.2       22 UNK        -0.5000 
    124 C124       -1.4058  -18.4614  -52.3425 C.3       23 UNK        -0.0398 
    125 S125       -0.3806  -17.9768  -50.9165 S.3       23 UNK        -0.2404 
    126 C126        1.2962  -18.0683  -51.6112 C.3       23 UNK        -0.0205 
    127 H127       -0.4428  -10.6037  -49.1658 H         1 UNK         0.0600 
    128 H128       -0.7261  -12.2301  -48.5356 H         1 UNK         0.0600 
    129 H129       -0.2424  -12.0100  -50.2176 H         1 UNK         0.0600 
    130 H130        0.9111  -12.6748  -47.0794 H         1 UNK         0.3000 
    131 H131        3.7134  -12.6711  -47.9415 H         1 UNK         0.0600 
    132 H132        4.1388  -13.9182  -45.8633 H         1 UNK         0.0800 
    133 H133        2.5146  -13.6165  -45.2926 H         1 UNK         0.0800 
    134 H134        4.7547  -16.0977  -47.1918 H         1 UNK         0.0800 
    135 H135        4.3063  -15.1080  -48.5675 H         1 UNK         0.0800 
    136 H136        2.2245  -16.0798  -49.9897 H         1 UNK         0.1150 
    137 H137        2.6504  -20.2691  -50.7728 H         1 UNK         0.1150 
    138 H138        4.8776  -18.4511  -47.5929 H         1 UNK         0.1150 
    139 H139        4.5698  -21.4411  -49.7679 H         1 UNK         0.0800 
    140 H140        5.5154  -20.6870  -48.5130 H         1 UNK         0.0800 
    141 H141        2.2330  -22.4819  -49.4442 H         1 UNK         0.0800 
    142 H142        1.4511  -21.2021  -48.5385 H         1 UNK         0.0800 
    143 H143        1.7951  -24.0553  -47.4984 H         1 UNK         0.0600 
    144 H144        0.8708  -21.7137  -46.1770 H         1 UNK         0.3000 
    145 H145       -1.0007  -23.4371  -43.6154 H         1 UNK         0.0600 
    146 H146        0.4947  -21.8951  -42.3256 H         1 UNK         0.0600 
    147 H147        1.3584  -23.3094  -42.9131 H         1 UNK         0.0600 
    148 H148        1.5627  -21.7644  -43.7226 H         1 UNK         0.0600 
    149 H149       -0.7077  -20.6550  -44.1648 H         1 UNK         0.3000 
    150 H150       -3.6268  -20.2986  -46.2047 H         1 UNK         0.0600 
    151 H151       -4.4907  -20.3482  -43.8733 H         1 UNK         0.0600 
    152 H152       -4.2125  -18.6972  -44.4052 H         1 UNK         0.0600 
    153 H153       -3.0739  -19.4744  -43.3053 H         1 UNK         0.0600 
    154 H154       -1.6552  -18.5009  -45.0833 H         1 UNK         0.3000 
    155 H155        0.4307  -18.4135  -47.9752 H         1 UNK         0.0600 
    156 H156       -1.4841  -16.3880  -46.6891 H         1 UNK         0.0600 
    157 H157       -0.1613  -16.0206  -47.7947 H         1 UNK         0.0600 
    158 H158       -1.5644  -16.9023  -48.3640 H         1 UNK         0.0600 
    159 H159        0.6240  -17.0153  -45.5256 H         1 UNK         0.3000 
    160 H160        2.2655  -19.5221  -43.5823 H         1 UNK         0.0600 
    161 H161        3.5222  -17.0630  -44.8978 H         1 UNK         0.0600 
    162 H162        4.0955  -18.7128  -45.1059 H         1 UNK         0.0600 
    163 H163        4.1513  -17.9608  -43.5189 H         1 UNK         0.0600 
    164 H164        1.8927  -16.7628  -43.0895 H         1 UNK         0.3000 
    165 H165       -0.9624  -17.1438  -41.1227 H         1 UNK         0.0600 
    166 H166        0.2425  -15.0940  -40.5451 H         1 UNK         0.0600 
    167 H167        1.4020  -16.4053  -40.6558 H         1 UNK         0.0600 
    168 H168        1.2819  -15.2207  -41.9557 H         1 UNK         0.0600 
    169 H169       -2.1978  -15.7097  -42.2828 H         1 UNK         0.3000 
    170 H170       -2.1432  -14.4158  -45.5011 H         1 UNK         0.0600 
    171 H171       -3.7944  -15.7054  -44.1101 H         1 UNK         0.0600 
    172 H172       -3.6698  -14.4865  -42.8398 H         1 UNK         0.0600 
    173 H173       -4.3073  -14.0576  -44.4204 H         1 UNK         0.0600 
    174 H174       -2.2168  -12.5824  -43.1956 H         1 UNK         0.3000 
    175 H175       -1.6173  -10.3573  -43.7382 H         1 UNK         0.0600 
    176 H176        1.2888  -11.3065  -43.3657 H         1 UNK         0.0600 
    177 H177        0.5719   -9.9073  -42.5699 H         1 UNK         0.0600 
    178 H178       -0.0127  -11.5229  -42.2015 H         1 UNK         0.0600 
    179 H179        0.3044  -10.3693  -45.9321 H         1 UNK         0.3000 
    180 H180       -0.4419   -8.1830  -47.3427 H         1 UNK         0.0600 
    181 H181        0.7025   -5.9356  -45.6055 H         1 UNK         0.0600 
    182 H182       -0.8979   -5.9910  -46.3285 H         1 UNK         0.0600 
    183 H183        0.5192   -5.8764  -47.3580 H         1 UNK         0.0600 
    184 H184        1.6341   -8.8050  -47.7475 H         1 UNK         0.3000 
    185 H185        4.1367   -8.2225  -47.6762 H         1 UNK         0.0600 
    186 H186        5.4304   -7.6117  -45.6812 H         1 UNK         0.0600 
    187 H187        5.0685   -9.1444  -44.9054 H         1 UNK         0.0600 
    188 H188        6.0712   -9.1017  -46.3548 H         1 UNK         0.0600 
    189 H189        3.6325  -10.3264  -48.1805 H         1 UNK         0.3000 
    190 H190       -1.1774  -22.0812  -47.9673 H         1 UNK         0.3000 
    191 H191       -2.1914  -23.5310  -50.1836 H         1 UNK         0.0600 
    192 H192       -3.6786  -22.0006  -47.9899 H         1 UNK         0.0600 
    193 H193       -4.3718  -22.5589  -49.5037 H         1 UNK         0.0600 
    194 H194       -3.1050  -21.3484  -49.5242 H         1 UNK         0.0600 
    195 H195       -2.7123  -24.0176  -46.6349 H         1 UNK         0.3000 
    196 H196       -4.4283  -26.2401  -46.8383 H         1 UNK         0.0600 
    197 H197       -3.7650  -26.6535  -44.4589 H         1 UNK         0.0600 
    198 H198       -4.1324  -24.9605  -44.7495 H         1 UNK         0.0600 
    199 H199       -2.4565  -25.4878  -44.6165 H         1 UNK         0.0600 
    200 H200       -0.8487  -26.1248  -46.7169 H         1 UNK         0.3000 
    201 H201       -0.3933  -28.9364  -46.7650 H         1 UNK         0.0600 
    202 H202        1.3391  -27.2803  -46.1160 H         1 UNK         0.0600 
    203 H203        1.3719  -26.6344  -47.7547 H         1 UNK         0.0600 
    204 H204        1.9121  -28.2792  -47.4440 H         1 UNK         0.0600 
    205 H205       -0.8733  -26.5679  -49.3940 H         1 UNK         0.3000 
    206 H206       -0.4335  -28.4580  -51.5501 H         1 UNK         0.0600 
    207 H207        0.0185  -26.0151  -51.7741 H         1 UNK         0.0600 
    208 H208       -1.1722  -26.5411  -52.9539 H         1 UNK         0.0600 
    209 H209       -1.6893  -25.6609  -51.5223 H         1 UNK         0.0600 
    210 H210       -3.0543  -27.9257  -49.4574 H         1 UNK         0.3000 
    211 H211       -5.1691  -28.5051  -49.2857 H         1 UNK         0.0600 
    212 H212       -4.8214  -30.3552  -51.7036 H         1 UNK         0.0600 
    213 H213       -6.1146  -30.4110  -50.5157 H         1 UNK         0.0600 
    214 H214       -4.4700  -30.7913  -50.0314 H         1 UNK         0.0600 
    215 H215       -4.5881  -26.1274  -50.4239 H         1 UNK         0.3000 
    216 H216       -6.7116  -25.6150  -52.4699 H         1 UNK         0.0600 
    217 H217       -5.2236  -23.7550  -53.2133 H         1 UNK         0.0600 
    218 H218       -4.3463  -25.2726  -53.3043 H         1 UNK         0.0600 
    219 H219       -4.0462  -24.1630  -51.9694 H         1 UNK         0.0600 
    220 H220       -7.3573  -23.2251  -52.3256 H         1 UNK         0.3000 
    221 H221       -8.1418  -22.4743  -49.5950 H         1 UNK         0.0600 
    222 H222       -8.6057  -21.1320  -52.3231 H         1 UNK         0.0600 
    223 H223       -9.7366  -22.2113  -51.5080 H         1 UNK         0.0600 
    224 H224       -9.3506  -20.6508  -50.8030 H         1 UNK         0.0600 
    225 H225       -7.4761  -20.5006  -48.5901 H         1 UNK         0.3000 
    226 H226       -4.7651  -19.7415  -48.8767 H         1 UNK         0.0600 
    227 H227       -6.0325  -19.5632  -46.7508 H         1 UNK         0.0600 
    228 H228       -5.3339  -18.0129  -47.1872 H         1 UNK         0.0600 
    229 H229       -7.0523  -18.2997  -47.4403 H         1 UNK         0.0600 
    230 H230       -7.6435  -18.4550  -50.4158 H         1 UNK         0.3000 
    231 H231       -6.4811  -16.0097  -51.4203 H         1 UNK         0.0600 
    232 H232       -8.5363  -15.9793  -52.8386 H         1 UNK         0.0600 
    233 H233       -8.9335  -16.3017  -51.1586 H         1 UNK         0.0600 
    234 H234       -8.9288  -17.6183  -52.3330 H         1 UNK         0.0600 
    235 H235       -6.4912  -19.3756  -52.5083 H         1 UNK         0.3000 
    236 H236       -5.4548  -18.7541  -55.1958 H         1 UNK         0.0600 
    237 H237       -7.0206  -20.6652  -54.9015 H         1 UNK         0.0600 
    238 H238       -5.4480  -21.2188  -55.4552 H         1 UNK         0.0600 
    239 H239       -5.9066  -21.4317  -53.7725 H         1 UNK         0.0600 
    240 H240       -4.3464  -19.8706  -52.0205 H         1 UNK         0.3000 
    241 H241       -2.4308  -19.7831  -50.9979 H         1 UNK         0.0600 
    242 H242       -3.0843  -22.0627  -53.0560 H         1 UNK         0.3800 
    243 H243       -1.5926  -22.9719  -53.0375 H         1 UNK         0.3800 
    244 H244       -0.8026  -18.5597  -53.2463 H         1 UNK         0.0800 
    245 H245       -2.0750  -17.6197  -52.5265 H         1 UNK         0.0800 
    246 H246        1.3754  -18.9331  -52.2717 H         1 UNK         0.0800 
    247 H247        1.4858  -17.1869  -52.2253 H         1 UNK         0.0800 
@<TRIPOS>BOND
     1    1    2 1    
     2    1  127 1    
     3    1  128 1    
     4    1  129 1    
     5    2    3 2    
     6    2    4 am   BACKBONE|DICT|INTERRES
     7    4    5 1    
     8    4  130 1    
     9    5    6 1    
    10    5   65 1    
    11    5  131 1    
    12    6    7 1    
    13    6  132 1    
    14    6  133 1    
    15    7    8 1    
    16    8    9 1    
    17    8  134 1    
    18    8  135 1    
    19    9   10 ar   
    20    9   14 ar   
    21   10   11 ar   
    22   10  136 1    
    23   11   12 ar   
    24   11  126 1    
    25   12   13 ar   
    26   12  137 1    
    27   13   14 ar   
    28   13   15 1    
    29   14  138 1    
    30   15   16 1    
    31   15  139 1    
    32   15  140 1    
    33   16   17 1    
    34   17   18 1    
    35   17  141 1    
    36   17  142 1    
    37   18   19 1    
    38   18   67 1    
    39   18  143 1    
    40   19   20 am   BACKBONE|DICT|INTERRES
    41   19  144 1    
    42   20   21 2    
    43   20   22 1    
    44   22   23 1    
    45   22   24 1    
    46   22  145 1    
    47   23  146 1    
    48   23  147 1    
    49   23  148 1    
    50   24   25 am   BACKBONE|DICT|INTERRES
    51   24  149 1    
    52   25   26 2    
    53   25   27 1    
    54   27   28 1    
    55   27   29 1    
    56   27  150 1    
    57   28  151 1    
    58   28  152 1    
    59   28  153 1    
    60   29   30 am   BACKBONE|DICT|INTERRES
    61   29  154 1    
    62   30   31 2    
    63   30   32 1    
    64   32   33 1    
    65   32   34 1    
    66   32  155 1    
    67   33  156 1    
    68   33  157 1    
    69   33  158 1    
    70   34   35 am   BACKBONE|DICT|INTERRES
    71   34  159 1    
    72   35   36 2    
    73   35   37 1    
    74   37   38 1    
    75   37   39 1    
    76   37  160 1    
    77   38  161 1    
    78   38  162 1    
    79   38  163 1    
    80   39   40 am   BACKBONE|DICT|INTERRES
    81   39  164 1    
    82   40   41 2    
    83   40   42 1    
    84   42   43 1    
    85   42   44 1    
    86   42  165 1    
    87   43  166 1    
    88   43  167 1    
    89   43  168 1    
    90   44   45 am   BACKBONE|DICT|INTERRES
    91   44  169 1    
    92   45   46 2    
    93   45   47 1    
    94   47   48 1    
    95   47   49 1    
    96   47  170 1    
    97   48  171 1    
    98   48  172 1    
    99   48  173 1    
   100   49   50 am   BACKBONE|DICT|INTERRES
   101   49  174 1    
   102   50   51 2    
   103   50   52 1    
   104   52   53 1    
   105   52   54 1    
   106   52  175 1    
   107   53  176 1    
   108   53  177 1    
   109   53  178 1    
   110   54   55 am   BACKBONE|DICT|INTERRES
   111   54  179 1    
   112   55   56 2    
   113   55   57 1    
   114   57   58 1    
   115   57   59 1    
   116   57  180 1    
   117   58  181 1    
   118   58  182 1    
   119   58  183 1    
   120   59   60 am   BACKBONE|DICT|INTERRES
   121   59  184 1    
   122   60   61 2    
   123   60   62 1    
   124   62   63 1    
   125   62   64 1    
   126   62  185 1    
   127   63  186 1    
   128   63  187 1    
   129   63  188 1    
   130   64   65 am   BACKBONE|DICT|INTERRES
   131   64  189 1    
   132   65   66 2    
   133   67   68 2    
   134   67   69 am   BACKBONE|DICT|INTERRES
   135   69   70 1    
   136   69  190 1    
   137   70   71 1    
   138   70   72 1    
   139   70  191 1    
   140   71  192 1    
   141   71  193 1    
   142   71  194 1    
   143   72   73 2    
   144   72   74 am   BACKBONE|DICT|INTERRES
   145   74   75 1    
   146   74  195 1    
   147   75   76 1    
   148   75   77 1    
   149   75  196 1    
   150   76  197 1    
   151   76  198 1    
   152   76  199 1    
   153   77   78 2    
   154   77   79 am   BACKBONE|DICT|INTERRES
   155   79   80 1    
   156   79  200 1    
   157   80   81 1    
   158   80   82 1    
   159   80  201 1    
   160   81  202 1    
   161   81  203 1    
   162   81  204 1    
   163   82   83 2    
   164   82   84 am   BACKBONE|DICT|INTERRES
   165   84   85 1    
   166   84  205 1    
   167   85   86 1    
   168   85   87 1    
   169   85  206 1    
   170   86  207 1    
   171   86  208 1    
   172   86  209 1    
   173   87   88 2    
   174   87   89 am   BACKBONE|DICT|INTERRES
   175   89   90 1    
   176   89  210 1    
   177   90   91 1    
   178   90   92 1    
   179   90  211 1    
   180   91  212 1    
   181   91  213 1    
   182   91  214 1    
   183   92   93 2    
   184   92   94 am   BACKBONE|DICT|INTERRES
   185   94   95 1    
   186   94  215 1    
   187   95   96 1    
   188   95   97 1    
   189   95  216 1    
   190   96  217 1    
   191   96  218 1    
   192   96  219 1    
   193   97   98 2    
   194   97   99 am   BACKBONE|DICT|INTERRES
   195   99  100 1    
   196   99  220 1    
   197  100  101 1    
   198  100  102 1    
   199  100  221 1    
   200  101  222 1    
   201  101  223 1    
   202  101  224 1    
   203  102  103 2    
   204  102  104 am   BACKBONE|DICT|INTERRES
   205  104  105 1    
   206  104  225 1    
   207  105  106 1    
   208  105  107 1    
   209  105  226 1    
   210  106  227 1    
   211  106  228 1    
   212  106  229 1    
   213  107  108 2    
   214  107  109 am   BACKBONE|DICT|INTERRES
   215  109  110 1    
   216  109  230 1    
   217  110  111 1    
   218  110  112 1    
   219  110  231 1    
   220  111  232 1    
   221  111  233 1    
   222  111  234 1    
   223  112  113 2    
   224  112  114 am   BACKBONE|DICT|INTERRES
   225  114  115 1    
   226  114  235 1    
   227  115  116 1    
   228  115  117 1    
   229  115  236 1    
   230  116  237 1    
   231  116  238 1    
   232  116  239 1    
   233  117  118 2    
   234  117  119 am   BACKBONE|DICT|INTERRES
   235  119  120 1    
   236  119  240 1    
   237  120  121 1    
   238  120  124 1    
   239  120  241 1    
   240  121  122 am   BACKBONE|DICT|INTERRES
   241  121  123 2    
   242  122  242 1    
   243  122  243 1    
   244  124  125 1    
   245  124  244 1    
   246  124  245 1    
   247  125  126 1    
   248  126  246 1    
   249  126  247 1    
@<TRIPOS>SUBSTRUCTURE
     1 UNK         1 GROUP             0       ****    0 ROOT    
