@<TRIPOS>MOLECULE
3R540
247   249    1
SMALL
USER_CHARGES


@<TRIPOS>ATOM
      1 CA          2.3528   -9.1799  -44.5430 C.3       0 UNK        -0.1800 
      2 C           2.3088   -9.8188  -45.9240 C.2       0 UNK         0.5000 
      3 O           2.8817   -9.2759  -46.8685 O.2       0 UNK        -0.5000 
      4 N           1.6300  -10.9673  -46.0401 N.am      1 UNK        -0.5000 
      5 CA          1.5065  -11.7693  -47.2630 C.3       1 UNK         0.1400 
      6 C6          0.4324  -12.8670  -47.0769 C.3       23 UNK        -0.0398 
      7 S7          0.0341  -13.8066  -48.5886 S.3       23 UNK        -0.2404 
      8 C8         -0.9311  -15.1436  -47.8312 C.3       23 UNK        -0.0205 
      9 C9         -1.2320  -16.2691  -48.8055 C.ar      23 UNK        -0.0193 
     10 C10        -2.5195  -16.4317  -49.3236 C.ar      23 UNK        -0.1150 
     11 C11        -2.8104  -17.4956  -50.1830 C.ar      23 UNK        -0.0193 
     12 C12        -1.8014  -18.4021  -50.5217 C.ar      23 UNK        -0.1150 
     13 C13        -0.5129  -18.2564  -49.9979 C.ar      23 UNK        -0.0193 
     14 C14        -0.2331  -17.1849  -49.1455 C.ar      23 UNK        -0.1150 
     15 C15         0.5712  -19.2722  -50.3275 C.3       23 UNK        -0.0205 
     16 S16         0.9475  -20.3493  -48.9062 S.3       23 UNK        -0.2404 
     17 C17        -0.6921  -21.0734  -48.5789 C.3       23 UNK        -0.0398 
     18 CA         -0.6255  -22.2952  -47.6369 C.3       11 UNK         0.1400 
     19 N          -0.2431  -21.9464  -46.2663 N.am      11 UNK        -0.5000 
     20 C           0.0546  -22.8418  -45.3135 C.2       10 UNK         0.5000 
     21 O           0.0586  -24.0584  -45.4978 O.2       10 UNK        -0.5000 
     22 CA          0.3272  -22.2955  -43.9013 C.3       10 UNK         0.1400 
     23 CB          1.7093  -21.6312  -43.8153 C.3       10 UNK        -0.1800 
     24 N          -0.7099  -21.3590  -43.4698 N.am      10 UNK        -0.5000 
     25 C          -1.9965  -21.6916  -43.2878 C.2       9 UNK         0.5000 
     26 O          -2.4332  -22.8369  -43.4075 O.2       9 UNK        -0.5000 
     27 CA         -2.9655  -20.5420  -42.9640 C.3       9 UNK         0.1400 
     28 CB         -2.9841  -20.2464  -41.4570 C.3       9 UNK        -0.1800 
     29 N          -2.6373  -19.3221  -43.7014 N.am      9 UNK        -0.5000 
     30 C          -2.7817  -19.1785  -45.0266 C.2       8 UNK         0.5000 
     31 O          -3.2231  -20.0547  -45.7679 O.2       8 UNK        -0.5000 
     32 CA         -2.3073  -17.8460  -45.6288 C.3       8 UNK         0.1400 
     33 CB         -3.3617  -16.7536  -45.3942 C.3       8 UNK        -0.1800 
     34 N          -1.0176  -17.4158  -45.0849 N.am      8 UNK        -0.5000 
     35 C           0.1266  -18.1053  -45.2278 C.2       7 UNK         0.5000 
     36 O           0.2095  -19.1530  -45.8644 O.2       7 UNK        -0.5000 
     37 CA          1.3778  -17.5807  -44.4946 C.3       7 UNK         0.1400 
     38 CB          2.2114  -16.6844  -45.4197 C.3       7 UNK        -0.1800 
     39 N           1.0732  -16.8392  -43.2733 N.am      7 UNK        -0.5000 
     40 C           0.3727  -17.3054  -42.2300 C.2       6 UNK         0.5000 
     41 O          -0.0002  -18.4752  -42.1285 O.2       6 UNK        -0.5000 
     42 CA         -0.0319  -16.2799  -41.1511 C.3       6 UNK         0.1400 
     43 CB          0.8458  -16.4463  -39.9015 C.3       6 UNK        -0.1800 
     44 N           0.0284  -14.8786  -41.5878 N.am      6 UNK        -0.5000 
     45 C          -0.6416  -14.3274  -42.6137 C.2       5 UNK         0.5000 
     46 O          -1.4047  -14.9566  -43.3470 O.2       5 UNK        -0.5000 
     47 CA         -0.3778  -12.8349  -42.8966 C.3       5 UNK         0.1400 
     48 CB         -1.5220  -11.9715  -42.3459 C.3       5 UNK        -0.1800 
     49 N           0.8917  -12.3666  -42.3302 N.am      5 UNK        -0.5000 
     50 C           2.0977  -12.6270  -42.8496 C.2       4 UNK         0.5000 
     51 O           2.2696  -13.2084  -43.9272 O.2       4 UNK        -0.5000 
     52 CA          3.3024  -12.1702  -42.0143 C.3       4 UNK         0.1400 
     53 CB          3.5659  -13.1505  -40.8575 C.3       4 UNK        -0.1800 
     54 N           4.4762  -12.1220  -42.8749 N.am      4 UNK        -0.5000 
     55 C           5.4135  -11.1708  -42.8963 C.2       3 UNK         0.5000 
     56 O           5.4502  -10.2353  -42.0965 O.2       3 UNK        -0.5000 
     57 CA          6.4641  -11.2379  -44.0267 C.3       3 UNK         0.1400 
     58 CB          7.7705  -11.9001  -43.5436 C.3       3 UNK        -0.1800 
     59 N           5.9673  -11.8427  -45.2741 N.am      3 UNK        -0.5000 
     60 C           5.6649  -13.1245  -45.5284 C.2       2 UNK         0.5000 
     61 O           5.7904  -14.0421  -44.7159 O.2       2 UNK        -0.5000 
     62 CA          4.9772  -13.3766  -46.8731 C.3       2 UNK         0.1400 
     63 CB          5.0012  -14.8510  -47.3146 C.3       2 UNK        -0.1800 
     64 N           3.6023  -12.9138  -46.7242 N.am      2 UNK        -0.5000 
     65 C           2.8735  -12.3476  -47.6918 C.2       1 UNK         0.5000 
     66 O           3.2551  -12.2268  -48.8572 O.2       1 UNK        -0.5000 
     67 C          -1.9522  -23.0740  -47.6886 C.2       11 UNK         0.5000 
     68 O          -2.0554  -24.0069  -48.4833 O.2       11 UNK        -0.5000 
     69 N          -2.9403  -22.7088  -46.8585 N.am      12 UNK        -0.5000 
     70 CA         -4.2182  -23.4188  -46.7404 C.3       12 UNK         0.1400 
     71 CB         -5.1612  -22.6673  -45.7905 C.3       12 UNK        -0.1800 
     72 C          -4.0477  -24.8833  -46.3004 C.2       12 UNK         0.5000 
     73 O          -4.7001  -25.7639  -46.8613 O.2       12 UNK        -0.5000 
     74 N          -3.1504  -25.1139  -45.3343 N.am      13 UNK        -0.5000 
     75 CA         -2.8046  -26.4402  -44.8349 C.3       13 UNK         0.1400 
     76 CB         -2.0976  -26.3010  -43.4771 C.3       13 UNK        -0.1800 
     77 C          -1.9399  -27.2432  -45.8241 C.2       13 UNK         0.5000 
     78 O          -2.2683  -28.3929  -46.1200 O.2       13 UNK        -0.5000 
     79 N          -0.8350  -26.6441  -46.2873 N.am      14 UNK        -0.5000 
     80 CA          0.2239  -27.3499  -47.0105 C.3       14 UNK         0.1400 
     81 CB          1.5666  -26.6585  -46.7254 C.3       14 UNK        -0.1800 
     82 C           0.0028  -27.4462  -48.5288 C.2       14 UNK         0.5000 
     83 O           0.4636  -28.4162  -49.1327 O.2       14 UNK        -0.5000 
     84 N          -0.6449  -26.4391  -49.1274 N.am      15 UNK        -0.5000 
     85 CA         -0.7022  -26.2466  -50.5800 C.3       15 UNK         0.1400 
     86 CB          0.1792  -25.0356  -50.9425 C.3       15 UNK        -0.1800 
     87 C          -2.1341  -26.0656  -51.1124 C.2       15 UNK         0.5000 
     88 O          -2.2888  -25.7460  -52.2905 O.2       15 UNK        -0.5000 
     89 N          -3.1498  -26.2350  -50.2514 N.am      16 UNK        -0.5000 
     90 CA         -4.5767  -26.0118  -50.5253 C.3       16 UNK         0.1400 
     91 CB         -5.1190  -27.0723  -51.5062 C.3       16 UNK        -0.1800 
     92 C          -4.8762  -24.5644  -50.9771 C.2       16 UNK         0.5000 
     93 O          -5.6622  -24.3476  -51.9017 O.2       16 UNK        -0.5000 
     94 N          -4.2079  -23.6023  -50.3224 N.am      17 UNK        -0.5000 
     95 CA         -4.2472  -22.1578  -50.5763 C.3       17 UNK         0.1400 
     96 CB         -5.6348  -21.5726  -50.2460 C.3       17 UNK        -0.1800 
     97 C          -3.7504  -21.8142  -51.9933 C.2       17 UNK         0.5000 
     98 O          -4.3686  -21.0146  -52.6931 O.2       17 UNK        -0.5000 
     99 N          -2.6504  -22.4707  -52.3881 N.am      18 UNK        -0.5000 
    100 CA        -2.0012  -22.4830  -53.7031 C.3       18 UNK         0.1400 
    101 CB        -1.6300  -21.0679  -54.1888 C.3       18 UNK        -0.1800 
    102 C         -2.8087  -23.2640  -54.7567 C.2       18 UNK         0.5000 
    103 O         -2.2774  -24.2067  -55.3447 O.2       18 UNK        -0.5000 
    104 N         -4.0708  -22.8766  -54.9633 N.am      19 UNK        -0.5000 
    105 CA        -5.0271  -23.5107  -55.8681 C.3       19 UNK         0.1400 
    106 CB        -4.6341  -23.2566  -57.3404 C.3       19 UNK        -0.1800 
    107 C         -6.4394  -23.0004  -55.5378 C.2       19 UNK         0.5000 
    108 O         -7.1569  -22.5526  -56.4351 O.2       19 UNK        -0.5000 
    109 N         -6.7931  -23.0100  -54.2429 N.am      20 UNK        -0.5000 
    110 CA        -7.9702  -22.3956  -53.6099 C.3       20 UNK         0.1400 
    111 CB        -9.2941  -22.9476  -54.1735 C.3       20 UNK        -0.1800 
    112 C         -7.9296  -20.8537  -53.6369 C.2       20 UNK         0.5000 
    113 O         -8.0549  -20.2230  -52.5867 O.2       20 UNK        -0.5000 
    114 N         -7.7184  -20.2809  -54.8262 N.am      21 UNK        -0.5000 
    115 CA        -7.2881  -18.9039  -55.0310 C.3       21 UNK         0.1400 
    116 CB        -7.8071  -18.4155  -56.3915 C.3       21 UNK        -0.1800 
    117 C         -5.7516  -18.8602  -54.9899 C.2       21 UNK         0.5000 
    118 O         -5.1024  -19.7841  -55.4861 O.2       21 UNK        -0.5000 
    119 N         -5.2058  -17.7774  -54.4289 N.am      22 UNK        -0.5000 
    120 CA        -3.7824  -17.5603  -54.1008 C.3       22 UNK         0.1400 
    121 C         -2.7802  -17.4947  -55.3002 C.2       22 UNK         0.5000 
    122 N         -3.1006  -18.0289  -56.4692 N.am      22 UNK        -0.7600 
    123 O         -1.6860  -16.9520  -55.1720 O.2       22 UNK        -0.5000 
    124 C124       -3.6061  -16.3452  -53.1462 C.3       23 UNK        -0.0398 
    125 S125       -4.7822  -16.2906  -51.7469 S.3       23 UNK        -0.2404 
    126 C126       -4.2223  -17.6853  -50.7183 C.3       23 UNK        -0.0205 
    127 H127        3.3733   -9.1834  -44.1605 H         1 UNK         0.0600 
    128 H128        1.7177   -9.7059  -43.8296 H         1 UNK         0.0600 
    129 H129        2.0122   -8.1455  -44.5975 H         1 UNK         0.0600 
    130 H130        1.2112  -11.3699  -45.2146 H         1 UNK         0.3000 
    131 H131        1.1693  -11.1003  -48.0579 H         1 UNK         0.0600 
    132 H132        0.7412  -13.5630  -46.2950 H         1 UNK         0.0800 
    133 H133       -0.4956  -12.4131  -46.7256 H         1 UNK         0.0800 
    134 H134       -1.8542  -14.7204  -47.4348 H         1 UNK         0.0800 
    135 H135       -0.3839  -15.5502  -46.9820 H         1 UNK         0.0800 
    136 H136       -3.3013  -15.7359  -49.0529 H         1 UNK         0.1150 
    137 H137       -2.0226  -19.2310  -51.1791 H         1 UNK         0.1150 
    138 H138        0.7585  -17.0766  -48.7286 H         1 UNK         0.1150 
    139 H139        0.2801  -19.8885  -51.1796 H         1 UNK         0.0800 
    140 H140        1.4798  -18.7472  -50.6254 H         1 UNK         0.0800 
    141 H141       -1.1167  -21.3543  -49.5444 H         1 UNK         0.0800 
    142 H142       -1.3439  -20.3036  -48.1606 H         1 UNK         0.0800 
    143 H143        0.1421  -22.9707  -48.0215 H         1 UNK         0.0600 
    144 H144       -0.1829  -20.9522  -46.0541 H         1 UNK         0.3000 
    145 H145        0.3171  -23.1404  -43.2094 H         1 UNK         0.0600 
    146 H146        1.8964  -21.2327  -42.8179 H         1 UNK         0.0600 
    147 H147        2.4978  -22.3529  -44.0318 H         1 UNK         0.0600 
    148 H148        1.8137  -20.8149  -44.5288 H         1 UNK         0.0600 
    149 H149       -0.4367  -20.3940  -43.3346 H         1 UNK         0.3000 
    150 H150       -3.9688  -20.8560  -43.2583 H         1 UNK         0.0600 
    151 H151       -3.2725  -21.1334  -40.8914 H         1 UNK         0.0600 
    152 H152       -3.7015  -19.4613  -41.2176 H         1 UNK         0.0600 
    153 H153       -2.0063  -19.9306  -41.0925 H         1 UNK         0.0600 
    154 H154       -2.2041  -18.5764  -43.1758 H         1 UNK         0.3000 
    155 H155       -2.1889  -17.9901  -46.7044 H         1 UNK         0.0600 
    156 H156       -3.5418  -16.5886  -44.3311 H         1 UNK         0.0600 
    157 H157       -4.3135  -17.0276  -45.8509 H         1 UNK         0.0600 
    158 H158       -3.0573  -15.8020  -45.8254 H         1 UNK         0.0600 
    159 H159       -1.0236  -16.5749  -44.5163 H         1 UNK         0.3000 
    160 H160        1.9839  -18.4437  -44.2139 H         1 UNK         0.0600 
    161 H161        1.6784  -15.7730  -45.6909 H         1 UNK         0.0600 
    162 H162        2.4700  -17.2042  -46.3435 H         1 UNK         0.0600 
    163 H163        3.1432  -16.3921  -44.9353 H         1 UNK         0.0600 
    164 H164        1.3353  -15.8643  -43.2661 H         1 UNK         0.3000 
    165 H165       -1.0667  -16.4949  -40.8773 H         1 UNK         0.0600 
    166 H166        0.5102  -15.7964  -39.0929 H         1 UNK         0.0600 
    167 H167        0.8071  -17.4710  -39.5289 H         1 UNK         0.0600 
    168 H168        1.8906  -16.2121  -40.1104 H         1 UNK         0.0600 
    169 H169        0.6312  -14.2763  -41.0485 H         1 UNK         0.3000 
    170 H170       -0.3494  -12.7086  -43.9808 H         1 UNK         0.0600 
    171 H171       -2.4802  -12.2767  -42.7690 H         1 UNK         0.0600 
    172 H172       -1.6018  -12.0511  -41.2609 H         1 UNK         0.0600 
    173 H173       -1.3783  -10.9202  -42.5964 H         1 UNK         0.0600 
    174 H174        0.8314  -11.8641  -41.4551 H         1 UNK         0.3000 
    175 H175        3.0854  -11.1764  -41.6146 H         1 UNK         0.0600 
    176 H176        3.7520  -14.1627  -41.2221 H         1 UNK         0.0600 
    177 H177        4.4336  -12.8431  -40.2733 H         1 UNK         0.0600 
    178 H178        2.7169  -13.1954  -40.1734 H         1 UNK         0.0600 
    179 H179        4.5347  -12.8648  -43.5629 H         1 UNK         0.3000 
    180 H180        6.7021  -10.2034  -44.2830 H         1 UNK         0.0600 
    181 H181        7.6104  -12.9232  -43.2002 H         1 UNK         0.0600 
    182 H182        8.1987  -11.3444  -42.7086 H         1 UNK         0.0600 
    183 H183        8.5194  -11.9228  -44.3363 H         1 UNK         0.0600 
    184 H184        5.7604  -11.1727  -46.0035 H         1 UNK         0.3000 
    185 H185        5.4963  -12.7817  -47.6281 H         1 UNK         0.0600 
    186 H186        6.0266  -15.2053  -47.4259 H         1 UNK         0.0600 
    187 H187        4.5076  -15.4988  -46.5924 H         1 UNK         0.0600 
    188 H188        4.5034  -14.9831  -48.2756 H         1 UNK         0.0600 
    189 H189        3.2156  -12.9678  -45.7869 H         1 UNK         0.3000 
    190 H190       -2.8283  -21.8796  -46.2818 H         1 UNK         0.3000 
    191 H191       -4.6906  -23.4272  -47.7217 H         1 UNK         0.0600 
    192 H192       -4.7439  -22.5856  -44.7877 H         1 UNK         0.0600 
    193 H193       -6.1194  -23.1812  -45.7052 H         1 UNK         0.0600 
    194 H194       -5.3669  -21.6606  -46.1541 H         1 UNK         0.0600 
    195 H195       -2.6781  -24.3254  -44.9053 H         1 UNK         0.3000 
    196 H196       -3.7296  -26.9977  -44.6726 H         1 UNK         0.0600 
    197 H197       -1.8274  -27.2777  -43.0739 H         1 UNK         0.0600 
    198 H198       -2.7440  -25.8141  -42.7466 H         1 UNK         0.0600 
    199 H199       -1.1832  -25.7115  -43.5547 H         1 UNK         0.0600 
    200 H200       -0.6240  -25.6919  -45.9935 H         1 UNK         0.3000 
    201 H201        0.2939  -28.3696  -46.6250 H         1 UNK         0.0600 
    202 H202        1.7681  -26.6120  -45.6550 H         1 UNK         0.0600 
    203 H203        1.5849  -25.6395  -47.1143 H         1 UNK         0.0600 
    204 H204        2.3921  -27.2003  -47.1887 H         1 UNK         0.0600 
    205 H205       -1.0228  -25.6804  -48.5685 H         1 UNK         0.3000 
    206 H206       -0.3026  -27.1188  -51.1007 H         1 UNK         0.0600 
    207 H207        1.2031  -25.1776  -50.5965 H         1 UNK         0.0600 
    208 H208        0.2236  -24.8864  -52.0220 H         1 UNK         0.0600 
    209 H209       -0.1975  -24.1139  -50.4982 H         1 UNK         0.0600 
    210 H210       -2.9181  -26.4788  -49.2987 H         1 UNK         0.3000 
    211 H211       -5.0973  -26.1463  -49.5765 H         1 UNK         0.0600 
    212 H212       -4.6865  -26.9646  -52.5014 H         1 UNK         0.0600 
    213 H213       -6.2014  -26.9892  -51.6110 H         1 UNK         0.0600 
    214 H214       -4.9043  -28.0811  -51.1540 H         1 UNK         0.0600 
    215 H215       -3.5321  -23.9022  -49.6238 H         1 UNK         0.3000 
    216 H216       -3.5366  -21.6991  -49.8890 H         1 UNK         0.0600 
    217 H217       -5.6405  -20.4880  -50.3559 H         1 UNK         0.0600 
    218 H218       -5.9220  -21.7941  -49.2184 H         1 UNK         0.0600 
    219 H219       -6.4091  -21.9670  -50.9019 H         1 UNK         0.0600 
    220 H220       -2.2938  -23.1697  -51.7526 H         1 UNK         0.3000 
    221 H221       -1.0670  -23.0274  -53.5561 H         1 UNK         0.0600 
    222 H222       -2.5101  -20.4837  -54.4556 H         1 UNK         0.0600 
    223 H223       -1.0771  -20.5175  -53.4278 H         1 UNK         0.0600 
    224 H224       -1.0006  -21.1191  -55.0777 H         1 UNK         0.0600 
    225 H225       -4.4150  -22.0731  -54.4419 H         1 UNK         0.3000 
    226 H226       -5.0238  -24.5865  -55.6830 H         1 UNK         0.0600 
    227 H227       -3.6598  -23.6817  -57.5793 H         1 UNK         0.0600 
    228 H228       -5.3534  -23.7108  -58.0229 H         1 UNK         0.0600 
    229 H229       -4.5965  -22.1890  -57.5617 H         1 UNK         0.0600 
    230 H230       -6.1458  -23.4217  -53.5752 H         1 UNK         0.3000 
    231 H231       -7.9232  -22.6943  -52.5622 H         1 UNK         0.0600 
    232 H232       -9.3192  -24.0361  -54.1233 H         1 UNK         0.0600 
    233 H233       -9.4578  -22.6549  -55.2106 H         1 UNK         0.0600 
    234 H234      -10.1417  -22.5756  -53.5969 H         1 UNK         0.0600 
    235 H235       -7.5662  -20.9114  -55.6091 H         1 UNK         0.3000 
    236 H236       -7.6951  -18.2639  -54.2452 H         1 UNK         0.0600 
    237 H237       -7.5066  -17.3835  -56.5765 H         1 UNK         0.0600 
    238 H238       -7.4211  -19.0231  -57.2114 H         1 UNK         0.0600 
    239 H239       -8.8958  -18.4506  -56.4328 H         1 UNK         0.0600 
    240 H240       -5.8249  -17.0605  -54.0800 H         1 UNK         0.3000 
    241 H241       -3.4703  -18.4431  -53.5417 H         1 UNK         0.0600 
    242 H242       -2.4536  -17.9875  -57.2401 H         1 UNK         0.3800 
    243 H243       -3.9361  -18.6001  -56.5269 H         1 UNK         0.3800 
    244 H244       -2.5920  -16.3183  -52.7437 H         1 UNK         0.0800 
    245 H245       -3.7284  -15.4162  -53.7054 H         1 UNK         0.0800 
    246 H246       -4.3038  -18.6075  -51.2946 H         1 UNK         0.0800 
    247 H247       -4.9054  -17.7944  -49.8749 H         1 UNK         0.0800 
@<TRIPOS>BOND
     1    1    2 1    
     2    1  127 1    
     3    1  128 1    
     4    1  129 1    
     5    2    3 2    
     6    2    4 am   BACKBONE|DICT|INTERRES
     7    4    5 1    
     8    4  130 1    
     9    5    6 1    
    10    5   65 1    
    11    5  131 1    
    12    6    7 1    
    13    6  132 1    
    14    6  133 1    
    15    7    8 1    
    16    8    9 1    
    17    8  134 1    
    18    8  135 1    
    19    9   10 ar   
    20    9   14 ar   
    21   10   11 ar   
    22   10  136 1    
    23   11   12 ar   
    24   11  126 1    
    25   12   13 ar   
    26   12  137 1    
    27   13   14 ar   
    28   13   15 1    
    29   14  138 1    
    30   15   16 1    
    31   15  139 1    
    32   15  140 1    
    33   16   17 1    
    34   17   18 1    
    35   17  141 1    
    36   17  142 1    
    37   18   19 1    
    38   18   67 1    
    39   18  143 1    
    40   19   20 am   BACKBONE|DICT|INTERRES
    41   19  144 1    
    42   20   21 2    
    43   20   22 1    
    44   22   23 1    
    45   22   24 1    
    46   22  145 1    
    47   23  146 1    
    48   23  147 1    
    49   23  148 1    
    50   24   25 am   BACKBONE|DICT|INTERRES
    51   24  149 1    
    52   25   26 2    
    53   25   27 1    
    54   27   28 1    
    55   27   29 1    
    56   27  150 1    
    57   28  151 1    
    58   28  152 1    
    59   28  153 1    
    60   29   30 am   BACKBONE|DICT|INTERRES
    61   29  154 1    
    62   30   31 2    
    63   30   32 1    
    64   32   33 1    
    65   32   34 1    
    66   32  155 1    
    67   33  156 1    
    68   33  157 1    
    69   33  158 1    
    70   34   35 am   BACKBONE|DICT|INTERRES
    71   34  159 1    
    72   35   36 2    
    73   35   37 1    
    74   37   38 1    
    75   37   39 1    
    76   37  160 1    
    77   38  161 1    
    78   38  162 1    
    79   38  163 1    
    80   39   40 am   BACKBONE|DICT|INTERRES
    81   39  164 1    
    82   40   41 2    
    83   40   42 1    
    84   42   43 1    
    85   42   44 1    
    86   42  165 1    
    87   43  166 1    
    88   43  167 1    
    89   43  168 1    
    90   44   45 am   BACKBONE|DICT|INTERRES
    91   44  169 1    
    92   45   46 2    
    93   45   47 1    
    94   47   48 1    
    95   47   49 1    
    96   47  170 1    
    97   48  171 1    
    98   48  172 1    
    99   48  173 1    
   100   49   50 am   BACKBONE|DICT|INTERRES
   101   49  174 1    
   102   50   51 2    
   103   50   52 1    
   104   52   53 1    
   105   52   54 1    
   106   52  175 1    
   107   53  176 1    
   108   53  177 1    
   109   53  178 1    
   110   54   55 am   BACKBONE|DICT|INTERRES
   111   54  179 1    
   112   55   56 2    
   113   55   57 1    
   114   57   58 1    
   115   57   59 1    
   116   57  180 1    
   117   58  181 1    
   118   58  182 1    
   119   58  183 1    
   120   59   60 am   BACKBONE|DICT|INTERRES
   121   59  184 1    
   122   60   61 2    
   123   60   62 1    
   124   62   63 1    
   125   62   64 1    
   126   62  185 1    
   127   63  186 1    
   128   63  187 1    
   129   63  188 1    
   130   64   65 am   BACKBONE|DICT|INTERRES
   131   64  189 1    
   132   65   66 2    
   133   67   68 2    
   134   67   69 am   BACKBONE|DICT|INTERRES
   135   69   70 1    
   136   69  190 1    
   137   70   71 1    
   138   70   72 1    
   139   70  191 1    
   140   71  192 1    
   141   71  193 1    
   142   71  194 1    
   143   72   73 2    
   144   72   74 am   BACKBONE|DICT|INTERRES
   145   74   75 1    
   146   74  195 1    
   147   75   76 1    
   148   75   77 1    
   149   75  196 1    
   150   76  197 1    
   151   76  198 1    
   152   76  199 1    
   153   77   78 2    
   154   77   79 am   BACKBONE|DICT|INTERRES
   155   79   80 1    
   156   79  200 1    
   157   80   81 1    
   158   80   82 1    
   159   80  201 1    
   160   81  202 1    
   161   81  203 1    
   162   81  204 1    
   163   82   83 2    
   164   82   84 am   BACKBONE|DICT|INTERRES
   165   84   85 1    
   166   84  205 1    
   167   85   86 1    
   168   85   87 1    
   169   85  206 1    
   170   86  207 1    
   171   86  208 1    
   172   86  209 1    
   173   87   88 2    
   174   87   89 am   BACKBONE|DICT|INTERRES
   175   89   90 1    
   176   89  210 1    
   177   90   91 1    
   178   90   92 1    
   179   90  211 1    
   180   91  212 1    
   181   91  213 1    
   182   91  214 1    
   183   92   93 2    
   184   92   94 am   BACKBONE|DICT|INTERRES
   185   94   95 1    
   186   94  215 1    
   187   95   96 1    
   188   95   97 1    
   189   95  216 1    
   190   96  217 1    
   191   96  218 1    
   192   96  219 1    
   193   97   98 2    
   194   97   99 am   BACKBONE|DICT|INTERRES
   195   99  100 1    
   196   99  220 1    
   197  100  101 1    
   198  100  102 1    
   199  100  221 1    
   200  101  222 1    
   201  101  223 1    
   202  101  224 1    
   203  102  103 2    
   204  102  104 am   BACKBONE|DICT|INTERRES
   205  104  105 1    
   206  104  225 1    
   207  105  106 1    
   208  105  107 1    
   209  105  226 1    
   210  106  227 1    
   211  106  228 1    
   212  106  229 1    
   213  107  108 2    
   214  107  109 am   BACKBONE|DICT|INTERRES
   215  109  110 1    
   216  109  230 1    
   217  110  111 1    
   218  110  112 1    
   219  110  231 1    
   220  111  232 1    
   221  111  233 1    
   222  111  234 1    
   223  112  113 2    
   224  112  114 am   BACKBONE|DICT|INTERRES
   225  114  115 1    
   226  114  235 1    
   227  115  116 1    
   228  115  117 1    
   229  115  236 1    
   230  116  237 1    
   231  116  238 1    
   232  116  239 1    
   233  117  118 2    
   234  117  119 am   BACKBONE|DICT|INTERRES
   235  119  120 1    
   236  119  240 1    
   237  120  121 1    
   238  120  124 1    
   239  120  241 1    
   240  121  122 am   BACKBONE|DICT|INTERRES
   241  121  123 2    
   242  122  242 1    
   243  122  243 1    
   244  124  125 1    
   245  124  244 1    
   246  124  245 1    
   247  125  126 1    
   248  126  246 1    
   249  126  247 1    
@<TRIPOS>SUBSTRUCTURE
     1 UNK         1 GROUP             0       ****    0 ROOT    
