@<TRIPOS>MOLECULE
3R540
247   249    1
SMALL
USER_CHARGES


@<TRIPOS>ATOM
      1 CA          3.4524  -15.9204  -51.4706 C.3       0 UNK        -0.1800 
      2 C           3.5352  -15.5895  -49.9876 C.2       0 UNK         0.5000 
      3 O           4.6305  -15.3904  -49.4625 O.2       0 UNK        -0.5000 
      4 N           2.3807  -15.5306  -49.3141 N.am      1 UNK        -0.5000 
      5 CA          2.2470  -15.1990  -47.8913 C.3       1 UNK         0.1400 
      6 C6          0.8556  -15.5871  -47.3315 C.3       23 UNK        -0.0398 
      7 S7         -0.5578  -14.9406  -48.3044 S.3       23 UNK        -0.2404 
      8 C8         -1.3753  -16.4511  -48.9151 C.3       23 UNK        -0.0205 
      9 C9         -0.5316  -17.2025  -49.9340 C.ar      23 UNK        -0.0193 
     10 C10        -0.5879  -16.8624  -51.2887 C.ar      23 UNK        -0.1150 
     11 C11         0.1830  -17.5562  -52.2268 C.ar      23 UNK        -0.0193 
     12 C12         1.0013  -18.6080  -51.8017 C.ar      23 UNK        -0.1150 
     13 C13         1.0649  -18.9593  -50.4496 C.ar      23 UNK        -0.0193 
     14 C14         0.3000  -18.2468  -49.5232 C.ar      23 UNK        -0.1150 
     15 C15         1.9829  -20.0829  -49.9860 C.3       23 UNK        -0.0205 
     16 S16         1.0666  -21.6031  -49.5680 S.3       23 UNK        -0.2404 
     17 C17         0.4552  -21.2179  -47.8931 C.3       23 UNK        -0.0398 
     18 CA          0.1368  -22.4756  -47.0494 C.3       11 UNK         0.1400 
     19 N           0.4055  -22.2492  -45.6257 N.am      11 UNK        -0.5000 
     20 C           0.4328  -23.2076  -44.6901 C.2       10 UNK         0.5000 
     21 O           0.2115  -24.3949  -44.9250 O.2       10 UNK        -0.5000 
     22 CA          0.7048  -22.7581  -43.2441 C.3       10 UNK         0.1400 
     23 CB          2.1850  -22.3990  -43.0460 C.3       10 UNK        -0.1800 
     24 N          -0.1378  -21.6298  -42.8492 N.am      10 UNK        -0.5000 
     25 C          -1.4723  -21.6920  -42.7347 C.2       9 UNK         0.5000 
     26 O          -2.1242  -22.7247  -42.8949 O.2       9 UNK        -0.5000 
     27 CA         -2.2067  -20.3739  -42.4259 C.3       9 UNK         0.1400 
     28 CB         -2.1708  -20.0703  -40.9207 C.3       9 UNK        -0.1800 
     29 N          -1.6731  -19.2300  -43.1676 N.am      9 UNK        -0.5000 
     30 C          -1.6676  -19.1207  -44.5036 C.2       8 UNK         0.5000 
     31 O          -2.1263  -19.9701  -45.2643 O.2       8 UNK        -0.5000 
     32 CA         -0.9755  -17.8835  -45.0976 C.3       8 UNK         0.1400 
     33 CB         -1.8686  -16.6392  -44.9765 C.3       8 UNK        -0.1800 
     34 N           0.3334  -17.6331  -44.4935 N.am      8 UNK        -0.5000 
     35 C           1.3610  -18.4946  -44.5416 C.2       7 UNK         0.5000 
     36 O           1.3315  -19.5633  -45.1491 O.2       7 UNK        -0.5000 
     37 CA          2.6126  -18.1277  -43.7317 C.3       7 UNK         0.1400 
     38 CB          3.5088  -17.1644  -44.5233 C.3       7 UNK        -0.1800 
     39 N           2.2591  -17.5469  -42.4366 N.am      7 UNK        -0.5000 
     40 C           1.6966  -18.2396  -41.4343 C.2       6 UNK         0.5000 
     41 O           1.4691  -19.4487  -41.4821 O.2       6 UNK        -0.5000 
     42 CA          1.2744  -17.4358  -40.1907 C.3       6 UNK         0.1400 
     43 CB          2.4675  -17.2332  -39.2450 C.3       6 UNK        -0.1800 
     44 N           0.7002  -16.1340  -40.5351 N.am      6 UNK        -0.5000 
     45 C          -0.4561  -15.9659  -41.1931 C.2       5 UNK         0.5000 
     46 O          -1.1898  -16.8956  -41.5260 O.2       5 UNK        -0.5000 
     47 CA         -0.8313  -14.5238  -41.5872 C.3       5 UNK         0.1400 
     48 CB         -1.6839  -13.8700  -40.4902 C.3       5 UNK        -0.1800 
     49 N           0.3329  -13.6777  -41.8656 N.am      5 UNK        -0.5000 
     50 C           1.2097  -13.8889  -42.8555 C.2       4 UNK         0.5000 
     51 O           1.1121  -14.8131  -43.6656 O.2       4 UNK        -0.5000 
     52 CA          2.4066  -12.9258  -42.9208 C.3       4 UNK         0.1400 
     53 CB          3.7311  -13.6741  -43.1427 C.3       4 UNK        -0.1800 
     54 N           2.2237  -11.9247  -43.9698 N.am      4 UNK        -0.5000 
     55 C           1.4909  -10.8112  -43.8200 C.2       3 UNK         0.5000 
     56 O           0.8609  -10.5574  -42.7918 O.2       3 UNK        -0.5000 
     57 CA          1.4753   -9.7818  -44.9694 C.3       3 UNK         0.1400 
     58 CB          2.1893   -8.4898  -44.5382 C.3       3 UNK        -0.1800 
     59 N           2.1114  -10.2692  -46.1934 N.am      3 UNK        -0.5000 
     60 C           1.4693  -10.8781  -47.1968 C.2       2 UNK         0.5000 
     61 O           0.2539  -11.0804  -47.2049 O.2       2 UNK        -0.5000 
     62 CA          2.3179  -11.3643  -48.3934 C.3       2 UNK         0.1400 
     63 CB          3.7891  -10.8893  -48.3727 C.3       2 UNK        -0.1800 
     64 N           2.2491  -12.8215  -48.5236 N.am      2 UNK        -0.5000 
     65 C           2.5670  -13.7221  -47.5807 C.2       1 UNK         0.5000 
     66 O           3.0749  -13.4291  -46.4976 O.2       1 UNK        -0.5000 
     67 C          -1.2990  -22.9873  -47.3019 C.2       11 UNK         0.5000 
     68 O          -1.5043  -23.8166  -48.1892 O.2       11 UNK        -0.5000 
     69 N          -2.2693  -22.5191  -46.5022 N.am      12 UNK        -0.5000 
     70 CA         -3.6602  -22.9752  -46.5210 C.3       12 UNK         0.1400 
     71 CB         -4.5166  -22.1044  -45.5913 C.3       12 UNK        -0.1800 
     72 C          -3.8142  -24.4657  -46.1745 C.2       12 UNK         0.5000 
     73 O          -4.6768  -25.1283  -46.7495 O.2       12 UNK        -0.5000 
     74 N          -2.9617  -24.9695  -45.2743 N.am      13 UNK        -0.5000 
     75 CA         -2.8854  -26.3850  -44.9273 C.3       13 UNK         0.1400 
     76 CB         -2.3082  -26.5302  -43.5102 C.3       13 UNK        -0.1800 
     77 C          -2.0480  -27.1778  -45.9471 C.2       13 UNK         0.5000 
     78 O          -2.4802  -28.2418  -46.3912 O.2       13 UNK        -0.5000 
     79 N          -0.8578  -26.6605  -46.2799 N.am      14 UNK        -0.5000 
     80 CA          0.1559  -27.3649  -47.0648 C.3       14 UNK         0.1400 
     81 CB          1.5229  -26.7037  -46.8287 C.3       14 UNK        -0.1800 
     82 C          -0.1403  -27.4402  -48.5724 C.2       14 UNK         0.5000 
     83 O           0.1417  -28.4719  -49.1840 O.2       14 UNK        -0.5000 
     84 N          -0.6600  -26.3506  -49.1506 N.am      15 UNK        -0.5000 
     85 CA         -0.7981  -26.1658  -50.5987 C.3       15 UNK         0.1400 
     86 CB          0.2038  -25.0880  -51.0461 C.3       15 UNK        -0.1800 
     87 C          -2.2296  -25.7926  -51.0227 C.2       15 UNK         0.5000 
     88 O          -2.4456  -25.5057  -52.2009 O.2       15 UNK        -0.5000 
     89 N          -3.1771  -25.7948  -50.0726 N.am      16 UNK        -0.5000 
     90 CA         -4.5890  -25.4293  -50.2397 C.3       16 UNK         0.1400 
     91 CB         -5.3148  -26.4149  -51.1798 C.3       16 UNK        -0.1800 
     92 C          -4.7922  -23.9523  -50.6434 C.2       16 UNK         0.5000 
     93 O          -5.7498  -23.6296  -51.3497 O.2       16 UNK        -0.5000 
     94 N          -3.9123  -23.0628  -50.1552 N.am      17 UNK        -0.5000 
     95 CA         -3.9148  -21.6211  -50.4425 C.3       17 UNK         0.1400 
     96 CB         -2.6164  -20.9861  -49.9314 C.3       17 UNK        -0.1800 
     97 C          -5.1416  -20.8405  -49.9204 C.2       17 UNK         0.5000 
     98 O          -5.2808  -19.6589  -50.2345 O.2       17 UNK        -0.5000 
     99 N          -6.0448  -21.5092  -49.1899 N.am      18 UNK        -0.5000 
    100 CA        -7.3953  -21.0255  -48.8919 C.3       18 UNK         0.1400 
    101 CB        -8.0692  -22.0027  -47.9171 C.3       18 UNK        -0.1800 
    102 C         -8.2591  -20.8423  -50.1613 C.2       18 UNK         0.5000 
    103 O         -9.1909  -20.0376  -50.1466 O.2       18 UNK        -0.5000 
    104 N         -7.9146  -21.5650  -51.2363 N.am      19 UNK        -0.5000 
    105 CA        -8.4824  -21.4401  -52.5751 C.3       19 UNK         0.1400 
    106 CB        -9.3140  -22.6988  -52.8834 C.3       19 UNK        -0.1800 
    107 C         -7.3487  -21.2017  -53.5932 C.2       19 UNK         0.5000 
    108 O         -7.3260  -21.8322  -54.6520 O.2       19 UNK        -0.5000 
    109 N         -6.4066  -20.3117  -53.2436 N.am      20 UNK        -0.5000 
    110 CA        -5.2580  -19.9295  -54.0681 C.3       20 UNK         0.1400 
    111 CB        -4.3616  -18.9537  -53.2857 C.3       20 UNK        -0.1800 
    112 C         -5.6610  -19.2794  -55.4037 C.2       20 UNK         0.5000 
    113 O         -6.5151  -18.3897  -55.4190 O.2       20 UNK        -0.5000 
    114 N         -4.9917  -19.6977  -56.4843 N.am      21 UNK        -0.5000 
    115 CA        -5.0429  -19.0350  -57.7891 C.3       21 UNK         0.1400 
    116 CB        -4.7612  -20.0712  -58.8884 C.3       21 UNK        -0.1800 
    117 C         -4.0359  -17.8700  -57.8747 C.2       21 UNK         0.5000 
    118 O         -4.2453  -16.9433  -58.6589 O.2       21 UNK        -0.5000 
    119 N         -2.9607  -17.9442  -57.0787 N.am      22 UNK        -0.5000 
    120 CA        -1.9255  -16.9121  -56.9406 C.3       22 UNK         0.1400 
    121 C         -2.4023  -15.6529  -56.1592 C.2       22 UNK         0.5000 
    122 N         -1.7129  -14.5298  -56.3109 N.am      22 UNK        -0.7600 
    123 O         -3.3704  -15.6826  -55.4025 O.2       22 UNK        -0.5000 
    124 C124       -0.6136  -17.5084  -56.3626 C.3       23 UNK        -0.0398 
    125 S125       -0.7865  -18.2975  -54.7199 S.3       23 UNK        -0.2404 
    126 C126        0.1692  -17.1419  -53.6907 C.3       23 UNK        -0.0205 
    127 H127        4.1377  -15.2910  -52.0383 H         1 UNK         0.0600 
    128 H128        2.4477  -15.7590  -51.8609 H         1 UNK         0.0600 
    129 H129        3.7235  -16.9627  -51.6387 H         1 UNK         0.0600 
    130 H130        1.5122  -15.7249  -49.7941 H         1 UNK         0.3000 
    131 H131        2.9882  -15.7921  -47.3514 H         1 UNK         0.0600 
    132 H132        0.7893  -16.6701  -47.2649 H         1 UNK         0.0800 
    133 H133        0.7513  -15.2377  -46.3031 H         1 UNK         0.0800 
    134 H134       -2.3250  -16.1692  -49.3721 H         1 UNK         0.0800 
    135 H135       -1.6327  -17.0987  -48.0776 H         1 UNK         0.0800 
    136 H136       -1.2246  -16.0500  -51.6102 H         1 UNK         0.1150 
    137 H137        1.5981  -19.1439  -52.5263 H         1 UNK         0.1150 
    138 H138        0.3556  -18.5045  -48.4774 H         1 UNK         0.1150 
    139 H139        2.7015  -20.3233  -50.7709 H         1 UNK         0.0800 
    140 H140        2.5751  -19.7506  -49.1322 H         1 UNK         0.0800 
    141 H141       -0.4046  -20.5499  -47.9481 H         1 UNK         0.0800 
    142 H142        1.2470  -20.6469  -47.4107 H         1 UNK         0.0800 
    143 H143        0.8150  -23.2734  -47.3593 H         1 UNK         0.0600 
    144 H144        0.6116  -21.2912  -45.3517 H         1 UNK         0.3000 
    145 H145        0.4712  -23.5981  -42.5864 H         1 UNK         0.0600 
    146 H146        2.3936  -22.1533  -42.0046 H         1 UNK         0.0600 
    147 H147        2.8293  -23.2358  -43.3186 H         1 UNK         0.0600 
    148 H148        2.4808  -21.5447  -43.6548 H         1 UNK         0.0600 
    149 H149        0.3321  -20.7525  -42.6539 H         1 UNK         0.3000 
    150 H150       -3.2500  -20.5005  -42.7219 H         1 UNK         0.0600 
    151 H151       -2.5815  -20.9001  -40.3442 H         1 UNK         0.0600 
    152 H152       -2.7613  -19.1852  -40.6836 H         1 UNK         0.0600 
    153 H153       -1.1533  -19.8964  -40.5693 H         1 UNK         0.0600 
    154 H154       -1.3115  -18.4584  -42.6130 H         1 UNK         0.3000 
    155 H155       -0.8096  -18.0844  -46.1564 H         1 UNK         0.0600 
    156 H156       -1.3782  -15.7501  -45.3702 H         1 UNK         0.0600 
    157 H157       -2.7943  -16.7739  -45.5370 H         1 UNK         0.0600 
    158 H158       -2.1438  -16.4349  -43.9428 H         1 UNK         0.0600 
    159 H159        0.4560  -16.7572  -43.9972 H         1 UNK         0.3000 
    160 H160        3.1786  -19.0439  -43.5499 H         1 UNK         0.0600 
    161 H161        2.9754  -16.2601  -44.8137 H         1 UNK         0.0600 
    162 H162        3.8666  -17.6355  -45.4396 H         1 UNK         0.0600 
    163 H163        4.3848  -16.8700  -43.9454 H         1 UNK         0.0600 
    164 H164        2.3607  -16.5476  -42.3435 H         1 UNK         0.3000 
    165 H165        0.5132  -18.0143  -39.6627 H         1 UNK         0.0600 
    166 H166        2.1619  -16.7305  -38.3272 H         1 UNK         0.0600 
    167 H167        2.9050  -18.1908  -38.9593 H         1 UNK         0.0600 
    168 H168        3.2549  -16.6376  -39.7085 H         1 UNK         0.0600 
    169 H169        1.2371  -15.3159  -40.2885 H         1 UNK         0.3000 
    170 H170       -1.4297  -14.5760  -42.4987 H         1 UNK         0.0600 
    171 H171       -2.5724  -14.4668  -40.2790 H         1 UNK         0.0600 
    172 H172       -1.1292  -13.7648  -39.5570 H         1 UNK         0.0600 
    173 H173       -2.0240  -12.8795  -40.7930 H         1 UNK         0.0600 
    174 H174        0.4598  -12.8728  -41.2680 H         1 UNK         0.3000 
    175 H175        2.4923  -12.4171  -41.9579 H         1 UNK         0.0600 
    176 H176        3.7630  -14.1699  -44.1113 H         1 UNK         0.0600 
    177 H177        4.5793  -12.9913  -43.0935 H         1 UNK         0.0600 
    178 H178        3.8835  -14.4370  -42.3784 H         1 UNK         0.0600 
    179 H179        2.6419  -12.1347  -44.8695 H         1 UNK         0.3000 
    180 H180        0.4302   -9.5357  -45.1688 H         1 UNK         0.0600 
    181 H181        3.2399   -8.6685  -44.3055 H         1 UNK         0.0600 
    182 H182        1.7245   -8.0614  -43.6492 H         1 UNK         0.0600 
    183 H183        2.1428   -7.7334  -45.3220 H         1 UNK         0.0600 
    184 H184        3.1140  -10.1642  -46.2547 H         1 UNK         0.3000 
    185 H185        1.8503  -10.9490  -49.2873 H         1 UNK         0.0600 
    186 H186        3.8510   -9.8007  -48.3470 H         1 UNK         0.0600 
    187 H187        4.3410  -11.2767  -47.5158 H         1 UNK         0.0600 
    188 H188        4.3123  -11.2164  -49.2714 H         1 UNK         0.0600 
    189 H189        1.8067  -13.1660  -49.3635 H         1 UNK         0.3000 
    190 H190       -2.0514  -21.7714  -45.8481 H         1 UNK         0.3000 
    191 H191       -4.0389  -22.8391  -47.5315 H         1 UNK         0.0600 
    192 H192       -4.1420  -22.1171  -44.5684 H         1 UNK         0.0600 
    193 H193       -5.5488  -22.4549  -45.5655 H         1 UNK         0.0600 
    194 H194       -4.5356  -21.0687  -45.9306 H         1 UNK         0.0600 
    195 H195       -2.2830  -24.3537  -44.8454 H         1 UNK         0.3000 
    196 H196       -3.8932  -26.8063  -44.9194 H         1 UNK         0.0600 
    197 H197       -2.2533  -27.5792  -43.2168 H         1 UNK         0.0600 
    198 H198       -2.9336  -26.0192  -42.7779 H         1 UNK         0.0600 
    199 H199       -1.3028  -26.1147  -43.4349 H         1 UNK         0.0600 
    200 H200       -0.5623  -25.7904  -45.8421 H         1 UNK         0.3000 
    201 H201        0.2167  -28.3900  -46.6925 H         1 UNK         0.0600 
    202 H202        1.7904  -26.7176  -45.7719 H         1 UNK         0.0600 
    203 H203        1.5301  -25.6652  -47.1614 H         1 UNK         0.0600 
    204 H204        2.3112  -27.2279  -47.3705 H         1 UNK         0.0600 
    205 H205       -0.8773  -25.5339  -48.5842 H         1 UNK         0.3000 
    206 H206       -0.5584  -27.0894  -51.1289 H         1 UNK         0.0600 
    207 H207        1.2207  -25.3416  -50.7467 H         1 UNK         0.0600 
    208 H208        0.2043  -24.9730  -52.1306 H         1 UNK         0.0600 
    209 H209       -0.0420  -24.1183  -50.6139 H         1 UNK         0.0600 
    210 H210       -2.8939  -26.0411  -49.1347 H         1 UNK         0.3000 
    211 H211       -5.0490  -25.5349  -49.2583 H         1 UNK         0.0600 
    212 H212       -4.9783  -26.3175  -52.2122 H         1 UNK         0.0600 
    213 H213       -6.3912  -26.2398  -51.1723 H         1 UNK         0.0600 
    214 H214       -5.1538  -27.4473  -50.8694 H         1 UNK         0.0600 
    215 H215       -3.1408  -23.4096  -49.5966 H         1 UNK         0.3000 
    216 H216       -3.9240  -21.5297  -51.5295 H         1 UNK         0.0600 
    217 H217       -2.5004  -19.9692  -50.3090 H         1 UNK         0.0600 
    218 H218       -1.7468  -21.5525  -50.2612 H         1 UNK         0.0600 
    219 H219       -2.6035  -20.9279  -48.8442 H         1 UNK         0.0600 
    220 H220       -5.8637  -22.4807  -48.9908 H         1 UNK         0.3000 
    221 H221       -7.3093  -20.0522  -48.4044 H         1 UNK         0.0600 
    222 H222       -8.1556  -23.0025  -48.3446 H         1 UNK         0.0600 
    223 H223       -7.5086  -22.0817  -46.9861 H         1 UNK         0.0600 
    224 H224       -9.0750  -21.6670  -47.6609 H         1 UNK         0.0600 
    225 H225       -7.1322  -22.2100  -51.1637 H         1 UNK         0.3000 
    226 H226       -9.1406  -20.5711  -52.6339 H         1 UNK         0.0600 
    227 H227      -10.1112  -22.8316  -52.1519 H         1 UNK         0.0600 
    228 H228       -9.7836  -22.6298  -53.8653 H         1 UNK         0.0600 
    229 H229       -8.6966  -23.5981  -52.8728 H         1 UNK         0.0600 
    230 H230       -6.4968  -19.8354  -52.3567 H         1 UNK         0.3000 
    231 H231       -4.6826  -20.8339  -54.2769 H         1 UNK         0.0600 
    232 H232       -3.8316  -19.4484  -52.4753 H         1 UNK         0.0600 
    233 H233       -4.9376  -18.1315  -52.8594 H         1 UNK         0.0600 
    234 H234       -3.6024  -18.5099  -53.9296 H         1 UNK         0.0600 
    235 H235       -4.3369  -20.4612  -56.3935 H         1 UNK         0.3000 
    236 H236       -6.0426  -18.6276  -57.9549 H         1 UNK         0.0600 
    237 H237       -4.8139  -19.6143  -59.8775 H         1 UNK         0.0600 
    238 H238       -3.7695  -20.5130  -58.7834 H         1 UNK         0.0600 
    239 H239       -5.4932  -20.8788  -58.8651 H         1 UNK         0.0600 
    240 H240       -2.8854  -18.7189  -56.4382 H         1 UNK         0.3000 
    241 H241       -1.6965  -16.5686  -57.9515 H         1 UNK         0.0600 
    242 H242       -0.9192  -14.4704  -56.9299 H         1 UNK         0.3800 
    243 H243       -2.0062  -13.7074  -55.8066 H         1 UNK         0.3800 
    244 H244        0.1676  -16.7476  -56.3289 H         1 UNK         0.0800 
    245 H245       -0.2375  -18.2688  -57.0483 H         1 UNK         0.0800 
    246 H246       -0.2463  -16.1385  -53.7977 H         1 UNK         0.0800 
    247 H247        1.1951  -17.0924  -54.0591 H         1 UNK         0.0800 
@<TRIPOS>BOND
     1    1    2 1    
     2    1  127 1    
     3    1  128 1    
     4    1  129 1    
     5    2    3 2    
     6    2    4 am   BACKBONE|DICT|INTERRES
     7    4    5 1    
     8    4  130 1    
     9    5    6 1    
    10    5   65 1    
    11    5  131 1    
    12    6    7 1    
    13    6  132 1    
    14    6  133 1    
    15    7    8 1    
    16    8    9 1    
    17    8  134 1    
    18    8  135 1    
    19    9   10 ar   
    20    9   14 ar   
    21   10   11 ar   
    22   10  136 1    
    23   11   12 ar   
    24   11  126 1    
    25   12   13 ar   
    26   12  137 1    
    27   13   14 ar   
    28   13   15 1    
    29   14  138 1    
    30   15   16 1    
    31   15  139 1    
    32   15  140 1    
    33   16   17 1    
    34   17   18 1    
    35   17  141 1    
    36   17  142 1    
    37   18   19 1    
    38   18   67 1    
    39   18  143 1    
    40   19   20 am   BACKBONE|DICT|INTERRES
    41   19  144 1    
    42   20   21 2    
    43   20   22 1    
    44   22   23 1    
    45   22   24 1    
    46   22  145 1    
    47   23  146 1    
    48   23  147 1    
    49   23  148 1    
    50   24   25 am   BACKBONE|DICT|INTERRES
    51   24  149 1    
    52   25   26 2    
    53   25   27 1    
    54   27   28 1    
    55   27   29 1    
    56   27  150 1    
    57   28  151 1    
    58   28  152 1    
    59   28  153 1    
    60   29   30 am   BACKBONE|DICT|INTERRES
    61   29  154 1    
    62   30   31 2    
    63   30   32 1    
    64   32   33 1    
    65   32   34 1    
    66   32  155 1    
    67   33  156 1    
    68   33  157 1    
    69   33  158 1    
    70   34   35 am   BACKBONE|DICT|INTERRES
    71   34  159 1    
    72   35   36 2    
    73   35   37 1    
    74   37   38 1    
    75   37   39 1    
    76   37  160 1    
    77   38  161 1    
    78   38  162 1    
    79   38  163 1    
    80   39   40 am   BACKBONE|DICT|INTERRES
    81   39  164 1    
    82   40   41 2    
    83   40   42 1    
    84   42   43 1    
    85   42   44 1    
    86   42  165 1    
    87   43  166 1    
    88   43  167 1    
    89   43  168 1    
    90   44   45 am   BACKBONE|DICT|INTERRES
    91   44  169 1    
    92   45   46 2    
    93   45   47 1    
    94   47   48 1    
    95   47   49 1    
    96   47  170 1    
    97   48  171 1    
    98   48  172 1    
    99   48  173 1    
   100   49   50 am   BACKBONE|DICT|INTERRES
   101   49  174 1    
   102   50   51 2    
   103   50   52 1    
   104   52   53 1    
   105   52   54 1    
   106   52  175 1    
   107   53  176 1    
   108   53  177 1    
   109   53  178 1    
   110   54   55 am   BACKBONE|DICT|INTERRES
   111   54  179 1    
   112   55   56 2    
   113   55   57 1    
   114   57   58 1    
   115   57   59 1    
   116   57  180 1    
   117   58  181 1    
   118   58  182 1    
   119   58  183 1    
   120   59   60 am   BACKBONE|DICT|INTERRES
   121   59  184 1    
   122   60   61 2    
   123   60   62 1    
   124   62   63 1    
   125   62   64 1    
   126   62  185 1    
   127   63  186 1    
   128   63  187 1    
   129   63  188 1    
   130   64   65 am   BACKBONE|DICT|INTERRES
   131   64  189 1    
   132   65   66 2    
   133   67   68 2    
   134   67   69 am   BACKBONE|DICT|INTERRES
   135   69   70 1    
   136   69  190 1    
   137   70   71 1    
   138   70   72 1    
   139   70  191 1    
   140   71  192 1    
   141   71  193 1    
   142   71  194 1    
   143   72   73 2    
   144   72   74 am   BACKBONE|DICT|INTERRES
   145   74   75 1    
   146   74  195 1    
   147   75   76 1    
   148   75   77 1    
   149   75  196 1    
   150   76  197 1    
   151   76  198 1    
   152   76  199 1    
   153   77   78 2    
   154   77   79 am   BACKBONE|DICT|INTERRES
   155   79   80 1    
   156   79  200 1    
   157   80   81 1    
   158   80   82 1    
   159   80  201 1    
   160   81  202 1    
   161   81  203 1    
   162   81  204 1    
   163   82   83 2    
   164   82   84 am   BACKBONE|DICT|INTERRES
   165   84   85 1    
   166   84  205 1    
   167   85   86 1    
   168   85   87 1    
   169   85  206 1    
   170   86  207 1    
   171   86  208 1    
   172   86  209 1    
   173   87   88 2    
   174   87   89 am   BACKBONE|DICT|INTERRES
   175   89   90 1    
   176   89  210 1    
   177   90   91 1    
   178   90   92 1    
   179   90  211 1    
   180   91  212 1    
   181   91  213 1    
   182   91  214 1    
   183   92   93 2    
   184   92   94 am   BACKBONE|DICT|INTERRES
   185   94   95 1    
   186   94  215 1    
   187   95   96 1    
   188   95   97 1    
   189   95  216 1    
   190   96  217 1    
   191   96  218 1    
   192   96  219 1    
   193   97   98 2    
   194   97   99 am   BACKBONE|DICT|INTERRES
   195   99  100 1    
   196   99  220 1    
   197  100  101 1    
   198  100  102 1    
   199  100  221 1    
   200  101  222 1    
   201  101  223 1    
   202  101  224 1    
   203  102  103 2    
   204  102  104 am   BACKBONE|DICT|INTERRES
   205  104  105 1    
   206  104  225 1    
   207  105  106 1    
   208  105  107 1    
   209  105  226 1    
   210  106  227 1    
   211  106  228 1    
   212  106  229 1    
   213  107  108 2    
   214  107  109 am   BACKBONE|DICT|INTERRES
   215  109  110 1    
   216  109  230 1    
   217  110  111 1    
   218  110  112 1    
   219  110  231 1    
   220  111  232 1    
   221  111  233 1    
   222  111  234 1    
   223  112  113 2    
   224  112  114 am   BACKBONE|DICT|INTERRES
   225  114  115 1    
   226  114  235 1    
   227  115  116 1    
   228  115  117 1    
   229  115  236 1    
   230  116  237 1    
   231  116  238 1    
   232  116  239 1    
   233  117  118 2    
   234  117  119 am   BACKBONE|DICT|INTERRES
   235  119  120 1    
   236  119  240 1    
   237  120  121 1    
   238  120  124 1    
   239  120  241 1    
   240  121  122 am   BACKBONE|DICT|INTERRES
   241  121  123 2    
   242  122  242 1    
   243  122  243 1    
   244  124  125 1    
   245  124  244 1    
   246  124  245 1    
   247  125  126 1    
   248  126  246 1    
   249  126  247 1    
@<TRIPOS>SUBSTRUCTURE
     1 UNK         1 GROUP             0       ****    0 ROOT    
