@<TRIPOS>MOLECULE
3R540
247   249    1
SMALL
USER_CHARGES


@<TRIPOS>ATOM
      1 CA         -1.4314  -13.0775  -48.0185 C.3       0 UNK        -0.1800 
      2 C          -0.1057  -12.7646  -47.3404 C.2       0 UNK         0.5000 
      3 O          -0.0145  -12.8291  -46.1143 O.2       0 UNK        -0.5000 
      4 N           0.9206  -12.4162  -48.1313 N.am      1 UNK        -0.5000 
      5 CA          2.2963  -12.1044  -47.6991 C.3       1 UNK         0.1400 
      6 C6          3.0679  -13.3410  -47.1605 C.3       23 UNK        -0.0398 
      7 S7          3.1335  -14.7118  -48.3654 S.3       23 UNK        -0.2404 
      8 C8          1.9390  -15.8731  -47.6362 C.3       23 UNK        -0.0205 
      9 C9          1.3602  -16.8083  -48.6849 C.ar      23 UNK        -0.0193 
     10 C10         0.3239  -16.3643  -49.5102 C.ar      23 UNK        -0.1150 
     11 C11        -0.2125  -17.1978  -50.4949 C.ar      23 UNK        -0.0193 
     12 C12         0.2916  -18.4948  -50.6397 C.ar      23 UNK        -0.1150 
     13 C13         1.3193  -18.9568  -49.8136 C.ar      23 UNK        -0.0193 
     14 C14         1.8538  -18.1070  -48.8391 C.ar      23 UNK        -0.1150 
     15 C15         1.8804  -20.3577  -50.0111 C.3       23 UNK        -0.0205 
     16 S16         1.6222  -21.4259  -48.5631 S.3       23 UNK        -0.2404 
     17 C17        -0.1931  -21.6223  -48.5366 C.3       23 UNK        -0.0398 
     18 CA         -0.6015  -22.8061  -47.6292 C.3       11 UNK         0.1400 
     19 N          -0.2011  -22.6041  -46.2330 N.am      11 UNK        -0.5000 
     20 C          -0.1710  -23.5673  -45.3037 C.2       10 UNK         0.5000 
     21 O          -0.4576  -24.7406  -45.5321 O.2       10 UNK        -0.5000 
     22 CA          0.1775  -23.1394  -43.8685 C.3       10 UNK         0.1400 
     23 CB          1.6977  -23.0387  -43.6710 C.3       10 UNK        -0.1800 
     24 N          -0.4599  -21.8713  -43.5143 N.am      10 UNK        -0.5000 
     25 C          -1.7772  -21.7221  -43.3161 C.2       9 UNK         0.5000 
     26 O          -2.5820  -22.6523  -43.3660 O.2       9 UNK        -0.5000 
     27 CA         -2.2838  -20.2892  -43.0675 C.3       9 UNK         0.1400 
     28 CB         -2.1162  -19.9024  -41.5908 C.3       9 UNK        -0.1800 
     29 N          -1.6034  -19.3030  -43.9078 N.am      9 UNK        -0.5000 
     30 C          -1.7368  -19.2264  -45.2411 C.2       8 UNK         0.5000 
     31 O          -2.4902  -19.9471  -45.8922 O.2       8 UNK        -0.5000 
     32 CA         -0.8399  -18.2142  -45.9801 C.3       8 UNK         0.1400 
     33 CB         -1.5476  -16.8555  -46.0872 C.3       8 UNK        -0.1800 
     34 N           0.4693  -18.0362  -45.3475 N.am      8 UNK        -0.5000 
     35 C           1.3550  -19.0198  -45.1292 C.2       7 UNK         0.5000 
     36 O           1.1793  -20.1786  -45.4983 O.2       7 UNK        -0.5000 
     37 CA          2.6143  -18.6827  -44.3099 C.3       7 UNK         0.1400 
     38 CB          3.8733  -18.6995  -45.1910 C.3       7 UNK        -0.1800 
     39 N           2.5417  -17.4095  -43.5890 N.am      7 UNK        -0.5000 
     40 C           1.7229  -17.1379  -42.5619 C.2       6 UNK         0.5000 
     41 O           0.8593  -17.9238  -42.1678 O.2       6 UNK        -0.5000 
     42 CA          1.8495  -15.7488  -41.8943 C.3       6 UNK         0.1400 
     43 CB          1.9117  -15.8553  -40.3576 C.3       6 UNK        -0.1800 
     44 N           2.9453  -14.9111  -42.4076 N.am      6 UNK        -0.5000 
     45 C           4.2686  -15.1261  -42.3220 C.2       5 UNK         0.5000 
     46 O           4.7783  -16.1052  -41.7782 O.2       5 UNK        -0.5000 
     47 CA          5.1736  -14.0818  -42.9998 C.3       5 UNK         0.1400 
     48 CB          5.4719  -14.5022  -44.4475 C.3       5 UNK        -0.1800 
     49 N           4.5827  -12.7412  -42.9952 N.am      5 UNK        -0.5000 
     50 C           4.5587  -11.9427  -41.9182 C.2       4 UNK         0.5000 
     51 O           5.0449  -12.2446  -40.8277 O.2       4 UNK        -0.5000 
     52 CA          3.8623  -10.5860  -42.0883 C.3       4 UNK         0.1400 
     53 CB          4.7569   -9.6028  -42.8599 C.3       4 UNK        -0.1800 
     54 N           2.5881  -10.7258  -42.7882 N.am      4 UNK        -0.5000 
     55 C           1.4151  -10.9956  -42.1962 C.2       3 UNK         0.5000 
     56 O           1.3078  -11.2363  -40.9929 O.2       3 UNK        -0.5000 
     57 CA          0.1506  -11.0012  -43.0894 C.3       3 UNK         0.1400 
     58 CB         -1.0824  -10.4112  -42.3746 C.3       3 UNK        -0.1800 
     59 N           0.3525  -10.3695  -44.3988 N.am      3 UNK        -0.5000 
     60 C           0.6987   -9.0963  -44.6564 C.2       2 UNK         0.5000 
     61 O           0.7210   -8.2108  -43.8007 O.2       2 UNK        -0.5000 
     62 CA          1.1430   -8.7641  -46.1013 C.3       2 UNK         0.1400 
     63 CB          2.3421   -7.7933  -46.1230 C.3       2 UNK        -0.1800 
     64 N           1.4319   -9.9424  -46.9323 N.am      2 UNK        -0.5000 
     65 C           2.3376  -10.9114  -46.7131 C.2       1 UNK         0.5000 
     66 O           3.1106  -10.9211  -45.7510 O.2       1 UNK        -0.5000 
     67 C          -2.1016  -23.1470  -47.7630 C.2       11 UNK         0.5000 
     68 O          -2.4675  -23.8884  -48.6753 O.2       11 UNK        -0.5000 
     69 N          -2.9434  -22.6464  -46.8481 N.am      12 UNK        -0.5000 
     70 CA         -4.3472  -23.0368  -46.7167 C.3       12 UNK         0.1400 
     71 CB         -5.1070  -22.0030  -45.8739 C.3       12 UNK        -0.1800 
     72 C          -4.5036  -24.4524  -46.1383 C.2       12 UNK         0.5000 
     73 O          -5.3037  -25.2250  -46.6639 O.2       12 UNK        -0.5000 
     74 N          -3.7119  -24.7923  -45.1102 N.am      13 UNK        -0.5000 
     75 CA         -3.6666  -26.1292  -44.5058 C.3       13 UNK         0.1400 
     76 CB         -2.8084  -26.0933  -43.2325 C.3       13 UNK        -0.1800 
     77 C          -3.1620  -27.2131  -45.4803 C.2       13 UNK         0.5000 
     78 O          -3.6865  -28.3269  -45.4803 O.2       13 UNK        -0.5000 
     79 N          -2.1903  -26.8481  -46.3276 N.am      14 UNK        -0.5000 
     80 CA         -1.6740  -27.6558  -47.4360 C.3       14 UNK         0.1400 
     81 CB         -0.3172  -27.0789  -47.8709 C.3       14 UNK        -0.1800 
     82 C          -2.6318  -27.7330  -48.6451 C.2       14 UNK         0.5000 
     83 O          -2.3654  -28.4997  -49.5709 O.2       14 UNK        -0.5000 
     84 N          -3.7077  -26.9323  -48.6253 N.am      15 UNK        -0.5000 
     85 CA         -4.7605  -26.7957  -49.6352 C.3       15 UNK         0.1400 
     86 CB         -5.5025  -28.1290  -49.8611 C.3       15 UNK        -0.1800 
     87 C          -4.3007  -26.1417  -50.9538 C.2       15 UNK         0.5000 
     88 O          -5.0432  -26.1796  -51.9335 O.2       15 UNK        -0.5000 
     89 N          -3.1254  -25.5002  -50.9582 N.am      16 UNK        -0.5000 
     90 CA         -2.6022  -24.7380  -52.0916 C.3       16 UNK         0.1400 
     91 CB         -1.1059  -24.4589  -51.8816 C.3       16 UNK        -0.1800 
     92 C          -3.3839  -23.4300  -52.2883 C.2       16 UNK         0.5000 
     93 O          -3.7994  -23.1234  -53.4063 O.2       16 UNK        -0.5000 
     94 N          -3.6252  -22.7065  -51.1856 N.am      17 UNK        -0.5000 
     95 CA         -4.4372  -21.4872  -51.1887 C.3       17 UNK         0.1400 
     96 CB         -4.2297  -20.7111  -49.8804 C.3       17 UNK        -0.1800 
     97 C          -5.9287  -21.7871  -51.4382 C.2       17 UNK         0.5000 
     98 O          -6.6062  -20.9859  -52.0805 O.2       17 UNK        -0.5000 
     99 N          -6.3971  -22.9615  -50.9864 N.am      18 UNK        -0.5000 
    100 CA        -7.7445  -23.4800  -51.2458 C.3       18 UNK         0.1400 
    101 CB        -8.0176  -24.6853  -50.3337 C.3       18 UNK        -0.1800 
    102 C         -7.9584  -23.8546  -52.7265 C.2       18 UNK         0.5000 
    103 O         -9.0464  -23.6348  -53.2584 O.2       18 UNK        -0.5000 
    104 N         -6.9008  -24.3598  -53.3780 N.am      19 UNK        -0.5000 
    105 CA        -6.8279  -24.6226  -54.8186 C.3       19 UNK         0.1400 
    106 CB        -5.7227  -25.6593  -55.0806 C.3       19 UNK        -0.1800 
    107 C         -6.6030  -23.3498  -55.6657 C.2       19 UNK         0.5000 
    108 O         -6.5051  -23.4531  -56.8892 O.2       19 UNK        -0.5000 
    109 N         -6.5339  -22.1820  -55.0102 N.am      20 UNK        -0.5000 
    110 CA        -6.3858  -20.8411  -55.5740 C.3       20 UNK         0.1400 
    111 CB        -7.5650  -20.4870  -56.5051 C.3       20 UNK        -0.1800 
    112 C         -5.0068  -20.5837  -56.2104 C.2       20 UNK         0.5000 
    113 O         -4.9093  -19.7927  -57.1512 O.2       20 UNK        -0.5000 
    114 N         -3.9436  -21.1828  -55.6469 N.am      21 UNK        -0.5000 
    115 CA        -2.5475  -20.9042  -56.0192 C.3       21 UNK         0.1400 
    116 CB        -1.6083  -21.8679  -55.2783 C.3       21 UNK        -0.1800 
    117 C         -2.1263  -19.4414  -55.7576 C.2       21 UNK         0.5000 
    118 O         -1.2017  -18.9476  -56.4039 O.2       21 UNK        -0.5000 
    119 N         -2.8389  -18.7725  -54.8419 N.am      22 UNK        -0.5000 
    120 CA        -2.7635  -17.3284  -54.5808 C.3       22 UNK         0.1400 
    121 C         -3.3566  -16.4325  -55.7111 C.2       22 UNK         0.5000 
    122 N         -4.0559  -16.9667  -56.7069 N.am      22 UNK        -0.7600 
    123 O         -3.1717  -15.2190  -55.6863 O.2       22 UNK        -0.5000 
    124 C124       -3.3984  -16.9653  -53.2119 C.3       23 UNK        -0.0398 
    125 S125       -2.6115  -17.8324  -51.8128 S.3       23 UNK        -0.2404 
    126 C126       -1.2725  -16.6523  -51.4439 C.3       23 UNK        -0.0205 
    127 H127       -2.1980  -12.3810  -47.6795 H         1 UNK         0.0600 
    128 H128       -1.3594  -13.0040  -49.1038 H         1 UNK         0.0600 
    129 H129       -1.7535  -14.0876  -47.7673 H         1 UNK         0.0600 
    130 H130        0.7734  -12.3810  -49.1305 H         1 UNK         0.3000 
    131 H131        2.8203  -11.7589  -48.5915 H         1 UNK         0.0600 
    132 H132        4.0997  -13.0681  -46.9329 H         1 UNK         0.0800 
    133 H133        2.6322  -13.6894  -46.2230 H         1 UNK         0.0800 
    134 H134        2.4266  -16.4348  -46.8421 H         1 UNK         0.0800 
    135 H135        1.1282  -15.3232  -47.1621 H         1 UNK         0.0800 
    136 H136       -0.0444  -15.3544  -49.4016 H         1 UNK         0.1150 
    137 H137       -0.1031  -19.1393  -51.4124 H         1 UNK         0.1150 
    138 H138        2.6567  -18.4583  -48.2064 H         1 UNK         0.1150 
    139 H139        2.9515  -20.2819  -50.2022 H         1 UNK         0.0800 
    140 H140        1.4468  -20.8360  -50.8907 H         1 UNK         0.0800 
    141 H141       -0.5381  -21.7822  -49.5596 H         1 UNK         0.0800 
    142 H142       -0.6493  -20.6926  -48.1937 H         1 UNK         0.0800 
    143 H143       -0.0636  -23.6854  -47.9893 H         1 UNK         0.0600 
    144 H144        0.1302  -21.6754  -45.9830 H         1 UNK         0.3000 
    145 H145       -0.1972  -23.9086  -43.1900 H         1 UNK         0.0600 
    146 H146        1.9449  -22.7580  -42.6472 H         1 UNK         0.0600 
    147 H147        2.1768  -23.9982  -43.8695 H         1 UNK         0.0600 
    148 H148        2.1507  -22.3062  -44.3388 H         1 UNK         0.0600 
    149 H149        0.1267  -21.0498  -43.5245 H         1 UNK         0.3000 
    150 H150       -3.3488  -20.2653  -43.3078 H         1 UNK         0.0600 
    151 H151       -1.0666  -19.8866  -41.2943 H         1 UNK         0.0600 
    152 H152       -2.6314  -20.6109  -40.9408 H         1 UNK         0.0600 
    153 H153       -2.5344  -18.9155  -41.3922 H         1 UNK         0.0600 
    154 H154       -0.9394  -18.6939  -43.4467 H         1 UNK         0.3000 
    155 H155       -0.6718  -18.5935  -46.9898 H         1 UNK         0.0600 
    156 H156       -1.6943  -16.3973  -45.1083 H         1 UNK         0.0600 
    157 H157       -2.5291  -16.9628  -46.5510 H         1 UNK         0.0600 
    158 H158       -0.9797  -16.1603  -46.7020 H         1 UNK         0.0600 
    159 H159        0.6789  -17.1194  -44.9847 H         1 UNK         0.3000 
    160 H160        2.7198  -19.4753  -43.5661 H         1 UNK         0.0600 
    161 H161        3.8823  -17.8848  -45.9132 H         1 UNK         0.0600 
    162 H162        3.9476  -19.6334  -45.7504 H         1 UNK         0.0600 
    163 H163        4.7753  -18.6149  -44.5846 H         1 UNK         0.0600 
    164 H164        3.2267  -16.7124  -43.8370 H         1 UNK         0.3000 
    165 H165        0.9300  -15.2181  -42.1452 H         1 UNK         0.0600 
    166 H166        1.9687  -14.8690  -39.8969 H         1 UNK         0.0600 
    167 H167        2.7743  -16.4326  -40.0241 H         1 UNK         0.0600 
    168 H168        1.0211  -16.3454  -39.9624 H         1 UNK         0.0600 
    169 H169        2.6538  -14.0689  -42.8817 H         1 UNK         0.3000 
    170 H170        6.1193  -14.0507  -42.4541 H         1 UNK         0.0600 
    171 H171        6.0020  -15.4553  -44.4732 H         1 UNK         0.0600 
    172 H172        4.5594  -14.6239  -45.0300 H         1 UNK         0.0600 
    173 H173        6.1006  -13.7686  -44.9527 H         1 UNK         0.0600 
    174 H174        4.1847  -12.4027  -43.8602 H         1 UNK         0.3000 
    175 H175        3.6854  -10.1684  -41.0946 H         1 UNK         0.0600 
    176 H176        4.9698   -9.9531  -43.8706 H         1 UNK         0.0600 
    177 H177        4.2844   -8.6235  -42.9402 H         1 UNK         0.0600 
    178 H178        5.7120   -9.4630  -42.3520 H         1 UNK         0.0600 
    179 H179        2.6072  -10.5855  -43.7926 H         1 UNK         0.3000 
    180 H180       -0.0622  -12.0508  -43.2968 H         1 UNK         0.0600 
    181 H181       -0.9147   -9.3820  -42.0567 H         1 UNK         0.0600 
    182 H182       -1.3322  -10.9893  -41.4843 H         1 UNK         0.0600 
    183 H183       -1.9579  -10.4244  -43.0237 H         1 UNK         0.0600 
    184 H184        0.3492  -11.0229  -45.1752 H         1 UNK         0.3000 
    185 H185        0.2965   -8.2594  -46.5688 H         1 UNK         0.0600 
    186 H186        3.2067   -8.2058  -45.6018 H         1 UNK         0.0600 
    187 H187        2.6448   -7.5629  -47.1445 H         1 UNK         0.0600 
    188 H188        2.0919   -6.8476  -45.6410 H         1 UNK         0.0600 
    189 H189        0.8264  -10.0584  -47.7332 H         1 UNK         0.3000 
    190 H190       -2.5995  -21.9562  -46.1896 H         1 UNK         0.3000 
    191 H191       -4.7970  -23.0526  -47.7105 H         1 UNK         0.0600 
    192 H192       -6.1595  -22.2729  -45.7804 H         1 UNK         0.0600 
    193 H193       -5.0643  -21.0151  -46.3330 H         1 UNK         0.0600 
    194 H194       -4.6982  -21.9206  -44.8671 H         1 UNK         0.0600 
    195 H195       -3.1142  -24.0848  -44.6953 H         1 UNK         0.3000 
    196 H196       -4.6856  -26.3952  -44.2173 H         1 UNK         0.0600 
    197 H197       -1.7723  -25.8356  -43.4502 H         1 UNK         0.0600 
    198 H198       -3.1918  -25.3640  -42.5186 H         1 UNK         0.0600 
    199 H199       -2.8066  -27.0647  -42.7367 H         1 UNK         0.0600 
    200 H200       -1.7460  -25.9442  -46.1848 H         1 UNK         0.3000 
    201 H201       -1.5158  -28.6745  -47.0769 H         1 UNK         0.0600 
    202 H202       -0.4207  -26.0665  -48.2619 H         1 UNK         0.0600 
    203 H203        0.1370  -27.6879  -48.6535 H         1 UNK         0.0600 
    204 H204        0.3845  -27.0466  -47.0373 H         1 UNK         0.0600 
    205 H205       -3.8330  -26.3450  -47.8104 H         1 UNK         0.3000 
    206 H206       -5.4800  -26.0997  -49.2045 H         1 UNK         0.0600 
    207 H207       -5.8308  -28.5619  -48.9162 H         1 UNK         0.0600 
    208 H208       -6.3919  -27.9833  -50.4752 H         1 UNK         0.0600 
    209 H209       -4.8759  -28.8626  -50.3687 H         1 UNK         0.0600 
    210 H210       -2.6252  -25.4136  -50.0816 H         1 UNK         0.3000 
    211 H211       -2.7142  -25.3377  -52.9973 H         1 UNK         0.0600 
    212 H212       -0.6921  -23.9002  -52.7221 H         1 UNK         0.0600 
    213 H213       -0.5419  -25.3882  -51.7997 H         1 UNK         0.0600 
    214 H214       -0.9218  -23.8773  -50.9781 H         1 UNK         0.0600 
    215 H215       -3.2670  -23.0382  -50.2961 H         1 UNK         0.3000 
    216 H216       -4.0872  -20.8530  -52.0065 H         1 UNK         0.0600 
    217 H217       -4.6306  -21.2441  -49.0214 H         1 UNK         0.0600 
    218 H218       -4.7318  -19.7438  -49.9234 H         1 UNK         0.0600 
    219 H219       -3.1727  -20.5170  -49.6960 H         1 UNK         0.0600 
    220 H220       -5.7650  -23.5648  -50.4846 H         1 UNK         0.3000 
    221 H221       -8.4599  -22.6945  -50.9928 H         1 UNK         0.0600 
    222 H222       -7.8420  -24.4414  -49.2857 H         1 UNK         0.0600 
    223 H223       -7.3919  -25.5386  -50.5933 H         1 UNK         0.0600 
    224 H224       -9.0556  -25.0082  -50.4226 H         1 UNK         0.0600 
    225 H225       -6.0632  -24.5789  -52.8518 H         1 UNK         0.3000 
    226 H226       -7.7774  -25.0554  -55.1396 H         1 UNK         0.0600 
    227 H227       -4.7430  -25.2872  -54.7801 H         1 UNK         0.0600 
    228 H228       -5.9122  -26.5830  -54.5337 H         1 UNK         0.0600 
    229 H229       -5.6655  -25.9181  -56.1384 H         1 UNK         0.0600 
    230 H230       -6.6058  -22.2126  -54.0020 H         1 UNK         0.3000 
    231 H231       -6.4411  -20.1607  -54.7234 H         1 UNK         0.0600 
    232 H232       -7.5395  -21.0606  -57.4318 H         1 UNK         0.0600 
    233 H233       -7.5443  -19.4310  -56.7769 H         1 UNK         0.0600 
    234 H234       -8.5220  -20.6755  -56.0185 H         1 UNK         0.0600 
    235 H235       -4.0842  -21.8432  -54.8870 H         1 UNK         0.3000 
    236 H236       -2.4484  -21.0881  -57.0909 H         1 UNK         0.0600 
    237 H237       -1.8820  -22.9074  -55.4598 H         1 UNK         0.0600 
    238 H238       -0.5778  -21.7404  -55.6119 H         1 UNK         0.0600 
    239 H239       -1.6252  -21.6955  -54.2017 H         1 UNK         0.0600 
    240 H240       -3.5602  -19.2733  -54.3472 H         1 UNK         0.3000 
    241 H241       -1.7045  -17.0693  -54.5325 H         1 UNK         0.0600 
    242 H242       -4.4223  -16.3621  -57.4250 H         1 UNK         0.3800 
    243 H243       -4.2239  -17.9651  -56.7687 H         1 UNK         0.3800 
    244 H244       -4.4606  -17.2151  -53.2111 H         1 UNK         0.0800 
    245 H245       -3.3438  -15.8904  -53.0289 H         1 UNK         0.0800 
    246 H246       -0.7747  -16.3675  -52.3714 H         1 UNK         0.0800 
    247 H247       -1.7180  -15.7431  -51.0369 H         1 UNK         0.0800 
@<TRIPOS>BOND
     1    1    2 1    
     2    1  127 1    
     3    1  128 1    
     4    1  129 1    
     5    2    3 2    
     6    2    4 am   BACKBONE|DICT|INTERRES
     7    4    5 1    
     8    4  130 1    
     9    5    6 1    
    10    5   65 1    
    11    5  131 1    
    12    6    7 1    
    13    6  132 1    
    14    6  133 1    
    15    7    8 1    
    16    8    9 1    
    17    8  134 1    
    18    8  135 1    
    19    9   10 ar   
    20    9   14 ar   
    21   10   11 ar   
    22   10  136 1    
    23   11   12 ar   
    24   11  126 1    
    25   12   13 ar   
    26   12  137 1    
    27   13   14 ar   
    28   13   15 1    
    29   14  138 1    
    30   15   16 1    
    31   15  139 1    
    32   15  140 1    
    33   16   17 1    
    34   17   18 1    
    35   17  141 1    
    36   17  142 1    
    37   18   19 1    
    38   18   67 1    
    39   18  143 1    
    40   19   20 am   BACKBONE|DICT|INTERRES
    41   19  144 1    
    42   20   21 2    
    43   20   22 1    
    44   22   23 1    
    45   22   24 1    
    46   22  145 1    
    47   23  146 1    
    48   23  147 1    
    49   23  148 1    
    50   24   25 am   BACKBONE|DICT|INTERRES
    51   24  149 1    
    52   25   26 2    
    53   25   27 1    
    54   27   28 1    
    55   27   29 1    
    56   27  150 1    
    57   28  151 1    
    58   28  152 1    
    59   28  153 1    
    60   29   30 am   BACKBONE|DICT|INTERRES
    61   29  154 1    
    62   30   31 2    
    63   30   32 1    
    64   32   33 1    
    65   32   34 1    
    66   32  155 1    
    67   33  156 1    
    68   33  157 1    
    69   33  158 1    
    70   34   35 am   BACKBONE|DICT|INTERRES
    71   34  159 1    
    72   35   36 2    
    73   35   37 1    
    74   37   38 1    
    75   37   39 1    
    76   37  160 1    
    77   38  161 1    
    78   38  162 1    
    79   38  163 1    
    80   39   40 am   BACKBONE|DICT|INTERRES
    81   39  164 1    
    82   40   41 2    
    83   40   42 1    
    84   42   43 1    
    85   42   44 1    
    86   42  165 1    
    87   43  166 1    
    88   43  167 1    
    89   43  168 1    
    90   44   45 am   BACKBONE|DICT|INTERRES
    91   44  169 1    
    92   45   46 2    
    93   45   47 1    
    94   47   48 1    
    95   47   49 1    
    96   47  170 1    
    97   48  171 1    
    98   48  172 1    
    99   48  173 1    
   100   49   50 am   BACKBONE|DICT|INTERRES
   101   49  174 1    
   102   50   51 2    
   103   50   52 1    
   104   52   53 1    
   105   52   54 1    
   106   52  175 1    
   107   53  176 1    
   108   53  177 1    
   109   53  178 1    
   110   54   55 am   BACKBONE|DICT|INTERRES
   111   54  179 1    
   112   55   56 2    
   113   55   57 1    
   114   57   58 1    
   115   57   59 1    
   116   57  180 1    
   117   58  181 1    
   118   58  182 1    
   119   58  183 1    
   120   59   60 am   BACKBONE|DICT|INTERRES
   121   59  184 1    
   122   60   61 2    
   123   60   62 1    
   124   62   63 1    
   125   62   64 1    
   126   62  185 1    
   127   63  186 1    
   128   63  187 1    
   129   63  188 1    
   130   64   65 am   BACKBONE|DICT|INTERRES
   131   64  189 1    
   132   65   66 2    
   133   67   68 2    
   134   67   69 am   BACKBONE|DICT|INTERRES
   135   69   70 1    
   136   69  190 1    
   137   70   71 1    
   138   70   72 1    
   139   70  191 1    
   140   71  192 1    
   141   71  193 1    
   142   71  194 1    
   143   72   73 2    
   144   72   74 am   BACKBONE|DICT|INTERRES
   145   74   75 1    
   146   74  195 1    
   147   75   76 1    
   148   75   77 1    
   149   75  196 1    
   150   76  197 1    
   151   76  198 1    
   152   76  199 1    
   153   77   78 2    
   154   77   79 am   BACKBONE|DICT|INTERRES
   155   79   80 1    
   156   79  200 1    
   157   80   81 1    
   158   80   82 1    
   159   80  201 1    
   160   81  202 1    
   161   81  203 1    
   162   81  204 1    
   163   82   83 2    
   164   82   84 am   BACKBONE|DICT|INTERRES
   165   84   85 1    
   166   84  205 1    
   167   85   86 1    
   168   85   87 1    
   169   85  206 1    
   170   86  207 1    
   171   86  208 1    
   172   86  209 1    
   173   87   88 2    
   174   87   89 am   BACKBONE|DICT|INTERRES
   175   89   90 1    
   176   89  210 1    
   177   90   91 1    
   178   90   92 1    
   179   90  211 1    
   180   91  212 1    
   181   91  213 1    
   182   91  214 1    
   183   92   93 2    
   184   92   94 am   BACKBONE|DICT|INTERRES
   185   94   95 1    
   186   94  215 1    
   187   95   96 1    
   188   95   97 1    
   189   95  216 1    
   190   96  217 1    
   191   96  218 1    
   192   96  219 1    
   193   97   98 2    
   194   97   99 am   BACKBONE|DICT|INTERRES
   195   99  100 1    
   196   99  220 1    
   197  100  101 1    
   198  100  102 1    
   199  100  221 1    
   200  101  222 1    
   201  101  223 1    
   202  101  224 1    
   203  102  103 2    
   204  102  104 am   BACKBONE|DICT|INTERRES
   205  104  105 1    
   206  104  225 1    
   207  105  106 1    
   208  105  107 1    
   209  105  226 1    
   210  106  227 1    
   211  106  228 1    
   212  106  229 1    
   213  107  108 2    
   214  107  109 am   BACKBONE|DICT|INTERRES
   215  109  110 1    
   216  109  230 1    
   217  110  111 1    
   218  110  112 1    
   219  110  231 1    
   220  111  232 1    
   221  111  233 1    
   222  111  234 1    
   223  112  113 2    
   224  112  114 am   BACKBONE|DICT|INTERRES
   225  114  115 1    
   226  114  235 1    
   227  115  116 1    
   228  115  117 1    
   229  115  236 1    
   230  116  237 1    
   231  116  238 1    
   232  116  239 1    
   233  117  118 2    
   234  117  119 am   BACKBONE|DICT|INTERRES
   235  119  120 1    
   236  119  240 1    
   237  120  121 1    
   238  120  124 1    
   239  120  241 1    
   240  121  122 am   BACKBONE|DICT|INTERRES
   241  121  123 2    
   242  122  242 1    
   243  122  243 1    
   244  124  125 1    
   245  124  244 1    
   246  124  245 1    
   247  125  126 1    
   248  126  246 1    
   249  126  247 1    
@<TRIPOS>SUBSTRUCTURE
     1 UNK         1 GROUP             0       ****    0 ROOT    
