@<TRIPOS>MOLECULE
3R540
247   249    1
SMALL
USER_CHARGES


@<TRIPOS>ATOM
      1 CA         -2.7403  -18.6438  -47.6416 C.3       0 UNK        -0.1800 
      2 C          -2.1261  -17.6900  -48.6494 C.2       0 UNK         0.5000 
      3 O          -1.5934  -18.1338  -49.6632 O.2       0 UNK        -0.5000 
      4 N          -2.1844  -16.3893  -48.3592 N.am      1 UNK        -0.5000 
      5 CA         -1.5412  -15.3159  -49.1118 C.3       1 UNK         0.1400 
      6 C6          0.0090  -15.4427  -49.1687 C.3       23 UNK        -0.0398 
      7 S7          0.8069  -15.7620  -47.5512 S.3       23 UNK        -0.2404 
      8 C8          2.5681  -15.9568  -47.9768 C.3       23 UNK        -0.0205 
      9 C9          2.7921  -16.8286  -49.2036 C.ar      23 UNK        -0.0193 
     10 C10         3.0709  -16.2332  -50.4367 C.ar      23 UNK        -0.1150 
     11 C11         3.2539  -17.0164  -51.5789 C.ar      23 UNK        -0.0193 
     12 C12         3.1810  -18.4081  -51.4761 C.ar      23 UNK        -0.1150 
     13 C13         2.9073  -19.0168  -50.2471 C.ar      23 UNK        -0.0193 
     14 C14         2.7106  -18.2213  -49.1144 C.ar      23 UNK        -0.1150 
     15 C15         2.8621  -20.5334  -50.1437 C.3       23 UNK        -0.0205 
     16 S16         1.3950  -21.2499  -50.9513 S.3       23 UNK        -0.2404 
     17 C17         0.0591  -20.9830  -49.7350 C.3       23 UNK        -0.0398 
     18 CA         -0.0886  -22.1982  -48.7859 C.3       11 UNK         0.1400 
     19 N           0.9452  -22.1908  -47.7487 N.am      11 UNK        -0.5000 
     20 C           1.3276  -23.2596  -47.0398 C.2       10 UNK         0.5000 
     21 O           0.8388  -24.3797  -47.1759 O.2       10 UNK        -0.5000 
     22 CA          2.4090  -23.0205  -45.9673 C.3       10 UNK         0.1400 
     23 CB          3.8074  -23.2313  -46.5664 C.3       10 UNK        -0.1800 
     24 N           2.3481  -21.6939  -45.3427 N.am      10 UNK        -0.5000 
     25 C           1.2872  -21.1946  -44.6941 C.2       9 UNK         0.5000 
     26 O           0.2114  -21.7904  -44.5920 O.2       9 UNK        -0.5000 
     27 CA          1.4480  -19.7679  -44.1383 C.3       9 UNK         0.1400 
     28 CB          1.3452  -18.7432  -45.2790 C.3       9 UNK        -0.1800 
     29 N           0.4493  -19.4563  -43.1148 N.am      9 UNK        -0.5000 
     30 C           0.4871  -19.9341  -41.8610 C.2       8 UNK         0.5000 
     31 O           1.3834  -20.6747  -41.4525 O.2       8 UNK        -0.5000 
     32 CA         -0.6209  -19.5040  -40.8769 C.3       8 UNK         0.1400 
     33 CB         -0.0194  -18.7495  -39.6789 C.3       8 UNK        -0.1800 
     34 N          -1.6350  -18.6545  -41.5012 N.am      8 UNK        -0.5000 
     35 C          -2.8027  -19.0925  -41.9906 C.2       7 UNK         0.5000 
     36 O          -3.1854  -20.2583  -41.8909 O.2       7 UNK        -0.5000 
     37 CA         -3.7027  -18.0689  -42.7177 C.3       7 UNK         0.1400 
     38 CB         -4.8774  -17.6527  -41.8193 C.3       7 UNK        -0.1800 
     39 N          -3.0067  -16.8612  -43.1706 N.am      7 UNK        -0.5000 
     40 C          -2.0219  -16.8303  -44.0781 C.2       6 UNK         0.5000 
     41 O          -1.6041  -17.8350  -44.6496 O.2       6 UNK        -0.5000 
     42 CA         -1.3540  -15.4687  -44.3579 C.3       6 UNK         0.1400 
     43 CB         -2.2125  -14.2560  -43.9389 C.3       6 UNK        -0.1800 
     44 N          -0.0206  -15.3687  -43.7562 N.am      6 UNK        -0.5000 
     45 C           0.3192  -15.5795  -42.4768 C.2       5 UNK         0.5000 
     46 O          -0.4734  -15.9570  -41.6132 O.2       5 UNK        -0.5000 
     47 CA          1.7756  -15.2873  -42.0641 C.3       5 UNK         0.1400 
     48 CB          2.6977  -16.4947  -42.3221 C.3       5 UNK        -0.1800 
     49 N           2.3229  -14.0404  -42.6189 N.am      5 UNK        -0.5000 
     50 C           2.6434  -13.7546  -43.8879 C.2       4 UNK         0.5000 
     51 O           2.5716  -14.5612  -44.8164 O.2       4 UNK        -0.5000 
     52 CA          3.1370  -12.3179  -44.1484 C.3       4 UNK         0.1400 
     53 CB          4.6550  -12.2272  -43.9277 C.3       4 UNK        -0.1800 
     54 N           2.8301  -11.8388  -45.4977 N.am      4 UNK        -0.5000 
     55 C           1.6025  -11.6821  -46.0121 C.2       3 UNK         0.5000 
     56 O           0.5695  -11.9001  -45.3747 O.2       3 UNK        -0.5000 
     57 CA          1.5280  -11.1595  -47.4657 C.3       3 UNK         0.1400 
     58 CB          2.7046  -11.6293  -48.3438 C.3       3 UNK        -0.1800 
     59 N           0.2841  -11.5543  -48.1225 N.am      3 UNK        -0.5000 
     60 C          -0.8831  -10.9006  -48.0567 C.2       2 UNK         0.5000 
     61 O          -1.0407   -9.8398  -47.4500 O.2       2 UNK        -0.5000 
     62 CA         -2.0724  -11.5176  -48.8226 C.3       2 UNK         0.1400 
     63 CB         -2.4144  -10.6710  -50.0591 C.3       2 UNK        -0.1800 
     64 N          -1.8110  -12.8912  -49.2595 N.am      2 UNK        -0.5000 
     65 C          -1.9855  -13.9770  -48.4988 C.2       1 UNK         0.5000 
     66 O          -2.4684  -13.9484  -47.3630 O.2       1 UNK        -0.5000 
     67 C          -1.5151  -22.3229  -48.2022 C.2       11 UNK         0.5000 
     68 O          -2.4017  -22.8183  -48.9004 O.2       11 UNK        -0.5000 
     69 N          -1.7103  -21.9290  -46.9335 N.am      12 UNK        -0.5000 
     70 CA         -2.9324  -22.2067  -46.1776 C.3       12 UNK         0.1400 
     71 CB         -3.1359  -21.1602  -45.0719 C.3       12 UNK        -0.1800 
     72 C          -2.8865  -23.6189  -45.5747 C.2       12 UNK         0.5000 
     73 O          -3.8809  -24.3402  -45.6489 O.2       12 UNK        -0.5000 
     74 N          -1.7264  -23.9973  -45.0150 N.am      13 UNK        -0.5000 
     75 CA         -1.4794  -25.2995  -44.3872 C.3       13 UNK         0.1400 
     76 CB         -0.0775  -25.3109  -43.7623 C.3       13 UNK        -0.1800 
     77 C          -1.6550  -26.4932  -45.3463 C.2       13 UNK         0.5000 
     78 O          -2.1168  -27.5518  -44.9173 O.2       13 UNK        -0.5000 
     79 N          -1.3432  -26.2906  -46.6340 N.am      14 UNK        -0.5000 
     80 CA         -1.5690  -27.2184  -47.7458 C.3       14 UNK         0.1400 
     81 CB         -0.6931  -26.7754  -48.9333 C.3       14 UNK        -0.1800 
     82 C          -3.0628  -27.3398  -48.1327 C.2       14 UNK         0.5000 
     83 O          -3.4186  -27.1443  -49.2967 O.2       14 UNK        -0.5000 
     84 N          -3.9191  -27.6250  -47.1392 N.am      15 UNK        -0.5000 
     85 CA         -5.3755  -27.8192  -47.2144 C.3       15 UNK         0.1400 
     86 CB         -5.6850  -29.1560  -47.9186 C.3       15 UNK        -0.1800 
     87 C          -6.1476  -26.6372  -47.8464 C.2       15 UNK         0.5000 
     88 O          -7.2355  -26.8359  -48.3902 O.2       15 UNK        -0.5000 
     89 N          -5.5492  -25.4378  -47.7976 N.am      16 UNK        -0.5000 
     90 CA         -5.9434  -24.2029  -48.4808 C.3       16 UNK         0.1400 
     91 CB         -7.2190  -23.6152  -47.8452 C.3       16 UNK        -0.1800 
     92 C          -6.0452  -24.3312  -50.0192 C.2       16 UNK         0.5000 
     93 O          -6.7208  -23.5189  -50.6516 O.2       16 UNK        -0.5000 
     94 N          -5.3724  -25.3303  -50.6105 N.am      17 UNK        -0.5000 
     95 CA         -5.4154  -25.6095  -52.0473 C.3       17 UNK         0.1400 
     96 CB         -4.9162  -27.0400  -52.3033 C.3       17 UNK        -0.1800 
     97 C          -4.5986  -24.5936  -52.8633 C.2       17 UNK         0.5000 
     98 O          -4.9986  -24.2348  -53.9701 O.2       17 UNK        -0.5000 
     99 N          -3.4797  -24.1362  -52.2899 N.am      18 UNK        -0.5000 
    100 CA        -2.5832  -23.1454  -52.8856 C.3       18 UNK         0.1400 
    101 CB        -1.1449  -23.4817  -52.4684 C.3       18 UNK        -0.1800 
    102 C         -2.9484  -21.7002  -52.4939 C.2       18 UNK         0.5000 
    103 O         -2.3788  -20.7659  -53.0555 O.2       18 UNK        -0.5000 
    104 N         -3.8960  -21.5308  -51.5594 N.am      19 UNK        -0.5000 
    105 CA        -4.3059  -20.2515  -50.9690 C.3       19 UNK         0.1400 
    106 CB        -5.2470  -20.5287  -49.7858 C.3       19 UNK        -0.1800 
    107 C         -4.9521  -19.2494  -51.9480 C.2       19 UNK         0.5000 
    108 O         -5.1139  -18.0809  -51.5955 O.2       19 UNK        -0.5000 
    109 N         -5.3170  -19.7134  -53.1503 N.am      20 UNK        -0.5000 
    110 CA        -5.7919  -18.8824  -54.2555 C.3       20 UNK         0.1400 
    111 CB        -6.4339  -19.7904  -55.3156 C.3       20 UNK        -0.1800 
    112 C         -4.6780  -18.0198  -54.8859 C.2       20 UNK         0.5000 
    113 O         -4.9860  -16.9851  -55.4796 O.2       20 UNK        -0.5000 
    114 N         -3.4157  -18.4525  -54.7603 N.am      21 UNK        -0.5000 
    115 CA        -2.2404  -17.7180  -55.2228 C.3       21 UNK         0.1400 
    116 CB        -1.1307  -18.7259  -55.5664 C.3       21 UNK        -0.1800 
    117 C         -1.7501  -16.7315  -54.1485 C.2       21 UNK         0.5000 
    118 O         -2.0035  -16.9347  -52.9599 O.2       21 UNK        -0.5000 
    119 N         -1.0150  -15.7032  -54.5923 N.am      22 UNK        -0.5000 
    120 CA        -0.2882  -14.7364  -53.7451 C.3       22 UNK         0.1400 
    121 C         -1.1947  -13.8273  -52.8572 C.2       22 UNK         0.5000 
    122 N         -2.4558  -13.6139  -53.2109 N.am      22 UNK        -0.7600 
    123 O         -0.7530  -13.2943  -51.8418 O.2       22 UNK        -0.5000 
    124 C124        0.8612  -15.3997  -52.9339 C.3       23 UNK        -0.0398 
    125 S125        2.0360  -16.3336  -53.9771 S.3       23 UNK        -0.2404 
    126 C126        3.5214  -16.3562  -52.9233 C.3       23 UNK        -0.0205 
    127 H127       -3.4521  -18.1398  -46.9873 H         1 UNK         0.0600 
    128 H128       -1.9470  -19.0675  -47.0269 H         1 UNK         0.0600 
    129 H129       -3.2523  -19.4628  -48.1418 H         1 UNK         0.0600 
    130 H130       -2.6420  -16.0620  -47.5177 H         1 UNK         0.3000 
    131 H131       -1.9324  -15.3527  -50.1310 H         1 UNK         0.0600 
    132 H132        0.4649  -14.5644  -49.6274 H         1 UNK         0.0800 
    133 H133        0.2529  -16.2733  -49.8298 H         1 UNK         0.0800 
    134 H134        3.0860  -16.3896  -47.1197 H         1 UNK         0.0800 
    135 H135        3.0105  -14.9724  -48.1242 H         1 UNK         0.0800 
    136 H136        3.1270  -15.1562  -50.5105 H         1 UNK         0.1150 
    137 H137        3.3263  -19.0189  -52.3562 H         1 UNK         0.1150 
    138 H138        2.4933  -18.6830  -48.1638 H         1 UNK         0.1150 
    139 H139        3.7511  -20.9407  -50.6273 H         1 UNK         0.0800 
    140 H140        2.9164  -20.8573  -49.1049 H         1 UNK         0.0800 
    141 H141       -0.8551  -20.8218  -50.3099 H         1 UNK         0.0800 
    142 H142        0.2308  -20.0592  -49.1807 H         1 UNK         0.0800 
    143 H143        0.0570  -23.1059  -49.3751 H         1 UNK         0.0600 
    144 H144        1.3886  -21.3066  -47.5553 H         1 UNK         0.3000 
    145 H145        2.2642  -23.7593  -45.1785 H         1 UNK         0.0600 
    146 H146        4.5801  -23.1608  -45.8007 H         1 UNK         0.0600 
    147 H147        3.8925  -24.2194  -47.0209 H         1 UNK         0.0600 
    148 H148        4.0311  -22.4946  -47.3390 H         1 UNK         0.0600 
    149 H149        3.1923  -21.1418  -45.3910 H         1 UNK         0.3000 
    150 H150        2.4375  -19.6789  -43.6850 H         1 UNK         0.0600 
    151 H151        2.2219  -18.7961  -45.9226 H         1 UNK         0.0600 
    152 H152        1.2890  -17.7225  -44.9028 H         1 UNK         0.0600 
    153 H153        0.4666  -18.9123  -45.9030 H         1 UNK         0.0600 
    154 H154       -0.3477  -18.9085  -43.4192 H         1 UNK         0.3000 
    155 H155       -1.0827  -20.4171  -40.4959 H         1 UNK         0.0600 
    156 H156        0.5210  -17.8563  -39.9925 H         1 UNK         0.0600 
    157 H157        0.6823  -19.3795  -39.1309 H         1 UNK         0.0600 
    158 H158       -0.7945  -18.4429  -38.9764 H         1 UNK         0.0600 
    159 H159       -1.3915  -17.6732  -41.6084 H         1 UNK         0.3000 
    160 H160       -4.1079  -18.5673  -43.6005 H         1 UNK         0.0600 
    161 H161       -4.5337  -17.1258  -40.9283 H         1 UNK         0.0600 
    162 H162       -5.4446  -18.5235  -41.4876 H         1 UNK         0.0600 
    163 H163       -5.5699  -16.9999  -42.3511 H         1 UNK         0.0600 
    164 H164       -3.2589  -15.9979  -42.7122 H         1 UNK         0.3000 
    165 H165       -1.2134  -15.4156  -45.4369 H         1 UNK         0.0600 
    166 H166       -2.3350  -14.1854  -42.8577 H         1 UNK         0.0600 
    167 H167       -1.7533  -13.3272  -44.2787 H         1 UNK         0.0600 
    168 H168       -3.2047  -14.3020  -44.3897 H         1 UNK         0.0600 
    169 H169        0.7273  -15.0985  -44.3891 H         1 UNK         0.3000 
    170 H170        1.7559  -15.1327  -40.9840 H         1 UNK         0.0600 
    171 H171        2.3161  -17.3880  -41.8271 H         1 UNK         0.0600 
    172 H172        2.7893  -16.7268  -43.3823 H         1 UNK         0.0600 
    173 H173        3.6996  -16.3126  -41.9338 H         1 UNK         0.0600 
    174 H174        2.4107  -13.2938  -41.9434 H         1 UNK         0.3000 
    175 H175        2.6410  -11.6491  -43.4420 H         1 UNK         0.0600 
    176 H176        5.2005  -12.8612  -44.6281 H         1 UNK         0.0600 
    177 H177        5.0126  -11.2046  -44.0503 H         1 UNK         0.0600 
    178 H178        4.9252  -12.5450  -42.9198 H         1 UNK         0.0600 
    179 H179        3.6241  -11.6630  -46.0947 H         1 UNK         0.3000 
    180 H180        1.5680  -10.0696  -47.4128 H         1 UNK         0.0600 
    181 H181        2.7781  -12.7156  -48.3681 H         1 UNK         0.0600 
    182 H182        3.6572  -11.2362  -47.9877 H         1 UNK         0.0600 
    183 H183        2.5885  -11.2832  -49.3712 H         1 UNK         0.0600 
    184 H184        0.2984  -12.4333  -48.6150 H         1 UNK         0.3000 
    185 H185       -2.9355  -11.5078  -48.1536 H         1 UNK         0.0600 
    186 H186       -3.2876  -11.0666  -50.5779 H         1 UNK         0.0600 
    187 H187       -2.6422   -9.6415  -49.7797 H         1 UNK         0.0600 
    188 H188       -1.5863  -10.6443  -50.7688 H         1 UNK         0.0600 
    189 H189       -1.4232  -12.9969  -50.1972 H         1 UNK         0.3000 
    190 H190       -0.9234  -21.5893  -46.3952 H         1 UNK         0.3000 
    191 H191       -3.7949  -22.1512  -46.8440 H         1 UNK         0.0600 
    192 H192       -3.9937  -21.4148  -44.4482 H         1 UNK         0.0600 
    193 H193       -3.3293  -20.1722  -45.4821 H         1 UNK         0.0600 
    194 H194       -2.2703  -21.0833  -44.4150 H         1 UNK         0.0600 
    195 H195       -0.9752  -23.3166  -44.9578 H         1 UNK         0.3000 
    196 H196       -2.2101  -25.4122  -43.5838 H         1 UNK         0.0600 
    197 H197        0.6991  -25.2999  -44.5259 H         1 UNK         0.0600 
    198 H198        0.0763  -24.4519  -43.1087 H         1 UNK         0.0600 
    199 H199        0.0715  -26.2093  -43.1623 H         1 UNK         0.0600 
    200 H200       -0.8994  -25.4110  -46.8757 H         1 UNK         0.3000 
    201 H201       -1.2372  -28.2121  -47.4374 H         1 UNK         0.0600 
    202 H202       -0.9645  -25.7770  -49.2811 H         1 UNK         0.0600 
    203 H203       -0.7951  -27.4593  -49.7769 H         1 UNK         0.0600 
    204 H204        0.3621  -26.7575  -48.6593 H         1 UNK         0.0600 
    205 H205       -3.5112  -27.7258  -46.2132 H         1 UNK         0.3000 
    206 H206       -5.7275  -27.8941  -46.1846 H         1 UNK         0.0600 
    207 H207       -5.1472  -29.9815  -47.4519 H         1 UNK         0.0600 
    208 H208       -6.7481  -29.3938  -47.8652 H         1 UNK         0.0600 
    209 H209       -5.4071  -29.1280  -48.9730 H         1 UNK         0.0600 
    210 H210       -4.6961  -25.3668  -47.2534 H         1 UNK         0.3000 
    211 H211       -5.1323  -23.4981  -48.3008 H         1 UNK         0.0600 
    212 H212       -7.4379  -22.6246  -48.2458 H         1 UNK         0.0600 
    213 H213       -7.1061  -23.5084  -46.7661 H         1 UNK         0.0600 
    214 H214       -8.0898  -24.2442  -48.0319 H         1 UNK         0.0600 
    215 H215       -4.8100  -25.9577  -50.0416 H         1 UNK         0.3000 
    216 H216       -6.4544  -25.5500  -52.3802 H         1 UNK         0.0600 
    217 H217       -3.8719  -27.1616  -52.0113 H         1 UNK         0.0600 
    218 H218       -4.9935  -27.2970  -53.3605 H         1 UNK         0.0600 
    219 H219       -5.5057  -27.7688  -51.7462 H         1 UNK         0.0600 
    220 H220       -3.2332  -24.4793  -51.3726 H         1 UNK         0.3000 
    221 H221       -2.6374  -23.2069  -53.9746 H         1 UNK         0.0600 
    222 H222       -0.8571  -24.4756  -52.8112 H         1 UNK         0.0600 
    223 H223       -1.0280  -23.4550  -51.3863 H         1 UNK         0.0600 
    224 H224       -0.4354  -22.7730  -52.8975 H         1 UNK         0.0600 
    225 H225       -4.3292  -22.3571  -51.1762 H         1 UNK         0.3000 
    226 H226       -3.4025  -19.7778  -50.5857 H         1 UNK         0.0600 
    227 H227       -6.1839  -20.9774  -50.1156 H         1 UNK         0.0600 
    228 H228       -4.7858  -21.1978  -49.0601 H         1 UNK         0.0600 
    229 H229       -5.4976  -19.6059  -49.2611 H         1 UNK         0.0600 
    230 H230       -5.1640  -20.6913  -53.3475 H         1 UNK         0.3000 
    231 H231       -6.5594  -18.2058  -53.8737 H         1 UNK         0.0600 
    232 H232       -5.7148  -20.5007  -55.7257 H         1 UNK         0.0600 
    233 H233       -6.8264  -19.2033  -56.1469 H         1 UNK         0.0600 
    234 H234       -7.2662  -20.3576  -54.8982 H         1 UNK         0.0600 
    235 H235       -3.2265  -19.2651  -54.1828 H         1 UNK         0.3000 
    236 H236       -2.4915  -17.1600  -56.1278 H         1 UNK         0.0600 
    237 H237       -1.4674  -19.4479  -56.3107 H         1 UNK         0.0600 
    238 H238       -0.2554  -18.2201  -55.9759 H         1 UNK         0.0600 
    239 H239       -0.8029  -19.2794  -54.6852 H         1 UNK         0.0600 
    240 H240       -0.8598  -15.6090  -55.5856 H         1 UNK         0.3000 
    241 H241        0.1819  -14.0408  -54.4411 H         1 UNK         0.0600 
    242 H242       -3.0392  -13.0172  -52.6476 H         1 UNK         0.3800 
    243 H243       -2.8357  -14.0518  -54.0349 H         1 UNK         0.3800 
    244 H244        0.4559  -16.0795  -52.1836 H         1 UNK         0.0800 
    245 H245        1.4233  -14.6385  -52.3903 H         1 UNK         0.0800 
    246 H246        4.3155  -16.8954  -53.4417 H         1 UNK         0.0800 
    247 H247        3.8840  -15.3360  -52.7878 H         1 UNK         0.0800 
@<TRIPOS>BOND
     1    1    2 1    
     2    1  127 1    
     3    1  128 1    
     4    1  129 1    
     5    2    3 2    
     6    2    4 am   BACKBONE|DICT|INTERRES
     7    4    5 1    
     8    4  130 1    
     9    5    6 1    
    10    5   65 1    
    11    5  131 1    
    12    6    7 1    
    13    6  132 1    
    14    6  133 1    
    15    7    8 1    
    16    8    9 1    
    17    8  134 1    
    18    8  135 1    
    19    9   10 ar   
    20    9   14 ar   
    21   10   11 ar   
    22   10  136 1    
    23   11   12 ar   
    24   11  126 1    
    25   12   13 ar   
    26   12  137 1    
    27   13   14 ar   
    28   13   15 1    
    29   14  138 1    
    30   15   16 1    
    31   15  139 1    
    32   15  140 1    
    33   16   17 1    
    34   17   18 1    
    35   17  141 1    
    36   17  142 1    
    37   18   19 1    
    38   18   67 1    
    39   18  143 1    
    40   19   20 am   BACKBONE|DICT|INTERRES
    41   19  144 1    
    42   20   21 2    
    43   20   22 1    
    44   22   23 1    
    45   22   24 1    
    46   22  145 1    
    47   23  146 1    
    48   23  147 1    
    49   23  148 1    
    50   24   25 am   BACKBONE|DICT|INTERRES
    51   24  149 1    
    52   25   26 2    
    53   25   27 1    
    54   27   28 1    
    55   27   29 1    
    56   27  150 1    
    57   28  151 1    
    58   28  152 1    
    59   28  153 1    
    60   29   30 am   BACKBONE|DICT|INTERRES
    61   29  154 1    
    62   30   31 2    
    63   30   32 1    
    64   32   33 1    
    65   32   34 1    
    66   32  155 1    
    67   33  156 1    
    68   33  157 1    
    69   33  158 1    
    70   34   35 am   BACKBONE|DICT|INTERRES
    71   34  159 1    
    72   35   36 2    
    73   35   37 1    
    74   37   38 1    
    75   37   39 1    
    76   37  160 1    
    77   38  161 1    
    78   38  162 1    
    79   38  163 1    
    80   39   40 am   BACKBONE|DICT|INTERRES
    81   39  164 1    
    82   40   41 2    
    83   40   42 1    
    84   42   43 1    
    85   42   44 1    
    86   42  165 1    
    87   43  166 1    
    88   43  167 1    
    89   43  168 1    
    90   44   45 am   BACKBONE|DICT|INTERRES
    91   44  169 1    
    92   45   46 2    
    93   45   47 1    
    94   47   48 1    
    95   47   49 1    
    96   47  170 1    
    97   48  171 1    
    98   48  172 1    
    99   48  173 1    
   100   49   50 am   BACKBONE|DICT|INTERRES
   101   49  174 1    
   102   50   51 2    
   103   50   52 1    
   104   52   53 1    
   105   52   54 1    
   106   52  175 1    
   107   53  176 1    
   108   53  177 1    
   109   53  178 1    
   110   54   55 am   BACKBONE|DICT|INTERRES
   111   54  179 1    
   112   55   56 2    
   113   55   57 1    
   114   57   58 1    
   115   57   59 1    
   116   57  180 1    
   117   58  181 1    
   118   58  182 1    
   119   58  183 1    
   120   59   60 am   BACKBONE|DICT|INTERRES
   121   59  184 1    
   122   60   61 2    
   123   60   62 1    
   124   62   63 1    
   125   62   64 1    
   126   62  185 1    
   127   63  186 1    
   128   63  187 1    
   129   63  188 1    
   130   64   65 am   BACKBONE|DICT|INTERRES
   131   64  189 1    
   132   65   66 2    
   133   67   68 2    
   134   67   69 am   BACKBONE|DICT|INTERRES
   135   69   70 1    
   136   69  190 1    
   137   70   71 1    
   138   70   72 1    
   139   70  191 1    
   140   71  192 1    
   141   71  193 1    
   142   71  194 1    
   143   72   73 2    
   144   72   74 am   BACKBONE|DICT|INTERRES
   145   74   75 1    
   146   74  195 1    
   147   75   76 1    
   148   75   77 1    
   149   75  196 1    
   150   76  197 1    
   151   76  198 1    
   152   76  199 1    
   153   77   78 2    
   154   77   79 am   BACKBONE|DICT|INTERRES
   155   79   80 1    
   156   79  200 1    
   157   80   81 1    
   158   80   82 1    
   159   80  201 1    
   160   81  202 1    
   161   81  203 1    
   162   81  204 1    
   163   82   83 2    
   164   82   84 am   BACKBONE|DICT|INTERRES
   165   84   85 1    
   166   84  205 1    
   167   85   86 1    
   168   85   87 1    
   169   85  206 1    
   170   86  207 1    
   171   86  208 1    
   172   86  209 1    
   173   87   88 2    
   174   87   89 am   BACKBONE|DICT|INTERRES
   175   89   90 1    
   176   89  210 1    
   177   90   91 1    
   178   90   92 1    
   179   90  211 1    
   180   91  212 1    
   181   91  213 1    
   182   91  214 1    
   183   92   93 2    
   184   92   94 am   BACKBONE|DICT|INTERRES
   185   94   95 1    
   186   94  215 1    
   187   95   96 1    
   188   95   97 1    
   189   95  216 1    
   190   96  217 1    
   191   96  218 1    
   192   96  219 1    
   193   97   98 2    
   194   97   99 am   BACKBONE|DICT|INTERRES
   195   99  100 1    
   196   99  220 1    
   197  100  101 1    
   198  100  102 1    
   199  100  221 1    
   200  101  222 1    
   201  101  223 1    
   202  101  224 1    
   203  102  103 2    
   204  102  104 am   BACKBONE|DICT|INTERRES
   205  104  105 1    
   206  104  225 1    
   207  105  106 1    
   208  105  107 1    
   209  105  226 1    
   210  106  227 1    
   211  106  228 1    
   212  106  229 1    
   213  107  108 2    
   214  107  109 am   BACKBONE|DICT|INTERRES
   215  109  110 1    
   216  109  230 1    
   217  110  111 1    
   218  110  112 1    
   219  110  231 1    
   220  111  232 1    
   221  111  233 1    
   222  111  234 1    
   223  112  113 2    
   224  112  114 am   BACKBONE|DICT|INTERRES
   225  114  115 1    
   226  114  235 1    
   227  115  116 1    
   228  115  117 1    
   229  115  236 1    
   230  116  237 1    
   231  116  238 1    
   232  116  239 1    
   233  117  118 2    
   234  117  119 am   BACKBONE|DICT|INTERRES
   235  119  120 1    
   236  119  240 1    
   237  120  121 1    
   238  120  124 1    
   239  120  241 1    
   240  121  122 am   BACKBONE|DICT|INTERRES
   241  121  123 2    
   242  122  242 1    
   243  122  243 1    
   244  124  125 1    
   245  124  244 1    
   246  124  245 1    
   247  125  126 1    
   248  126  246 1    
   249  126  247 1    
@<TRIPOS>SUBSTRUCTURE
     1 UNK         1 GROUP             0       ****    0 ROOT    
