@<TRIPOS>MOLECULE
3R540
247   249    1
SMALL
USER_CHARGES


@<TRIPOS>ATOM
      1 CA         -2.0644   -9.4070  -49.9363 C.3       0 UNK        -0.1800 
      2 C          -0.9985  -10.3343  -49.3707 C.2       0 UNK         0.5000 
      3 O          -0.1188   -9.8843  -48.6369 O.2       0 UNK        -0.5000 
      4 N          -1.0804  -11.6309  -49.6947 N.am      1 UNK        -0.5000 
      5 CA         -0.1428  -12.6747  -49.2579 C.3       1 UNK         0.1400 
      6 C6         -0.0444  -13.8243  -50.2904 C.3       23 UNK        -0.0398 
      7 S7         -1.5962  -14.7660  -50.5227 S.3       23 UNK        -0.2404 
      8 C8         -1.2818  -15.5734  -52.1318 C.3       23 UNK        -0.0205 
      9 C9         -0.1800  -16.6377  -52.1600 C.ar      23 UNK        -0.0193 
     10 C10         0.2050  -17.1515  -53.4031 C.ar      23 UNK        -0.1150 
     11 C11         1.1934  -18.1359  -53.5026 C.ar      23 UNK        -0.0193 
     12 C12         1.8290  -18.5856  -52.3419 C.ar      23 UNK        -0.1150 
     13 C13         1.4678  -18.0763  -51.0918 C.ar      23 UNK        -0.0193 
     14 C14         0.4509  -17.1224  -51.0054 C.ar      23 UNK        -0.1150 
     15 C15         2.1969  -18.5338  -49.8370 C.3       23 UNK        -0.0205 
     16 S16         1.5187  -20.0822  -49.1697 S.3       23 UNK        -0.2404 
     17 C17        -0.0534  -19.5119  -48.4412 C.3       23 UNK        -0.0398 
     18 CA         -0.7051  -20.6165  -47.5791 C.3       11 UNK         0.1400 
     19 N           0.1337  -20.9905  -46.4390 N.am      11 UNK        -0.5000 
     20 C          -0.0715  -22.0344  -45.6267 C.2       10 UNK         0.5000 
     21 O          -1.0187  -22.8128  -45.7460 O.2       10 UNK        -0.5000 
     22 CA          0.9135  -22.2069  -44.4496 C.3       10 UNK         0.1400 
     23 CB          2.2182  -21.3947  -44.6104 C.3       10 UNK        -0.1800 
     24 N           0.2912  -21.8956  -43.1583 N.am      10 UNK        -0.5000 
     25 C          -0.4064  -20.7970  -42.8390 C.2       9 UNK         0.5000 
     26 O          -0.6368  -19.8794  -43.6257 O.2       9 UNK        -0.5000 
     27 CA         -0.9345  -20.6914  -41.3978 C.3       9 UNK         0.1400 
     28 CB         -2.0884  -21.6764  -41.1314 C.3       9 UNK        -0.1800 
     29 N           0.1277  -20.7758  -40.3907 N.am      9 UNK        -0.5000 
     30 C           0.8494  -21.8435  -40.0232 C.2       8 UNK         0.5000 
     31 O           0.6886  -22.9767  -40.4819 O.2       8 UNK        -0.5000 
     32 CA          1.9626  -21.5620  -38.9945 C.3       8 UNK         0.1400 
     33 CB          2.6933  -22.8358  -38.5199 C.3       8 UNK        -0.1800 
     34 N           2.9143  -20.5609  -39.4894 N.am      8 UNK        -0.5000 
     35 C           3.6950  -20.6429  -40.5784 C.2       7 UNK         0.5000 
     36 O           3.7579  -21.6398  -41.2984 O.2       7 UNK        -0.5000 
     37 CA          4.5452  -19.3984  -40.9169 C.3       7 UNK         0.1400 
     38 CB          5.0747  -19.4202  -42.3628 C.3       7 UNK        -0.1800 
     39 N           3.8019  -18.1541  -40.7054 N.am      7 UNK        -0.5000 
     40 C           3.7333  -17.4803  -39.5480 C.2       6 UNK         0.5000 
     41 O           4.3051  -17.8469  -38.5213 O.2       6 UNK        -0.5000 
     42 CA          2.8590  -16.2101  -39.5044 C.3       6 UNK         0.1400 
     43 CB          3.7339  -14.9536  -39.6261 C.3       6 UNK        -0.1800 
     44 N           1.8255  -16.1661  -40.5383 N.am      6 UNK        -0.5000 
     45 C           0.7857  -17.0073  -40.6333 C.2       5 UNK         0.5000 
     46 O           0.5536  -17.9071  -39.8232 O.2       5 UNK        -0.5000 
     47 CA         -0.1223  -16.8470  -41.8683 C.3       5 UNK         0.1400 
     48 CB         -1.3603  -16.0091  -41.5218 C.3       5 UNK        -0.1800 
     49 N           0.5490  -16.2784  -43.0406 N.am      5 UNK        -0.5000 
     50 C           1.6271  -16.8084  -43.6436 C.2       4 UNK         0.5000 
     51 O           2.1736  -17.8439  -43.2644 O.2       4 UNK        -0.5000 
     52 CA          2.2332  -16.0447  -44.8386 C.3       4 UNK         0.1400 
     53 CB          1.8207  -16.7169  -46.1573 C.3       4 UNK        -0.1800 
     54 N           1.8704  -14.6259  -44.8868 N.am      4 UNK        -0.5000 
     55 C           2.1711  -13.7138  -43.9474 C.2       3 UNK         0.5000 
     56 O           2.8658  -13.9607  -42.9608 O.2       3 UNK        -0.5000 
     57 CA          1.5517  -12.3064  -44.0984 C.3       3 UNK         0.1400 
     58 CB          2.5787  -11.3300  -44.6907 C.3       3 UNK        -0.1800 
     59 N           0.3377  -12.2718  -44.9195 N.am      3 UNK        -0.5000 
     60 C          -0.7850  -12.9671  -44.6861 C.2       2 UNK         0.5000 
     61 O          -0.9602  -13.6512  -43.6784 O.2       2 UNK        -0.5000 
     62 CA         -1.8694  -12.9533  -45.7831 C.3       2 UNK         0.1400 
     63 CB         -3.0122  -12.0042  -45.3930 C.3       2 UNK        -0.1800 
     64 N          -1.3980  -12.5970  -47.1269 N.am      2 UNK        -0.5000 
     65 C          -0.4187  -13.1937  -47.8252 C.2       1 UNK         0.5000 
     66 O           0.2667  -14.1126  -47.3743 O.2       1 UNK        -0.5000 
     67 C          -2.1391  -20.2162  -47.1754 C.2       11 UNK         0.5000 
     68 O          -3.0478  -20.3877  -47.9881 O.2       11 UNK        -0.5000 
     69 N          -2.3454  -19.7311  -45.9408 N.am      12 UNK        -0.5000 
     70 CA         -3.6682  -19.3865  -45.4126 C.3       12 UNK         0.1400 
     71 CB         -3.5264  -18.5809  -44.1119 C.3       12 UNK        -0.1800 
     72 C          -4.5519  -20.6291  -45.1958 C.2       12 UNK         0.5000 
     73 O          -5.7523  -20.5687  -45.4614 O.2       12 UNK        -0.5000 
     74 N          -3.9382  -21.7503  -44.7851 N.am      13 UNK        -0.5000 
     75 CA         -4.6010  -23.0530  -44.6549 C.3       13 UNK         0.1400 
     76 CB         -3.7224  -24.0015  -43.8254 C.3       13 UNK        -0.1800 
     77 C          -4.9447  -23.6801  -46.0206 C.2       13 UNK         0.5000 
     78 O          -5.8974  -24.4535  -46.1142 O.2       13 UNK        -0.5000 
     79 N          -4.1923  -23.2957  -47.0598 N.am      14 UNK        -0.5000 
     80 CA         -4.4268  -23.6381  -48.4626 C.3       14 UNK         0.1400 
     81 CB         -3.0664  -23.7299  -49.1752 C.3       14 UNK        -0.1800 
     82 C          -5.3807  -22.6475  -49.1690 C.2       14 UNK         0.5000 
     83 O          -5.4574  -22.6678  -50.3987 O.2       14 UNK        -0.5000 
     84 N          -6.0790  -21.8014  -48.3933 N.am      15 UNK        -0.5000 
     85 CA         -7.0654  -20.8009  -48.8136 C.3       15 UNK         0.1400 
     86 CB         -8.2997  -21.4813  -49.4425 C.3       15 UNK        -0.1800 
     87 C          -6.4466  -19.7105  -49.7088 C.2       15 UNK         0.5000 
     88 O          -6.9130  -19.4830  -50.8249 O.2       15 UNK        -0.5000 
     89 N          -5.3715  -19.0878  -49.2034 N.am      16 UNK        -0.5000 
     90 CA         -4.4994  -18.1267  -49.8929 C.3       16 UNK         0.1400 
     91 CB         -5.2530  -16.8281  -50.2477 C.3       16 UNK        -0.1800 
     92 C          -3.7919  -18.7789  -51.0975 C.2       16 UNK         0.5000 
     93 O          -3.7165  -18.1923  -52.1773 O.2       16 UNK        -0.5000 
     94 N          -3.3235  -20.0150  -50.8721 N.am      17 UNK        -0.5000 
     95 CA         -2.6555  -20.9087  -51.8199 C.3       17 UNK         0.1400 
     96 CB         -1.2638  -20.3663  -52.1783 C.3       17 UNK        -0.1800 
     97 C          -3.4959  -21.2886  -53.0583 C.2       17 UNK         0.5000 
     98 O          -2.9351  -21.7301  -54.0624 O.2       17 UNK        -0.5000 
     99 N          -4.8283  -21.1839  -52.9603 N.am      18 UNK        -0.5000 
    100 CA        -5.7685  -21.6377  -53.9853 C.3       18 UNK         0.1400 
    101 CB        -7.1826  -21.1482  -53.6464 C.3       18 UNK        -0.1800 
    102 C         -5.7471  -23.1676  -54.1495 C.2       18 UNK         0.5000 
    103 O         -5.7991  -23.6572  -55.2776 O.2       18 UNK        -0.5000 
    104 N         -5.5979  -23.8950  -53.0318 N.am      19 UNK        -0.5000 
    105 CA        -5.4311  -25.3517  -53.0095 C.3       19 UNK         0.1400 
    106 CB        -5.6461  -25.8650  -51.5782 C.3       19 UNK        -0.1800 
    107 C         -4.0617  -25.8099  -53.5545 C.2       19 UNK         0.5000 
    108 O         -3.9390  -26.9494  -54.0038 O.2       19 UNK        -0.5000 
    109 N         -3.0698  -24.9085  -53.5305 N.am      20 UNK        -0.5000 
    110 CA        -1.7424  -25.0887  -54.1238 C.3       20 UNK         0.1400 
    111 CB        -0.7101  -24.3530  -53.2543 C.3       20 UNK        -0.1800 
    112 C         -1.6809  -24.6090  -55.5917 C.2       20 UNK         0.5000 
    113 O         -0.6207  -24.7076  -56.2106 O.2       20 UNK        -0.5000 
    114 N         -2.8104  -24.1150  -56.1219 N.am      21 UNK        -0.5000 
    115 CA        -3.0326  -23.6334  -57.4865 C.3       21 UNK         0.1400 
    116 CB        -2.8256  -24.7655  -58.5157 C.3       21 UNK        -0.1800 
    117 C         -2.2680  -22.3400  -57.8414 C.2       21 UNK         0.5000 
    118 O         -1.9531  -22.1258  -59.0144 O.2       21 UNK        -0.5000 
    119 N         -2.0162  -21.4754  -56.8489 N.am      22 UNK        -0.5000 
    120 CA        -1.5629  -20.0925  -57.0752 C.3       22 UNK         0.1400 
    121 C         -2.7003  -19.2060  -57.6587 C.2       22 UNK         0.5000 
    122 N         -2.3672  -18.2383  -58.5023 N.am      22 UNK        -0.7600 
    123 O         -3.8743  -19.3605  -57.3283 O.2       22 UNK        -0.5000 
    124 C124       -0.9870  -19.4471  -55.7913 C.3       23 UNK        -0.0398 
    125 S125        0.6092  -20.1830  -55.2960 S.3       23 UNK        -0.2404 
    126 C126        1.5869  -18.7053  -54.8599 C.3       23 UNK        -0.0205 
    127 H127       -1.6018   -8.6358  -50.5520 H         1 UNK         0.0600 
    128 H128       -2.7856   -9.9459  -50.5512 H         1 UNK         0.0600 
    129 H129       -2.6059   -8.9188  -49.1260 H         1 UNK         0.0600 
    130 H130       -1.8347  -11.9515  -50.2865 H         1 UNK         0.3000 
    131 H131        0.8508  -12.2239  -49.2109 H         1 UNK         0.0600 
    132 H132        0.7527  -14.5115  -50.0052 H         1 UNK         0.0800 
    133 H133        0.2600  -13.4135  -51.2541 H         1 UNK         0.0800 
    134 H134       -1.0520  -14.8002  -52.8663 H         1 UNK         0.0800 
    135 H135       -2.2115  -16.0369  -52.4619 H         1 UNK         0.0800 
    136 H136       -0.2787  -16.7889  -54.2987 H         1 UNK         0.1150 
    137 H137        2.6044  -19.3357  -52.4105 H         1 UNK         0.1150 
    138 H138        0.1692  -16.7586  -50.0290 H         1 UNK         0.1150 
    139 H139        3.2519  -18.6873  -50.0684 H         1 UNK         0.0800 
    140 H140        2.1677  -17.7580  -49.0708 H         1 UNK         0.0800 
    141 H141        0.1287  -18.6164  -47.8453 H         1 UNK         0.0800 
    142 H142       -0.7171  -19.2103  -49.2529 H         1 UNK         0.0800 
    143 H143       -0.8018  -21.5068  -48.2030 H         1 UNK         0.0600 
    144 H144        0.9248  -20.3922  -46.2527 H         1 UNK         0.3000 
    145 H145        1.1796  -23.2644  -44.4246 H         1 UNK         0.0600 
    146 H146        2.9323  -21.6556  -43.8305 H         1 UNK         0.0600 
    147 H147        2.7027  -21.6040  -45.5650 H         1 UNK         0.0600 
    148 H148        2.0468  -20.3194  -44.5474 H         1 UNK         0.0600 
    149 H149        0.4354  -22.5751  -42.4175 H         1 UNK         0.3000 
    150 H150       -1.3578  -19.6939  -41.2844 H         1 UNK         0.0600 
    151 H151       -2.9228  -21.4792  -41.8053 H         1 UNK         0.0600 
    152 H152       -2.4646  -21.5759  -40.1134 H         1 UNK         0.0600 
    153 H153       -1.7909  -22.7147  -41.2777 H         1 UNK         0.0600 
    154 H154        0.3840  -19.8775  -39.9899 H         1 UNK         0.3000 
    155 H155        1.4753  -21.1224  -38.1229 H         1 UNK         0.0600 
    156 H156        1.9933  -23.5364  -38.0633 H         1 UNK         0.0600 
    157 H157        3.4505  -22.5998  -37.7722 H         1 UNK         0.0600 
    158 H158        3.1850  -23.3577  -39.3412 H         1 UNK         0.0600 
    159 H159        2.9502  -19.6961  -38.9662 H         1 UNK         0.3000 
    160 H160        5.4119  -19.4175  -40.2531 H         1 UNK         0.0600 
    161 H161        4.2632  -19.4796  -43.0883 H         1 UNK         0.0600 
    162 H162        5.7254  -20.2794  -42.5291 H         1 UNK         0.0600 
    163 H163        5.6575  -18.5260  -42.5841 H         1 UNK         0.0600 
    164 H164        3.2487  -17.8352  -41.4940 H         1 UNK         0.3000 
    165 H165        2.3610  -16.1892  -38.5330 H         1 UNK         0.0600 
    166 H166        4.4969  -14.9299  -38.8469 H         1 UNK         0.0600 
    167 H167        4.2451  -14.9127  -40.5889 H         1 UNK         0.0600 
    168 H168        3.1385  -14.0460  -39.5247 H         1 UNK         0.0600 
    169 H169        1.9501  -15.4759  -41.2676 H         1 UNK         0.3000 
    170 H170       -0.4621  -17.8382  -42.1523 H         1 UNK         0.0600 
    171 H171       -1.9043  -16.4434  -40.6820 H         1 UNK         0.0600 
    172 H172       -1.0898  -14.9890  -41.2469 H         1 UNK         0.0600 
    173 H173       -2.0510  -15.9587  -42.3637 H         1 UNK         0.0600 
    174 H174        0.1643  -15.4110  -43.3981 H         1 UNK         0.3000 
    175 H175        3.3193  -16.1061  -44.7465 H         1 UNK         0.0600 
    176 H176        0.7406  -16.6790  -46.3039 H         1 UNK         0.0600 
    177 H177        2.2914  -16.2306  -47.0118 H         1 UNK         0.0600 
    178 H178        2.1194  -17.7660  -46.1742 H         1 UNK         0.0600 
    179 H179        1.2947  -14.3424  -45.6743 H         1 UNK         0.3000 
    180 H180        1.2835  -11.9610  -43.0980 H         1 UNK         0.0600 
    181 H181        2.8619  -11.6124  -45.7055 H         1 UNK         0.0600 
    182 H182        2.1858  -10.3135  -44.7213 H         1 UNK         0.0600 
    183 H183        3.4888  -11.3071  -44.0896 H         1 UNK         0.0600 
    184 H184        0.3911  -11.7437  -45.7781 H         1 UNK         0.3000 
    185 H185       -2.2714  -13.9665  -45.8425 H         1 UNK         0.0600 
    186 H186       -3.8383  -12.0675  -46.1016 H         1 UNK         0.0600 
    187 H187       -3.4114  -12.2547  -44.4091 H         1 UNK         0.0600 
    188 H188       -2.6775  -10.9667  -45.3574 H         1 UNK         0.0600 
    189 H189       -1.8906  -11.8438  -47.5835 H         1 UNK         0.3000 
    190 H190       -1.5668  -19.6650  -45.2891 H         1 UNK         0.3000 
    191 H191       -4.1638  -18.7476  -46.1466 H         1 UNK         0.0600 
    192 H192       -4.4923  -18.1853  -43.7958 H         1 UNK         0.0600 
    193 H193       -2.8531  -17.7330  -44.2405 H         1 UNK         0.0600 
    194 H194       -3.1456  -19.1915  -43.2937 H         1 UNK         0.0600 
    195 H195       -2.9367  -21.7363  -44.6505 H         1 UNK         0.3000 
    196 H196       -5.5401  -22.9070  -44.1167 H         1 UNK         0.0600 
    197 H197       -4.1979  -24.9772  -43.7170 H         1 UNK         0.0600 
    198 H198       -3.5595  -23.6124  -42.8216 H         1 UNK         0.0600 
    199 H199       -2.7488  -24.1638  -44.2875 H         1 UNK         0.0600 
    200 H200       -3.4296  -22.6579  -46.8801 H         1 UNK         0.3000 
    201 H201       -4.8989  -24.6208  -48.5175 H         1 UNK         0.0600 
    202 H202       -2.4281  -24.4778  -48.7045 H         1 UNK         0.0600 
    203 H203       -2.5369  -22.7797  -49.1478 H         1 UNK         0.0600 
    204 H204       -3.1766  -24.0150  -50.2215 H         1 UNK         0.0600 
    205 H205       -5.9134  -21.8409  -47.3966 H         1 UNK         0.3000 
    206 H206       -7.3993  -20.2970  -47.9053 H         1 UNK         0.0600 
    207 H207       -8.7418  -22.2033  -48.7561 H         1 UNK         0.0600 
    208 H208       -9.0700  -20.7474  -49.6819 H         1 UNK         0.0600 
    209 H209       -8.0523  -22.0069  -50.3647 H         1 UNK         0.0600 
    210 H210       -5.0134  -19.4251  -48.3194 H         1 UNK         0.3000 
    211 H211       -3.7117  -17.8625  -49.1856 H         1 UNK         0.0600 
    212 H212       -6.0180  -16.9934  -51.0067 H         1 UNK         0.0600 
    213 H213       -4.5658  -16.0767  -50.6384 H         1 UNK         0.0600 
    214 H214       -5.7365  -16.4005  -49.3696 H         1 UNK         0.0600 
    215 H215       -3.4357  -20.3775  -49.9307 H         1 UNK         0.3000 
    216 H216       -2.5004  -21.8475  -51.2912 H         1 UNK         0.0600 
    217 H217       -1.3272  -19.3936  -52.6616 H         1 UNK         0.0600 
    218 H218       -0.7304  -21.0347  -52.8513 H         1 UNK         0.0600 
    219 H219       -0.6425  -20.2582  -51.2928 H         1 UNK         0.0600 
    220 H220       -5.2272  -20.8484  -52.0931 H         1 UNK         0.3000 
    221 H221       -5.4711  -21.1931  -54.9377 H         1 UNK         0.0600 
    222 H222       -7.5276  -21.5478  -52.6925 H         1 UNK         0.0600 
    223 H223       -7.2180  -20.0603  -53.5860 H         1 UNK         0.0600 
    224 H224       -7.8970  -21.4559  -54.4108 H         1 UNK         0.0600 
    225 H225       -5.5647  -23.4148  -52.1345 H         1 UNK         0.3000 
    226 H226       -6.2024  -25.7906  -53.6459 H         1 UNK         0.0600 
    227 H227       -6.6129  -25.5501  -51.1852 H         1 UNK         0.0600 
    228 H228       -5.6211  -26.9550  -51.5479 H         1 UNK         0.0600 
    229 H229       -4.8742  -25.5027  -50.9010 H         1 UNK         0.0600 
    230 H230       -3.2753  -23.9851  -53.1787 H         1 UNK         0.3000 
    231 H231       -1.4855  -26.1499  -54.1209 H         1 UNK         0.0600 
    232 H232       -0.8676  -23.2764  -53.2713 H         1 UNK         0.0600 
    233 H233       -0.7561  -24.6845  -52.2168 H         1 UNK         0.0600 
    234 H234        0.3041  -24.5384  -53.6099 H         1 UNK         0.0600 
    235 H235       -3.6226  -24.0599  -55.5215 H         1 UNK         0.3000 
    236 H236       -4.0877  -23.3595  -57.5255 H         1 UNK         0.0600 
    237 H237       -3.3929  -25.6553  -58.2427 H         1 UNK         0.0600 
    238 H238       -3.1634  -24.4603  -59.5067 H         1 UNK         0.0600 
    239 H239       -1.7764  -25.0486  -58.6029 H         1 UNK         0.0600 
    240 H240       -2.3185  -21.6980  -55.9043 H         1 UNK         0.3000 
    241 H241       -0.7626  -20.1232  -57.8177 H         1 UNK         0.0600 
    242 H242       -3.0926  -17.6477  -58.8790 H         1 UNK         0.3800 
    243 H243       -1.4120  -18.0893  -58.7897 H         1 UNK         0.3800 
    244 H244       -1.6964  -19.5271  -54.9682 H         1 UNK         0.0800 
    245 H245       -0.8340  -18.3791  -55.9503 H         1 UNK         0.0800 
    246 H246        2.6423  -18.9812  -54.8460 H         1 UNK         0.0800 
    247 H247        1.4876  -17.9467  -55.6377 H         1 UNK         0.0800 
@<TRIPOS>BOND
     1    1    2 1    
     2    1  127 1    
     3    1  128 1    
     4    1  129 1    
     5    2    3 2    
     6    2    4 am   BACKBONE|DICT|INTERRES
     7    4    5 1    
     8    4  130 1    
     9    5    6 1    
    10    5   65 1    
    11    5  131 1    
    12    6    7 1    
    13    6  132 1    
    14    6  133 1    
    15    7    8 1    
    16    8    9 1    
    17    8  134 1    
    18    8  135 1    
    19    9   10 ar   
    20    9   14 ar   
    21   10   11 ar   
    22   10  136 1    
    23   11   12 ar   
    24   11  126 1    
    25   12   13 ar   
    26   12  137 1    
    27   13   14 ar   
    28   13   15 1    
    29   14  138 1    
    30   15   16 1    
    31   15  139 1    
    32   15  140 1    
    33   16   17 1    
    34   17   18 1    
    35   17  141 1    
    36   17  142 1    
    37   18   19 1    
    38   18   67 1    
    39   18  143 1    
    40   19   20 am   BACKBONE|DICT|INTERRES
    41   19  144 1    
    42   20   21 2    
    43   20   22 1    
    44   22   23 1    
    45   22   24 1    
    46   22  145 1    
    47   23  146 1    
    48   23  147 1    
    49   23  148 1    
    50   24   25 am   BACKBONE|DICT|INTERRES
    51   24  149 1    
    52   25   26 2    
    53   25   27 1    
    54   27   28 1    
    55   27   29 1    
    56   27  150 1    
    57   28  151 1    
    58   28  152 1    
    59   28  153 1    
    60   29   30 am   BACKBONE|DICT|INTERRES
    61   29  154 1    
    62   30   31 2    
    63   30   32 1    
    64   32   33 1    
    65   32   34 1    
    66   32  155 1    
    67   33  156 1    
    68   33  157 1    
    69   33  158 1    
    70   34   35 am   BACKBONE|DICT|INTERRES
    71   34  159 1    
    72   35   36 2    
    73   35   37 1    
    74   37   38 1    
    75   37   39 1    
    76   37  160 1    
    77   38  161 1    
    78   38  162 1    
    79   38  163 1    
    80   39   40 am   BACKBONE|DICT|INTERRES
    81   39  164 1    
    82   40   41 2    
    83   40   42 1    
    84   42   43 1    
    85   42   44 1    
    86   42  165 1    
    87   43  166 1    
    88   43  167 1    
    89   43  168 1    
    90   44   45 am   BACKBONE|DICT|INTERRES
    91   44  169 1    
    92   45   46 2    
    93   45   47 1    
    94   47   48 1    
    95   47   49 1    
    96   47  170 1    
    97   48  171 1    
    98   48  172 1    
    99   48  173 1    
   100   49   50 am   BACKBONE|DICT|INTERRES
   101   49  174 1    
   102   50   51 2    
   103   50   52 1    
   104   52   53 1    
   105   52   54 1    
   106   52  175 1    
   107   53  176 1    
   108   53  177 1    
   109   53  178 1    
   110   54   55 am   BACKBONE|DICT|INTERRES
   111   54  179 1    
   112   55   56 2    
   113   55   57 1    
   114   57   58 1    
   115   57   59 1    
   116   57  180 1    
   117   58  181 1    
   118   58  182 1    
   119   58  183 1    
   120   59   60 am   BACKBONE|DICT|INTERRES
   121   59  184 1    
   122   60   61 2    
   123   60   62 1    
   124   62   63 1    
   125   62   64 1    
   126   62  185 1    
   127   63  186 1    
   128   63  187 1    
   129   63  188 1    
   130   64   65 am   BACKBONE|DICT|INTERRES
   131   64  189 1    
   132   65   66 2    
   133   67   68 2    
   134   67   69 am   BACKBONE|DICT|INTERRES
   135   69   70 1    
   136   69  190 1    
   137   70   71 1    
   138   70   72 1    
   139   70  191 1    
   140   71  192 1    
   141   71  193 1    
   142   71  194 1    
   143   72   73 2    
   144   72   74 am   BACKBONE|DICT|INTERRES
   145   74   75 1    
   146   74  195 1    
   147   75   76 1    
   148   75   77 1    
   149   75  196 1    
   150   76  197 1    
   151   76  198 1    
   152   76  199 1    
   153   77   78 2    
   154   77   79 am   BACKBONE|DICT|INTERRES
   155   79   80 1    
   156   79  200 1    
   157   80   81 1    
   158   80   82 1    
   159   80  201 1    
   160   81  202 1    
   161   81  203 1    
   162   81  204 1    
   163   82   83 2    
   164   82   84 am   BACKBONE|DICT|INTERRES
   165   84   85 1    
   166   84  205 1    
   167   85   86 1    
   168   85   87 1    
   169   85  206 1    
   170   86  207 1    
   171   86  208 1    
   172   86  209 1    
   173   87   88 2    
   174   87   89 am   BACKBONE|DICT|INTERRES
   175   89   90 1    
   176   89  210 1    
   177   90   91 1    
   178   90   92 1    
   179   90  211 1    
   180   91  212 1    
   181   91  213 1    
   182   91  214 1    
   183   92   93 2    
   184   92   94 am   BACKBONE|DICT|INTERRES
   185   94   95 1    
   186   94  215 1    
   187   95   96 1    
   188   95   97 1    
   189   95  216 1    
   190   96  217 1    
   191   96  218 1    
   192   96  219 1    
   193   97   98 2    
   194   97   99 am   BACKBONE|DICT|INTERRES
   195   99  100 1    
   196   99  220 1    
   197  100  101 1    
   198  100  102 1    
   199  100  221 1    
   200  101  222 1    
   201  101  223 1    
   202  101  224 1    
   203  102  103 2    
   204  102  104 am   BACKBONE|DICT|INTERRES
   205  104  105 1    
   206  104  225 1    
   207  105  106 1    
   208  105  107 1    
   209  105  226 1    
   210  106  227 1    
   211  106  228 1    
   212  106  229 1    
   213  107  108 2    
   214  107  109 am   BACKBONE|DICT|INTERRES
   215  109  110 1    
   216  109  230 1    
   217  110  111 1    
   218  110  112 1    
   219  110  231 1    
   220  111  232 1    
   221  111  233 1    
   222  111  234 1    
   223  112  113 2    
   224  112  114 am   BACKBONE|DICT|INTERRES
   225  114  115 1    
   226  114  235 1    
   227  115  116 1    
   228  115  117 1    
   229  115  236 1    
   230  116  237 1    
   231  116  238 1    
   232  116  239 1    
   233  117  118 2    
   234  117  119 am   BACKBONE|DICT|INTERRES
   235  119  120 1    
   236  119  240 1    
   237  120  121 1    
   238  120  124 1    
   239  120  241 1    
   240  121  122 am   BACKBONE|DICT|INTERRES
   241  121  123 2    
   242  122  242 1    
   243  122  243 1    
   244  124  125 1    
   245  124  244 1    
   246  124  245 1    
   247  125  126 1    
   248  126  246 1    
   249  126  247 1    
@<TRIPOS>SUBSTRUCTURE
     1 UNK         1 GROUP             0       ****    0 ROOT    
