@<TRIPOS>MOLECULE
3R540
247   249    1
SMALL
USER_CHARGES


@<TRIPOS>ATOM
      1 CA         -1.5864  -12.3538  -43.2417 C.3       0 UNK        -0.1800 
      2 C          -0.8913  -11.4982  -44.2902 C.2       0 UNK         0.5000 
      3 O          -0.0918  -10.6310  -43.9383 O.2       0 UNK        -0.5000 
      4 N          -1.1790  -11.7408  -45.5780 N.am      1 UNK        -0.5000 
      5 CA         -0.6631  -10.9614  -46.7157 C.3       1 UNK         0.1400 
      6 C6         -1.4715  -11.2385  -48.0171 C.3       23 UNK        -0.0398 
      7 S7         -0.8094  -12.4918  -49.1733 S.3       23 UNK        -0.2404 
      8 C8         -1.6227  -14.0224  -48.6272 C.3       23 UNK        -0.0205 
      9 C9         -1.3343  -15.1287  -49.6285 C.ar      23 UNK        -0.0193 
     10 C10        -2.2091  -15.3492  -50.6971 C.ar      23 UNK        -0.1150 
     11 C11        -1.9041  -16.2960  -51.6784 C.ar      23 UNK        -0.0193 
     12 C12        -0.7198  -17.0308  -51.5790 C.ar      23 UNK        -0.1150 
     13 C13         0.1539  -16.8333  -50.5063 C.ar      23 UNK        -0.0193 
     14 C14        -0.1615  -15.8848  -49.5282 C.ar      23 UNK        -0.1150 
     15 C15         1.4605  -17.6101  -50.4424 C.3       23 UNK        -0.0205 
     16 S16         1.1927  -19.3808  -50.1273 S.3       23 UNK        -0.2404 
     17 C17         0.8127  -19.3613  -48.3469 C.3       23 UNK        -0.0398 
     18 CA          0.3629  -20.7510  -47.8338 C.3       11 UNK         0.1400 
     19 N           0.6902  -20.9360  -46.4182 N.am      11 UNK        -0.5000 
     20 C           0.6947  -22.1186  -45.7888 C.2       10 UNK         0.5000 
     21 O           0.4776  -23.1908  -46.3513 O.2       10 UNK        -0.5000 
     22 CA          0.9582  -22.1023  -44.2721 C.3       10 UNK         0.1400 
     23 CB          2.4664  -22.1249  -43.9830 C.3       10 UNK        -0.1800 
     24 N           0.3418  -20.9557  -43.6020 N.am      10 UNK        -0.5000 
     25 C          -0.9814  -20.7607  -43.5052 C.2       9 UNK         0.5000 
     26 O          -1.8205  -21.5569  -43.9228 O.2       9 UNK        -0.5000 
     27 CA         -1.4527  -19.4407  -42.8714 C.3       9 UNK         0.1400 
     28 CB         -1.4465  -19.5445  -41.3392 C.3       9 UNK        -0.1800 
     29 N          -0.6597  -18.2853  -43.2939 N.am      9 UNK        -0.5000 
     30 C          -0.5665  -17.8404  -44.5557 C.2       8 UNK         0.5000 
     31 O          -1.1546  -18.3514  -45.5080 O.2       8 UNK        -0.5000 
     32 CA          0.3949  -16.6644  -44.8069 C.3       8 UNK         0.1400 
     33 CB         -0.2239  -15.3371  -44.3477 C.3       8 UNK        -0.1800 
     34 N           1.6882  -16.8597  -44.1526 N.am      8 UNK        -0.5000 
     35 C           2.5307  -17.8640  -44.4355 C.2       7 UNK         0.5000 
     36 O           2.3298  -18.7025  -45.3138 O.2       7 UNK        -0.5000 
     37 CA          3.7802  -17.9809  -43.5497 C.3       7 UNK         0.1400 
     38 CB          4.8671  -16.9972  -44.0075 C.3       7 UNK        -0.1800 
     39 N           3.4626  -17.7583  -42.1385 N.am      7 UNK        -0.5000 
     40 C           2.7495  -18.6101  -41.3865 C.2       6 UNK         0.5000 
     41 O           2.3090  -19.6818  -41.8000 O.2       6 UNK        -0.5000 
     42 CA          2.4433  -18.1761  -39.9416 C.3       6 UNK         0.1400 
     43 CB          3.6204  -18.5123  -39.0142 C.3       6 UNK        -0.1800 
     44 N           2.1313  -16.7511  -39.8333 N.am      6 UNK        -0.5000 
     45 C           1.0562  -16.1660  -40.3793 C.2       5 UNK         0.5000 
     46 O           0.1910  -16.7726  -41.0082 O.2       5 UNK        -0.5000 
     47 CA          0.9603  -14.6363  -40.2476 C.3       5 UNK         0.1400 
     48 CB          0.2515  -14.2463  -38.9427 C.3       5 UNK        -0.1800 
     49 N           2.2605  -13.9645  -40.3177 N.am      5 UNK        -0.5000 
     50 C           3.0803  -14.0074  -41.3752 C.2       4 UNK         0.5000 
     51 O           2.8412  -14.6478  -42.4025 O.2       4 UNK        -0.5000 
     52 CA          4.3724  -13.1807  -41.2768 C.3       4 UNK         0.1400 
     53 CB          5.6091  -14.0248  -41.6220 C.3       4 UNK        -0.1800 
     54 N           4.2815  -12.0609  -42.2033 N.am      4 UNK        -0.5000 
     55 C           3.5425  -10.9639  -42.0063 C.2       3 UNK         0.5000 
     56 O           3.0261  -10.6752  -40.9260 O.2       3 UNK        -0.5000 
     57 CA          3.2880  -10.0698  -43.2325 C.3       3 UNK         0.1400 
     58 CB          4.4689   -9.1195  -43.5094 C.3       3 UNK        -0.1800 
     59 N           2.8905  -10.8359  -44.4218 N.am      3 UNK        -0.5000 
     60 C           3.6272  -11.6373  -45.2086 C.2       2 UNK         0.5000 
     61 O           4.8347  -11.8190  -45.0479 O.2       2 UNK        -0.5000 
     62 CA          2.8993  -12.4140  -46.3287 C.3       2 UNK         0.1400 
     63 CB          3.1119  -13.9297  -46.1637 C.3       2 UNK        -0.1800 
     64 N           1.4599  -12.1549  -46.3762 N.am      2 UNK        -0.5000 
     65 C           0.8737  -11.0619  -46.8854 C.2       1 UNK         0.5000 
     66 O           1.4907  -10.1471  -47.4323 O.2       1 UNK        -0.5000 
     67 C          -1.1340  -21.0097  -48.1143 C.2       11 UNK         0.5000 
     68 O          -1.4669  -21.6604  -49.1040 O.2       11 UNK        -0.5000 
     69 N          -2.0039  -20.5168  -47.2218 N.am      12 UNK        -0.5000 
     70 CA         -3.4599  -20.6457  -47.2987 C.3       12 UNK         0.1400 
     71 CB         -4.0940  -19.5745  -46.3984 C.3       12 UNK        -0.1800 
     72 C          -3.9968  -22.0431  -46.9262 C.2       12 UNK         0.5000 
     73 O          -5.1736  -22.3124  -47.1774 O.2       12 UNK        -0.5000 
     74 N          -3.1562  -22.9000  -46.3306 N.am      13 UNK        -0.5000 
     75 CA         -3.4923  -24.2512  -45.8764 C.3       13 UNK         0.1400 
     76 CB         -2.2529  -24.8912  -45.2342 C.3       13 UNK        -0.1800 
     77 C          -4.0334  -25.1550  -47.0006 C.2       13 UNK         0.5000 
     78 O          -3.5954  -25.0413  -48.1479 O.2       13 UNK        -0.5000 
     79 N          -4.9783  -26.0358  -46.6398 N.am      14 UNK        -0.5000 
     80 CA         -5.6820  -26.9772  -47.5210 C.3       14 UNK         0.1400 
     81 CB         -4.7229  -28.0848  -48.0064 C.3       14 UNK        -0.1800 
     82 C          -6.4207  -26.2697  -48.6776 C.2       14 UNK         0.5000 
     83 O          -6.3577  -26.7243  -49.8207 O.2       14 UNK        -0.5000 
     84 N          -7.0756  -25.1427  -48.3546 N.am      15 UNK        -0.5000 
     85 CA         -7.7657  -24.2298  -49.2738 C.3       15 UNK         0.1400 
     86 CB         -9.0222  -24.8995  -49.8698 C.3       15 UNK        -0.1800 
     87 C          -6.8095  -23.6758  -50.3490 C.2       15 UNK         0.5000 
     88 O          -7.0746  -23.8053  -51.5448 O.2       15 UNK        -0.5000 
     89 N          -5.6836  -23.1145  -49.8873 N.am      16 UNK        -0.5000 
     90 CA         -4.5562  -22.6130  -50.6781 C.3       16 UNK         0.1400 
     91 CB         -4.9576  -21.3338  -51.4400 C.3       16 UNK        -0.1800 
     92 C          -3.9433  -23.6994  -51.5840 C.2       16 UNK         0.5000 
     93 O          -3.7317  -23.4628  -52.7741 O.2       16 UNK        -0.5000 
     94 N          -3.7096  -24.8848  -51.0010 N.am      17 UNK        -0.5000 
     95 CA         -3.2421  -26.1147  -51.6479 C.3       17 UNK         0.1400 
     96 CB         -1.7702  -25.9612  -52.0857 C.3       17 UNK        -0.1800 
     97 C          -4.1702  -26.5575  -52.7993 C.2       17 UNK         0.5000 
     98 O          -3.7029  -26.7972  -53.9124 O.2       17 UNK        -0.5000 
     99 N          -5.4816  -26.6063  -52.5209 N.am      18 UNK        -0.5000 
    100 CA        -6.5767  -26.8225  -53.4752 C.3       18 UNK         0.1400 
    101 CB        -6.5785  -28.2787  -53.9839 C.3       18 UNK        -0.1800 
    102 C         -6.5635  -25.7773  -54.6132 C.2       18 UNK         0.5000 
    103 O         -6.6392  -26.1284  -55.7918 O.2       18 UNK        -0.5000 
    104 N         -6.4142  -24.5078  -54.2135 N.am      19 UNK        -0.5000 
    105 CA        -6.2628  -23.2898  -55.0137 C.3       19 UNK         0.1400 
    106 CB        -7.4896  -23.0625  -55.9189 C.3       19 UNK        -0.1800 
    107 C         -4.9421  -23.1695  -55.8044 C.2       19 UNK         0.5000 
    108 O         -4.7214  -22.1248  -56.4185 O.2       19 UNK        -0.5000 
    109 N         -4.0644  -24.1829  -55.7743 N.am      20 UNK        -0.5000 
    110 CA        -2.8105  -24.2105  -56.5332 C.3       20 UNK         0.1400 
    111 CB        -2.1970  -25.6165  -56.4711 C.3       20 UNK        -0.1800 
    112 C         -1.7764  -23.1571  -56.0908 C.2       20 UNK         0.5000 
    113 O         -0.9367  -22.7703  -56.9050 O.2       20 UNK        -0.5000 
    114 N         -1.8471  -22.7031  -54.8312 N.am      21 UNK        -0.5000 
    115 CA        -0.9613  -21.6704  -54.2912 C.3       21 UNK         0.1400 
    116 CB        -0.9242  -21.7724  -52.7582 C.3       21 UNK        -0.1800 
    117 C         -1.3513  -20.2447  -54.7286 C.2       21 UNK         0.5000 
    118 O         -0.4992  -19.3572  -54.6619 O.2       21 UNK        -0.5000 
    119 N         -2.6072  -20.0414  -55.1547 N.am      22 UNK        -0.5000 
    120 CA        -3.1542  -18.7251  -55.5329 C.3       22 UNK         0.1400 
    121 C         -3.6638  -18.6451  -56.9982 C.2       22 UNK         0.5000 
    122 N         -3.9930  -19.7432  -57.6648 N.am      22 UNK        -0.7600 
    123 O         -3.7445  -17.5537  -57.5554 O.2       22 UNK        -0.5000 
    124 C124       -4.2472  -18.2347  -54.5453 C.3       23 UNK        -0.0398 
    125 S125       -3.6562  -18.1060  -52.8227 S.3       23 UNK        -0.2404 
    126 C126       -2.8186  -16.4930  -52.8766 C.3       23 UNK        -0.0205 
    127 H127       -2.2371  -13.1030  -43.6930 H         1 UNK         0.0600 
    128 H128       -2.1929  -11.7257  -42.5893 H         1 UNK         0.0600 
    129 H129       -0.8462  -12.8661  -42.6283 H         1 UNK         0.0600 
    130 H130       -1.8458  -12.4638  -45.8060 H         1 UNK         0.3000 
    131 H131       -0.8547   -9.9173  -46.4567 H         1 UNK         0.0600 
    132 H132       -2.5132  -11.4677  -47.7884 H         1 UNK         0.0800 
    133 H133       -1.5146  -10.3105  -48.5893 H         1 UNK         0.0800 
    134 H134       -1.2601  -14.3016  -47.6368 H         1 UNK         0.0800 
    135 H135       -2.6984  -13.8625  -48.5392 H         1 UNK         0.0800 
    136 H136       -3.1097  -14.7574  -50.7827 H         1 UNK         0.1150 
    137 H137       -0.4746  -17.7554  -52.3438 H         1 UNK         0.1150 
    138 H138        0.5220  -15.7057  -48.7101 H         1 UNK         0.1150 
    139 H139        1.9816  -17.5002  -51.3945 H         1 UNK         0.0800 
    140 H140        2.1262  -17.1993  -49.6816 H         1 UNK         0.0800 
    141 H141        0.0728  -18.5899  -48.1244 H         1 UNK         0.0800 
    142 H142        1.7287  -19.0530  -47.8423 H         1 UNK         0.0800 
    143 H143        0.9277  -21.5112  -48.3785 H         1 UNK         0.0600 
    144 H144        0.9375  -20.1033  -45.8938 H         1 UNK         0.3000 
    145 H145        0.5202  -23.0101  -43.8518 H         1 UNK         0.0600 
    146 H146        2.9452  -22.9757  -44.4693 H         1 UNK         0.0600 
    147 H147        2.9592  -21.2209  -44.3413 H         1 UNK         0.0600 
    148 H148        2.6608  -22.2110  -42.9139 H         1 UNK         0.0600 
    149 H149        0.9731  -20.2838  -43.1774 H         1 UNK         0.3000 
    150 H150       -2.4815  -19.2692  -43.1941 H         1 UNK         0.0600 
    151 H151       -2.0386  -20.3961  -41.0020 H         1 UNK         0.0600 
    152 H152       -1.8729  -18.6514  -40.8824 H         1 UNK         0.0600 
    153 H153       -0.4361  -19.6705  -40.9490 H         1 UNK         0.0600 
    154 H154       -0.1727  -17.7814  -42.5568 H         1 UNK         0.3000 
    155 H155        0.5730  -16.6017  -45.8826 H         1 UNK         0.0600 
    156 H156       -1.1559  -15.1406  -44.8787 H         1 UNK         0.0600 
    157 H157        0.4456  -14.4997  -44.5385 H         1 UNK         0.0600 
    158 H158       -0.4487  -15.3454  -43.2812 H         1 UNK         0.0600 
    159 H159        1.9471  -16.1985  -43.4277 H         1 UNK         0.3000 
    160 H160        4.1748  -18.9939  -43.6538 H         1 UNK         0.0600 
    161 H161        4.5108  -15.9674  -44.0004 H         1 UNK         0.0600 
    162 H162        5.1855  -17.2210  -45.0263 H         1 UNK         0.0600 
    163 H163        5.7496  -17.0546  -43.3703 H         1 UNK         0.0600 
    164 H164        3.7317  -16.8681  -41.7467 H         1 UNK         0.3000 
    165 H165        1.5708  -18.7391  -39.6035 H         1 UNK         0.0600 
    166 H166        3.3823  -18.2819  -37.9756 H         1 UNK         0.0600 
    167 H167        3.8635  -19.5747  -39.0626 H         1 UNK         0.0600 
    168 H168        4.5195  -17.9570  -39.2844 H         1 UNK         0.0600 
    169 H169        2.7924  -16.1734  -39.3355 H         1 UNK         0.3000 
    170 H170        0.3575  -14.2757  -41.0827 H         1 UNK         0.0600 
    171 H171       -0.7294  -14.7190  -38.8752 H         1 UNK         0.0600 
    172 H172        0.8241  -14.5508  -38.0658 H         1 UNK         0.0600 
    173 H173        0.0957  -13.1688  -38.8857 H         1 UNK         0.0600 
    174 H174        2.5135  -13.3896  -39.5266 H         1 UNK         0.3000 
    175 H175        4.4888  -12.8039  -40.2584 H         1 UNK         0.0600 
    176 H176        6.5258  -13.4566  -41.4634 H         1 UNK         0.0600 
    177 H177        5.6654  -14.9157  -40.9954 H         1 UNK         0.0600 
    178 H178        5.5994  -14.3505  -42.6621 H         1 UNK         0.0600 
    179 H179        4.6421  -12.2128  -43.1401 H         1 UNK         0.3000 
    180 H180        2.4243   -9.4482  -42.9909 H         1 UNK         0.0600 
    181 H181        5.3981   -9.6581  -43.6956 H         1 UNK         0.0600 
    182 H182        4.6431   -8.4641  -42.6553 H         1 UNK         0.0600 
    183 H183        4.2692   -8.4838  -44.3720 H         1 UNK         0.0600 
    184 H184        1.8931  -10.8078  -44.6020 H         1 UNK         0.3000 
    185 H185        3.3401  -12.1070  -47.2793 H         1 UNK         0.0600 
    186 H186        4.1690  -14.1878  -46.2369 H         1 UNK         0.0600 
    187 H187        2.7604  -14.2812  -45.1935 H         1 UNK         0.0600 
    188 H188        2.5885  -14.4930  -46.9366 H         1 UNK         0.0600 
    189 H189        0.8660  -12.8420  -45.9382 H         1 UNK         0.3000 
    190 H190       -1.6465  -19.9453  -46.4605 H         1 UNK         0.3000 
    191 H191       -3.7660  -20.4447  -48.3272 H         1 UNK         0.0600 
    192 H192       -3.7819  -18.5733  -46.6967 H         1 UNK         0.0600 
    193 H193       -5.1828  -19.6052  -46.4558 H         1 UNK         0.0600 
    194 H194       -3.8146  -19.7150  -45.3536 H         1 UNK         0.0600 
    195 H195       -2.2152  -22.5842  -46.1424 H         1 UNK         0.3000 
    196 H196       -4.2638  -24.1471  -45.1111 H         1 UNK         0.0600 
    197 H197       -2.4890  -25.8717  -44.8189 H         1 UNK         0.0600 
    198 H198       -1.8648  -24.2792  -44.4201 H         1 UNK         0.0600 
    199 H199       -1.4531  -25.0294  -45.9625 H         1 UNK         0.0600 
    200 H200       -5.2694  -26.0536  -45.6720 H         1 UNK         0.3000 
    201 H201       -6.4543  -27.4536  -46.9156 H         1 UNK         0.0600 
    202 H202       -4.2473  -28.5890  -47.1653 H         1 UNK         0.0600 
    203 H203       -3.9349  -27.6889  -48.6469 H         1 UNK         0.0600 
    204 H204       -5.2581  -28.8442  -48.5778 H         1 UNK         0.0600 
    205 H205       -7.0329  -24.8378  -47.3923 H         1 UNK         0.3000 
    206 H206       -8.0947  -23.3750  -48.6809 H         1 UNK         0.0600 
    207 H207       -9.6872  -25.2582  -49.0844 H         1 UNK         0.0600 
    208 H208       -9.5883  -24.1920  -50.4768 H         1 UNK         0.0600 
    209 H209       -8.7702  -25.7467  -50.5084 H         1 UNK         0.0600 
    210 H210       -5.5609  -23.0536  -48.8797 H         1 UNK         0.3000 
    211 H211       -3.7775  -22.3441  -49.9676 H         1 UNK         0.0600 
    212 H212       -5.7564  -21.5183  -52.1573 H         1 UNK         0.0600 
    213 H213       -4.1126  -20.9267  -51.9936 H         1 UNK         0.0600 
    214 H214       -5.2967  -20.5581  -50.7538 H         1 UNK         0.0600 
    215 H215       -3.8718  -24.9583  -49.9986 H         1 UNK         0.3000 
    216 H216       -3.2866  -26.9000  -50.8927 H         1 UNK         0.0600 
    217 H217       -1.3779  -26.9026  -52.4720 H         1 UNK         0.0600 
    218 H218       -1.1395  -25.6653  -51.2475 H         1 UNK         0.0600 
    219 H219       -1.6553  -25.2132  -52.8709 H         1 UNK         0.0600 
    220 H220       -5.7731  -26.4336  -51.5604 H         1 UNK         0.3000 
    221 H221       -7.5024  -26.6631  -52.9201 H         1 UNK         0.0600 
    222 H222       -5.6945  -28.5022  -54.5818 H         1 UNK         0.0600 
    223 H223       -6.6093  -28.9845  -53.1539 H         1 UNK         0.0600 
    224 H224       -7.4521  -28.4722  -54.6073 H         1 UNK         0.0600 
    225 H225       -6.3994  -24.3424  -53.2090 H         1 UNK         0.3000 
    226 H226       -6.2413  -22.4754  -54.2894 H         1 UNK         0.0600 
    227 H227       -8.4158  -23.1047  -55.3457 H         1 UNK         0.0600 
    228 H228       -7.4479  -22.0815  -56.3936 H         1 UNK         0.0600 
    229 H229       -7.5512  -23.8045  -56.7151 H         1 UNK         0.0600 
    230 H230       -4.2682  -24.9924  -55.2015 H         1 UNK         0.3000 
    231 H231       -3.0597  -24.0016  -57.5756 H         1 UNK         0.0600 
    232 H232       -1.8339  -25.8509  -55.4701 H         1 UNK         0.0600 
    233 H233       -1.3482  -25.7000  -57.1508 H         1 UNK         0.0600 
    234 H234       -2.9203  -26.3806  -56.7566 H         1 UNK         0.0600 
    235 H235       -2.5685  -23.0618  -54.2080 H         1 UNK         0.3000 
    236 H236        0.0505  -21.8589  -54.6562 H         1 UNK         0.0600 
    237 H237       -0.6717  -22.7805  -52.4296 H         1 UNK         0.0600 
    238 H238       -0.1750  -21.0976  -52.3431 H         1 UNK         0.0600 
    239 H239       -1.8798  -21.5024  -52.3113 H         1 UNK         0.0600 
    240 H240       -3.2354  -20.8301  -55.2224 H         1 UNK         0.3000 
    241 H241       -2.3506  -17.9886  -55.5003 H         1 UNK         0.0600 
    242 H242       -4.3054  -19.6562  -58.6185 H         1 UNK         0.3800 
    243 H243       -4.0615  -20.6488  -57.2057 H         1 UNK         0.3800 
    244 H244       -4.6374  -17.2612  -54.8481 H         1 UNK         0.0800 
    245 H245       -5.0969  -18.9193  -54.5588 H         1 UNK         0.0800 
    246 H246       -3.5677  -15.7016  -52.9310 H         1 UNK         0.0800 
    247 H247       -2.2196  -16.4146  -53.7842 H         1 UNK         0.0800 
@<TRIPOS>BOND
     1    1    2 1    
     2    1  127 1    
     3    1  128 1    
     4    1  129 1    
     5    2    3 2    
     6    2    4 am   BACKBONE|DICT|INTERRES
     7    4    5 1    
     8    4  130 1    
     9    5    6 1    
    10    5   65 1    
    11    5  131 1    
    12    6    7 1    
    13    6  132 1    
    14    6  133 1    
    15    7    8 1    
    16    8    9 1    
    17    8  134 1    
    18    8  135 1    
    19    9   10 ar   
    20    9   14 ar   
    21   10   11 ar   
    22   10  136 1    
    23   11   12 ar   
    24   11  126 1    
    25   12   13 ar   
    26   12  137 1    
    27   13   14 ar   
    28   13   15 1    
    29   14  138 1    
    30   15   16 1    
    31   15  139 1    
    32   15  140 1    
    33   16   17 1    
    34   17   18 1    
    35   17  141 1    
    36   17  142 1    
    37   18   19 1    
    38   18   67 1    
    39   18  143 1    
    40   19   20 am   BACKBONE|DICT|INTERRES
    41   19  144 1    
    42   20   21 2    
    43   20   22 1    
    44   22   23 1    
    45   22   24 1    
    46   22  145 1    
    47   23  146 1    
    48   23  147 1    
    49   23  148 1    
    50   24   25 am   BACKBONE|DICT|INTERRES
    51   24  149 1    
    52   25   26 2    
    53   25   27 1    
    54   27   28 1    
    55   27   29 1    
    56   27  150 1    
    57   28  151 1    
    58   28  152 1    
    59   28  153 1    
    60   29   30 am   BACKBONE|DICT|INTERRES
    61   29  154 1    
    62   30   31 2    
    63   30   32 1    
    64   32   33 1    
    65   32   34 1    
    66   32  155 1    
    67   33  156 1    
    68   33  157 1    
    69   33  158 1    
    70   34   35 am   BACKBONE|DICT|INTERRES
    71   34  159 1    
    72   35   36 2    
    73   35   37 1    
    74   37   38 1    
    75   37   39 1    
    76   37  160 1    
    77   38  161 1    
    78   38  162 1    
    79   38  163 1    
    80   39   40 am   BACKBONE|DICT|INTERRES
    81   39  164 1    
    82   40   41 2    
    83   40   42 1    
    84   42   43 1    
    85   42   44 1    
    86   42  165 1    
    87   43  166 1    
    88   43  167 1    
    89   43  168 1    
    90   44   45 am   BACKBONE|DICT|INTERRES
    91   44  169 1    
    92   45   46 2    
    93   45   47 1    
    94   47   48 1    
    95   47   49 1    
    96   47  170 1    
    97   48  171 1    
    98   48  172 1    
    99   48  173 1    
   100   49   50 am   BACKBONE|DICT|INTERRES
   101   49  174 1    
   102   50   51 2    
   103   50   52 1    
   104   52   53 1    
   105   52   54 1    
   106   52  175 1    
   107   53  176 1    
   108   53  177 1    
   109   53  178 1    
   110   54   55 am   BACKBONE|DICT|INTERRES
   111   54  179 1    
   112   55   56 2    
   113   55   57 1    
   114   57   58 1    
   115   57   59 1    
   116   57  180 1    
   117   58  181 1    
   118   58  182 1    
   119   58  183 1    
   120   59   60 am   BACKBONE|DICT|INTERRES
   121   59  184 1    
   122   60   61 2    
   123   60   62 1    
   124   62   63 1    
   125   62   64 1    
   126   62  185 1    
   127   63  186 1    
   128   63  187 1    
   129   63  188 1    
   130   64   65 am   BACKBONE|DICT|INTERRES
   131   64  189 1    
   132   65   66 2    
   133   67   68 2    
   134   67   69 am   BACKBONE|DICT|INTERRES
   135   69   70 1    
   136   69  190 1    
   137   70   71 1    
   138   70   72 1    
   139   70  191 1    
   140   71  192 1    
   141   71  193 1    
   142   71  194 1    
   143   72   73 2    
   144   72   74 am   BACKBONE|DICT|INTERRES
   145   74   75 1    
   146   74  195 1    
   147   75   76 1    
   148   75   77 1    
   149   75  196 1    
   150   76  197 1    
   151   76  198 1    
   152   76  199 1    
   153   77   78 2    
   154   77   79 am   BACKBONE|DICT|INTERRES
   155   79   80 1    
   156   79  200 1    
   157   80   81 1    
   158   80   82 1    
   159   80  201 1    
   160   81  202 1    
   161   81  203 1    
   162   81  204 1    
   163   82   83 2    
   164   82   84 am   BACKBONE|DICT|INTERRES
   165   84   85 1    
   166   84  205 1    
   167   85   86 1    
   168   85   87 1    
   169   85  206 1    
   170   86  207 1    
   171   86  208 1    
   172   86  209 1    
   173   87   88 2    
   174   87   89 am   BACKBONE|DICT|INTERRES
   175   89   90 1    
   176   89  210 1    
   177   90   91 1    
   178   90   92 1    
   179   90  211 1    
   180   91  212 1    
   181   91  213 1    
   182   91  214 1    
   183   92   93 2    
   184   92   94 am   BACKBONE|DICT|INTERRES
   185   94   95 1    
   186   94  215 1    
   187   95   96 1    
   188   95   97 1    
   189   95  216 1    
   190   96  217 1    
   191   96  218 1    
   192   96  219 1    
   193   97   98 2    
   194   97   99 am   BACKBONE|DICT|INTERRES
   195   99  100 1    
   196   99  220 1    
   197  100  101 1    
   198  100  102 1    
   199  100  221 1    
   200  101  222 1    
   201  101  223 1    
   202  101  224 1    
   203  102  103 2    
   204  102  104 am   BACKBONE|DICT|INTERRES
   205  104  105 1    
   206  104  225 1    
   207  105  106 1    
   208  105  107 1    
   209  105  226 1    
   210  106  227 1    
   211  106  228 1    
   212  106  229 1    
   213  107  108 2    
   214  107  109 am   BACKBONE|DICT|INTERRES
   215  109  110 1    
   216  109  230 1    
   217  110  111 1    
   218  110  112 1    
   219  110  231 1    
   220  111  232 1    
   221  111  233 1    
   222  111  234 1    
   223  112  113 2    
   224  112  114 am   BACKBONE|DICT|INTERRES
   225  114  115 1    
   226  114  235 1    
   227  115  116 1    
   228  115  117 1    
   229  115  236 1    
   230  116  237 1    
   231  116  238 1    
   232  116  239 1    
   233  117  118 2    
   234  117  119 am   BACKBONE|DICT|INTERRES
   235  119  120 1    
   236  119  240 1    
   237  120  121 1    
   238  120  124 1    
   239  120  241 1    
   240  121  122 am   BACKBONE|DICT|INTERRES
   241  121  123 2    
   242  122  242 1    
   243  122  243 1    
   244  124  125 1    
   245  124  244 1    
   246  124  245 1    
   247  125  126 1    
   248  126  246 1    
   249  126  247 1    
@<TRIPOS>SUBSTRUCTURE
     1 UNK         1 GROUP             0       ****    0 ROOT    
