@<TRIPOS>MOLECULE
3R540
247   249    1
SMALL
USER_CHARGES


@<TRIPOS>ATOM
      1 CA         -0.3331  -10.0303  -46.9150 C.3       0 UNK        -0.1800 
      2 C           0.2190  -11.3086  -46.3020 C.2       0 UNK         0.5000 
      3 O           0.1736  -11.4699  -45.0825 O.2       0 UNK        -0.5000 
      4 N           0.7175  -12.2258  -47.1434 N.am      1 UNK        -0.5000 
      5 CA          1.3172  -13.5132  -46.7592 C.3       1 UNK         0.1400 
      6 C6          1.8916  -14.2790  -47.9828 C.3       23 UNK        -0.0398 
      7 S7          0.6780  -14.5903  -49.3154 S.3       23 UNK        -0.2404 
      8 C8          0.1343  -16.2871  -48.9347 C.3       23 UNK        -0.0205 
      9 C9          0.8192  -17.3284  -49.8050 C.ar      23 UNK        -0.0193 
     10 C10         0.4023  -17.5037  -51.1277 C.ar      23 UNK        -0.1150 
     11 C11         0.9916  -18.4802  -51.9334 C.ar      23 UNK        -0.0193 
     12 C12         2.0009  -19.2888  -51.4073 C.ar      23 UNK        -0.1150 
     13 C13         2.4283  -19.1258  -50.0873 C.ar      23 UNK        -0.0193 
     14 C14         1.8363  -18.1397  -49.2888 C.ar      23 UNK        -0.1150 
     15 C15         3.5428  -20.0118  -49.5498 C.3       23 UNK        -0.0205 
     16 S16         2.9259  -21.6422  -49.0173 S.3       23 UNK        -0.2404 
     17 C17         2.3655  -21.2535  -47.3295 C.3       23 UNK        -0.0398 
     18 CA          1.0961  -22.0129  -46.8779 C.3       11 UNK         0.1400 
     19 N           0.9277  -21.9208  -45.4242 N.am      11 UNK        -0.5000 
     20 C           0.0127  -22.5800  -44.7010 C.2       10 UNK         0.5000 
     21 O          -0.7581  -23.4134  -45.1731 O.2       10 UNK        -0.5000 
     22 CA         -0.0959  -22.2076  -43.2097 C.3       10 UNK         0.1400 
     23 CB          0.9375  -22.9760  -42.3735 C.3       10 UNK        -0.1800 
     24 N           0.0487  -20.7684  -42.9797 N.am      10 UNK        -0.5000 
     25 C          -0.8103  -19.8419  -43.4305 C.2       9 UNK         0.5000 
     26 O          -1.8561  -20.1160  -44.0180 O.2       9 UNK        -0.5000 
     27 CA         -0.4046  -18.3667  -43.2552 C.3       9 UNK         0.1400 
     28 CB         -0.7331  -17.8581  -41.8446 C.3       9 UNK        -0.1800 
     29 N           1.0123  -18.1500  -43.5403 N.am      9 UNK        -0.5000 
     30 C           1.5808  -18.3120  -44.7422 C.2       8 UNK         0.5000 
     31 O           0.9488  -18.5917  -45.7602 O.2       8 UNK        -0.5000 
     32 CA          3.1175  -18.2233  -44.8057 C.3       8 UNK         0.1400 
     33 CB          3.6011  -16.7830  -45.0123 C.3       8 UNK        -0.1800 
     34 N           3.7460  -18.7780  -43.6081 N.am      8 UNK        -0.5000 
     35 C           3.8217  -20.0867  -43.3349 C.2       7 UNK         0.5000 
     36 O           3.3939  -20.9626  -44.0855 O.2       7 UNK        -0.5000 
     37 CA          4.4472  -20.4776  -41.9829 C.3       7 UNK         0.1400 
     38 CB          5.9773  -20.5457  -42.0951 C.3       7 UNK        -0.1800 
     39 N           4.0802  -19.5558  -40.9061 N.am      7 UNK        -0.5000 
     40 C           2.8422  -19.4375  -40.4063 C.2       6 UNK         0.5000 
     41 O           1.8909  -20.1259  -40.7745 O.2       6 UNK        -0.5000 
     42 CA          2.6186  -18.3283  -39.3586 C.3       6 UNK         0.1400 
     43 CB          2.9494  -18.8437  -37.9502 C.3       6 UNK        -0.1800 
     44 N           3.3783  -17.0984  -39.6178 N.am      6 UNK        -0.5000 
     45 C           3.2868  -16.3666  -40.7363 C.2       5 UNK         0.5000 
     46 O           2.5690  -16.6780  -41.6860 O.2       5 UNK        -0.5000 
     47 CA          4.1486  -15.0899  -40.8092 C.3       5 UNK         0.1400 
     48 CB          5.6439  -15.4486  -40.7695 C.3       5 UNK        -0.1800 
     49 N           3.9047  -14.3172  -42.0332 N.am      5 UNK        -0.5000 
     50 C           2.8386  -13.5694  -42.3564 C.2       4 UNK         0.5000 
     51 O           2.7573  -13.0243  -43.4576 O.2       4 UNK        -0.5000 
     52 CA          1.7243  -13.3154  -41.3233 C.3       4 UNK         0.1400 
     53 CB          2.0871  -12.1169  -40.4236 C.3       4 UNK        -0.1800 
     54 N           0.4722  -13.0465  -42.0259 N.am      4 UNK        -0.5000 
     55 C          -0.7462  -13.0894  -41.4735 C.2       3 UNK         0.5000 
     56 O          -0.9523  -13.3851  -40.2957 O.2       3 UNK        -0.5000 
     57 CA         -1.9391  -12.7464  -42.3806 C.3       3 UNK         0.1400 
     58 CB         -2.1085  -11.2240  -42.5062 C.3       3 UNK        -0.1800 
     59 N          -1.8013  -13.3370  -43.7108 N.am      3 UNK        -0.5000 
     60 C          -2.1860  -14.5845  -44.0189 C.2       2 UNK         0.5000 
     61 O          -2.7136  -15.3521  -43.2139 O.2       2 UNK        -0.5000 
     62 CA         -1.9692  -15.0625  -45.4688 C.3       2 UNK         0.1400 
     63 CB         -3.2775  -14.9855  -46.2698 C.3       2 UNK        -0.1800 
     64 N          -0.9352  -14.3176  -46.1826 N.am      2 UNK        -0.5000 
     65 C           0.3760  -14.4086  -45.9234 C.2       1 UNK         0.5000 
     66 O           0.8434  -15.1440  -45.0584 O.2       1 UNK        -0.5000 
     67 C          -0.1737  -21.5507  -47.6293 C.2       11 UNK         0.5000 
     68 O          -0.6503  -22.2634  -48.5140 O.2       11 UNK        -0.5000 
     69 N          -0.7404  -20.4072  -47.2142 N.am      12 UNK        -0.5000 
     70 CA         -2.0058  -19.8743  -47.7221 C.3       12 UNK         0.1400 
     71 CB         -2.2764  -18.4937  -47.1069 C.3       12 UNK        -0.1800 
     72 C          -3.1948  -20.8133  -47.4552 C.2       12 UNK         0.5000 
     73 O          -4.0168  -21.0143  -48.3488 O.2       12 UNK        -0.5000 
     74 N          -3.2520  -21.3882  -46.2456 N.am      13 UNK        -0.5000 
     75 CA         -4.2611  -22.3648  -45.8359 C.3       13 UNK         0.1400 
     76 CB         -4.1563  -22.6208  -44.3254 C.3       13 UNK        -0.1800 
     77 C          -4.1690  -23.6821  -46.6270 C.2       13 UNK         0.5000 
     78 O          -5.2018  -24.2049  -47.0442 O.2       13 UNK        -0.5000 
     79 N          -2.9430  -24.1697  -46.8656 N.am      14 UNK        -0.5000 
     80 CA         -2.6568  -25.3522  -47.6835 C.3       14 UNK         0.1400 
     81 CB         -1.1713  -25.7212  -47.5542 C.3       14 UNK        -0.1800 
     82 C          -3.0489  -25.1684  -49.1624 C.2       14 UNK         0.5000 
     83 O          -3.5441  -26.1101  -49.7820 O.2       14 UNK        -0.5000 
     84 N          -2.8657  -23.9484  -49.6848 N.am      15 UNK        -0.5000 
     85 CA         -3.3162  -23.5264  -51.0134 C.3       15 UNK         0.1400 
     86 CB         -2.4788  -22.3157  -51.4521 C.3       15 UNK        -0.1800 
     87 C          -4.8226  -23.1899  -51.0744 C.2       15 UNK         0.5000 
     88 O          -5.3227  -22.8835  -52.1581 O.2       15 UNK        -0.5000 
     89 N          -5.5076  -23.2117  -49.9201 N.am      16 UNK        -0.5000 
     90 CA         -6.9144  -22.8643  -49.6991 C.3       16 UNK         0.1400 
     91 CB         -7.8363  -23.9449  -50.2973 C.3       16 UNK        -0.1800 
     92 C          -7.2515  -21.4299  -50.1570 C.2       16 UNK         0.5000 
     93 O          -8.2710  -21.2074  -50.8113 O.2       16 UNK        -0.5000 
     94 N          -6.3594  -20.4895  -49.8101 N.am      17 UNK        -0.5000 
     95 CA         -6.3593  -19.0751  -50.1952 C.3       17 UNK         0.1400 
     96 CB         -7.5725  -18.3326  -49.5968 C.3       17 UNK        -0.1800 
     97 C          -6.2076  -18.8837  -51.7194 C.2       17 UNK         0.5000 
     98 O          -6.8791  -18.0347  -52.3080 O.2       17 UNK        -0.5000 
     99 N          -5.3126  -19.6872  -52.3145 N.am      18 UNK        -0.5000 
    100 CA        -4.9829  -19.7649  -53.7403 C.3       18 UNK         0.1400 
    101 CB        -4.3520  -18.4466  -54.2372 C.3       18 UNK        -0.1800 
    102 C         -6.1920  -20.2151  -54.5845 C.2       18 UNK         0.5000 
    103 O         -6.6301  -19.4943  -55.4849 O.2       18 UNK        -0.5000 
    104 N         -6.7299  -21.3982  -54.2601 N.am      19 UNK        -0.5000 
    105 CA        -7.8970  -22.0090  -54.9007 C.3       19 UNK         0.1400 
    106 CB        -8.4556  -23.1045  -53.9784 C.3       19 UNK        -0.1800 
    107 C         -7.5788  -22.5421  -56.3135 C.2       19 UNK         0.5000 
    108 O         -7.4776  -23.7537  -56.5125 O.2       19 UNK        -0.5000 
    109 N         -7.3986  -21.6110  -57.2606 N.am      20 UNK        -0.5000 
    110 CA        -7.0795  -21.8003  -58.6842 C.3       20 UNK         0.1400 
    111 CB        -8.1692  -22.6281  -59.3966 C.3       20 UNK        -0.1800 
    112 C         -5.6602  -22.3461  -58.9589 C.2       20 UNK         0.5000 
    113 O         -5.3207  -22.6015  -60.1155 O.2       20 UNK        -0.5000 
    114 N         -4.8447  -22.4797  -57.9101 N.am      21 UNK        -0.5000 
    115 CA        -3.4505  -22.8960  -57.9272 C.3       21 UNK         0.1400 
    116 CB        -3.3508  -24.4238  -58.0842 C.3       21 UNK        -0.1800 
    117 C         -2.8201  -22.4336  -56.6078 C.2       21 UNK         0.5000 
    118 O         -3.5324  -22.2940  -55.6101 O.2       21 UNK        -0.5000 
    119 N         -1.5055  -22.2025  -56.6229 N.am      22 UNK        -0.5000 
    120 CA        -0.7260  -21.7357  -55.4658 C.3       22 UNK         0.1400 
    121 C          0.7600  -22.2031  -55.5138 C.2       22 UNK         0.5000 
    122 N          1.0937  -23.2567  -56.2510 N.am      22 UNK        -0.7600 
    123 O          1.6312  -21.6165  -54.8794 O.2       22 UNK        -0.5000 
    124 C124       -0.9105  -20.2083  -55.2254 C.3       23 UNK        -0.0398 
    125 S125       -0.8981  -19.7745  -53.4543 S.3       23 UNK        -0.2404 
    126 C126        0.5405  -18.6694  -53.3706 C.3       23 UNK        -0.0205 
    127 H127        0.2101   -9.1667  -46.5315 H         1 UNK         0.0600 
    128 H128       -1.3855   -9.9149  -46.6557 H         1 UNK         0.0600 
    129 H129       -0.2480  -10.0315  -48.0019 H         1 UNK         0.0600 
    130 H130        0.7015  -12.0412  -48.1367 H         1 UNK         0.3000 
    131 H131        2.1600  -13.2737  -46.1079 H         1 UNK         0.0600 
    132 H132        2.3482  -15.2214  -47.6811 H         1 UNK         0.0800 
    133 H133        2.7051  -13.6955  -48.4156 H         1 UNK         0.0800 
    134 H134       -0.9439  -16.3463  -49.0897 H         1 UNK         0.0800 
    135 H135        0.3020  -16.5107  -47.8810 H         1 UNK         0.0800 
    136 H136       -0.3868  -16.8828  -51.5285 H         1 UNK         0.1150 
    137 H137        2.4523  -20.0517  -52.0267 H         1 UNK         0.1150 
    138 H138        2.1582  -18.0081  -48.2655 H         1 UNK         0.1150 
    139 H139        4.2896  -20.1621  -50.3309 H         1 UNK         0.0800 
    140 H140        4.0658  -19.5209  -48.7274 H         1 UNK         0.0800 
    141 H141        2.2185  -20.1803  -47.2375 H         1 UNK         0.0800 
    142 H142        3.1965  -21.4991  -46.6675 H         1 UNK         0.0800 
    143 H143        1.2403  -23.0709  -47.1067 H         1 UNK         0.0600 
    144 H144        1.5672  -21.3039  -44.9360 H         1 UNK         0.3000 
    145 H145       -1.0899  -22.5004  -42.8665 H         1 UNK         0.0600 
    146 H146        0.8196  -22.7641  -41.3106 H         1 UNK         0.0600 
    147 H147        0.8227  -24.0525  -42.5057 H         1 UNK         0.0600 
    148 H148        1.9586  -22.7184  -42.6536 H         1 UNK         0.0600 
    149 H149        0.8550  -20.4690  -42.4405 H         1 UNK         0.3000 
    150 H150       -0.9814  -17.7774  -43.9689 H         1 UNK         0.0600 
    151 H151       -1.8009  -17.9448  -41.6407 H         1 UNK         0.0600 
    152 H152       -0.4661  -16.8063  -41.7346 H         1 UNK         0.0600 
    153 H153       -0.2042  -18.4216  -41.0768 H         1 UNK         0.0600 
    154 H154        1.5940  -17.8239  -42.7729 H         1 UNK         0.3000 
    155 H155        3.4497  -18.8077  -45.6657 H         1 UNK         0.0600 
    156 H156        3.2643  -16.1244  -44.2124 H         1 UNK         0.0600 
    157 H157        3.2167  -16.3822  -45.9480 H         1 UNK         0.0600 
    158 H158        4.6887  -16.7306  -45.0587 H         1 UNK         0.0600 
    159 H159        4.0488  -18.1157  -42.9095 H         1 UNK         0.3000 
    160 H160        4.0796  -21.4723  -41.7217 H         1 UNK         0.0600 
    161 H161        6.4254  -20.8948  -41.1646 H         1 UNK         0.0600 
    162 H162        6.4093  -19.5726  -42.3320 H         1 UNK         0.0600 
    163 H163        6.2800  -21.2396  -42.8805 H         1 UNK         0.0600 
    164 H164        4.8066  -18.9540  -40.5472 H         1 UNK         0.3000 
    165 H165        1.5587  -18.0677  -39.3825 H         1 UNK         0.0600 
    166 H166        2.6969  -18.1045  -37.1898 H         1 UNK         0.0600 
    167 H167        2.3833  -19.7479  -37.7223 H         1 UNK         0.0600 
    168 H168        4.0082  -19.0844  -37.8472 H         1 UNK         0.0600 
    169 H169        3.9894  -16.7875  -38.8762 H         1 UNK         0.3000 
    170 H170        3.9175  -14.4722  -39.9405 H         1 UNK         0.0600 
    171 H171        5.9098  -15.9613  -39.8444 H         1 UNK         0.0600 
    172 H172        5.9245  -16.0998  -41.5986 H         1 UNK         0.0600 
    173 H173        6.2641  -14.5535  -40.8247 H         1 UNK         0.0600 
    174 H174        4.6043  -14.4390  -42.7486 H         1 UNK         0.3000 
    175 H175        1.5773  -14.2023  -40.7081 H         1 UNK         0.0600 
    176 H176        2.1596  -11.1944  -41.0011 H         1 UNK         0.0600 
    177 H177        1.3434  -11.9630  -39.6418 H         1 UNK         0.0600 
    178 H178        3.0463  -12.2661  -39.9278 H         1 UNK         0.0600 
    179 H179        0.5800  -12.8195  -43.0087 H         1 UNK         0.3000 
    180 H180       -2.8423  -13.1375  -41.9070 H         1 UNK         0.0600 
    181 H181       -1.2274  -10.7501  -42.9393 H         1 UNK         0.0600 
    182 H182       -2.2740  -10.7706  -41.5282 H         1 UNK         0.0600 
    183 H183       -2.9659  -10.9724  -43.1306 H         1 UNK         0.0600 
    184 H184       -1.3184  -12.7797  -44.4062 H         1 UNK         0.3000 
    185 H185       -1.6604  -16.1076  -45.4256 H         1 UNK         0.0600 
    186 H186       -4.0619  -15.5748  -45.7932 H         1 UNK         0.0600 
    187 H187       -3.6394  -13.9598  -46.3511 H         1 UNK         0.0600 
    188 H188       -3.1464  -15.3773  -47.2787 H         1 UNK         0.0600 
    189 H189       -1.2400  -13.6842  -46.9072 H         1 UNK         0.3000 
    190 H190       -0.2602  -19.8504  -46.5121 H         1 UNK         0.3000 
    191 H191       -1.9006  -19.7552  -48.8026 H         1 UNK         0.0600 
    192 H192       -2.5116  -18.5582  -46.0448 H         1 UNK         0.0600 
    193 H193       -3.1195  -18.0079  -47.5990 H         1 UNK         0.0600 
    194 H194       -1.4142  -17.8404  -47.2084 H         1 UNK         0.0600 
    195 H195       -2.5699  -21.1143  -45.5443 H         1 UNK         0.3000 
    196 H196       -5.2419  -21.9280  -46.0352 H         1 UNK         0.0600 
    197 H197       -4.9348  -23.3079  -43.9919 H         1 UNK         0.0600 
    198 H198       -4.2734  -21.6963  -43.7598 H         1 UNK         0.0600 
    199 H199       -3.1958  -23.0585  -44.0551 H         1 UNK         0.0600 
    200 H200       -2.1433  -23.7121  -46.4349 H         1 UNK         0.3000 
    201 H201       -3.2471  -26.1806  -47.2865 H         1 UNK         0.0600 
    202 H202       -0.9067  -25.9315  -46.5178 H         1 UNK         0.0600 
    203 H203       -0.5240  -24.9183  -47.9076 H         1 UNK         0.0600 
    204 H204       -0.9377  -26.6129  -48.1371 H         1 UNK         0.0600 
    205 H205       -2.3897  -23.2483  -49.1248 H         1 UNK         0.3000 
    206 H206       -3.1358  -24.3378  -51.7212 H         1 UNK         0.0600 
    207 H207       -2.7371  -22.0107  -52.4666 H         1 UNK         0.0600 
    208 H208       -2.6347  -21.4571  -50.7979 H         1 UNK         0.0600 
    209 H209       -1.4135  -22.5476  -51.4473 H         1 UNK         0.0600 
    210 H210       -4.9984  -23.4609  -49.0818 H         1 UNK         0.3000 
    211 H211       -7.0662  -22.8710  -48.6190 H         1 UNK         0.0600 
    212 H212       -7.6979  -24.0447  -51.3721 H         1 UNK         0.0600 
    213 H213       -8.8869  -23.7143  -50.1175 H         1 UNK         0.0600 
    214 H214       -7.6372  -24.9174  -49.8472 H         1 UNK         0.0600 
    215 H215       -5.5441  -20.7861  -49.2735 H         1 UNK         0.3000 
    216 H216       -5.4628  -18.6433  -49.7477 H         1 UNK         0.0600 
    217 H217       -7.4926  -17.2581  -49.7650 H         1 UNK         0.0600 
    218 H218       -7.6371  -18.4878  -48.5199 H         1 UNK         0.0600 
    219 H219       -8.5120  -18.6622  -50.0410 H         1 UNK         0.0600 
    220 H220       -4.8691  -20.3860  -51.7366 H         1 UNK         0.3000 
    221 H221       -4.2253  -20.5426  -53.8327 H         1 UNK         0.0600 
    222 H222       -5.0618  -17.6194  -54.2200 H         1 UNK         0.0600 
    223 H223       -3.4956  -18.1637  -53.6257 H         1 UNK         0.0600 
    224 H224       -3.9994  -18.5503  -55.2637 H         1 UNK         0.0600 
    225 H225       -6.2888  -21.9405  -53.5202 H         1 UNK         0.3000 
    226 H226       -8.6711  -21.2460  -55.0061 H         1 UNK         0.0600 
    227 H227       -9.3182  -23.5965  -54.4293 H         1 UNK         0.0600 
    228 H228       -7.7089  -23.8715  -53.7692 H         1 UNK         0.0600 
    229 H229       -8.7857  -22.6839  -53.0292 H         1 UNK         0.0600 
    230 H230       -7.4040  -20.6455  -56.9442 H         1 UNK         0.3000 
    231 H231       -7.0969  -20.8007  -59.1203 H         1 UNK         0.0600 
    232 H232       -9.1623  -22.2209  -59.2067 H         1 UNK         0.0600 
    233 H233       -8.1650  -23.6698  -59.0751 H         1 UNK         0.0600 
    234 H234       -8.0197  -22.6230  -60.4768 H         1 UNK         0.0600 
    235 H235       -5.1848  -22.2382  -56.9876 H         1 UNK         0.3000 
    236 H236       -2.9390  -22.4026  -58.7562 H         1 UNK         0.0600 
    237 H237       -2.3111  -24.7525  -58.0721 H         1 UNK         0.0600 
    238 H238       -3.8705  -24.9428  -57.2776 H         1 UNK         0.0600 
    239 H239       -3.7836  -24.7557  -59.0279 H         1 UNK         0.0600 
    240 H240       -0.9848  -22.3199  -57.4810 H         1 UNK         0.3000 
    241 H241       -1.1282  -22.2616  -54.5974 H         1 UNK         0.0600 
    242 H242        2.0587  -23.5484  -56.2742 H         1 UNK         0.3800 
    243 H243        0.3998  -23.8049  -56.7333 H         1 UNK         0.3800 
    244 H244       -0.1683  -19.6291  -55.7768 H         1 UNK         0.0800 
    245 H245       -1.8757  -19.8754  -55.6075 H         1 UNK         0.0800 
    246 H246        1.3596  -19.0801  -53.9626 H         1 UNK         0.0800 
    247 H247        0.2866  -17.7072  -53.8177 H         1 UNK         0.0800 
@<TRIPOS>BOND
     1    1    2 1    
     2    1  127 1    
     3    1  128 1    
     4    1  129 1    
     5    2    3 2    
     6    2    4 am   BACKBONE|DICT|INTERRES
     7    4    5 1    
     8    4  130 1    
     9    5    6 1    
    10    5   65 1    
    11    5  131 1    
    12    6    7 1    
    13    6  132 1    
    14    6  133 1    
    15    7    8 1    
    16    8    9 1    
    17    8  134 1    
    18    8  135 1    
    19    9   10 ar   
    20    9   14 ar   
    21   10   11 ar   
    22   10  136 1    
    23   11   12 ar   
    24   11  126 1    
    25   12   13 ar   
    26   12  137 1    
    27   13   14 ar   
    28   13   15 1    
    29   14  138 1    
    30   15   16 1    
    31   15  139 1    
    32   15  140 1    
    33   16   17 1    
    34   17   18 1    
    35   17  141 1    
    36   17  142 1    
    37   18   19 1    
    38   18   67 1    
    39   18  143 1    
    40   19   20 am   BACKBONE|DICT|INTERRES
    41   19  144 1    
    42   20   21 2    
    43   20   22 1    
    44   22   23 1    
    45   22   24 1    
    46   22  145 1    
    47   23  146 1    
    48   23  147 1    
    49   23  148 1    
    50   24   25 am   BACKBONE|DICT|INTERRES
    51   24  149 1    
    52   25   26 2    
    53   25   27 1    
    54   27   28 1    
    55   27   29 1    
    56   27  150 1    
    57   28  151 1    
    58   28  152 1    
    59   28  153 1    
    60   29   30 am   BACKBONE|DICT|INTERRES
    61   29  154 1    
    62   30   31 2    
    63   30   32 1    
    64   32   33 1    
    65   32   34 1    
    66   32  155 1    
    67   33  156 1    
    68   33  157 1    
    69   33  158 1    
    70   34   35 am   BACKBONE|DICT|INTERRES
    71   34  159 1    
    72   35   36 2    
    73   35   37 1    
    74   37   38 1    
    75   37   39 1    
    76   37  160 1    
    77   38  161 1    
    78   38  162 1    
    79   38  163 1    
    80   39   40 am   BACKBONE|DICT|INTERRES
    81   39  164 1    
    82   40   41 2    
    83   40   42 1    
    84   42   43 1    
    85   42   44 1    
    86   42  165 1    
    87   43  166 1    
    88   43  167 1    
    89   43  168 1    
    90   44   45 am   BACKBONE|DICT|INTERRES
    91   44  169 1    
    92   45   46 2    
    93   45   47 1    
    94   47   48 1    
    95   47   49 1    
    96   47  170 1    
    97   48  171 1    
    98   48  172 1    
    99   48  173 1    
   100   49   50 am   BACKBONE|DICT|INTERRES
   101   49  174 1    
   102   50   51 2    
   103   50   52 1    
   104   52   53 1    
   105   52   54 1    
   106   52  175 1    
   107   53  176 1    
   108   53  177 1    
   109   53  178 1    
   110   54   55 am   BACKBONE|DICT|INTERRES
   111   54  179 1    
   112   55   56 2    
   113   55   57 1    
   114   57   58 1    
   115   57   59 1    
   116   57  180 1    
   117   58  181 1    
   118   58  182 1    
   119   58  183 1    
   120   59   60 am   BACKBONE|DICT|INTERRES
   121   59  184 1    
   122   60   61 2    
   123   60   62 1    
   124   62   63 1    
   125   62   64 1    
   126   62  185 1    
   127   63  186 1    
   128   63  187 1    
   129   63  188 1    
   130   64   65 am   BACKBONE|DICT|INTERRES
   131   64  189 1    
   132   65   66 2    
   133   67   68 2    
   134   67   69 am   BACKBONE|DICT|INTERRES
   135   69   70 1    
   136   69  190 1    
   137   70   71 1    
   138   70   72 1    
   139   70  191 1    
   140   71  192 1    
   141   71  193 1    
   142   71  194 1    
   143   72   73 2    
   144   72   74 am   BACKBONE|DICT|INTERRES
   145   74   75 1    
   146   74  195 1    
   147   75   76 1    
   148   75   77 1    
   149   75  196 1    
   150   76  197 1    
   151   76  198 1    
   152   76  199 1    
   153   77   78 2    
   154   77   79 am   BACKBONE|DICT|INTERRES
   155   79   80 1    
   156   79  200 1    
   157   80   81 1    
   158   80   82 1    
   159   80  201 1    
   160   81  202 1    
   161   81  203 1    
   162   81  204 1    
   163   82   83 2    
   164   82   84 am   BACKBONE|DICT|INTERRES
   165   84   85 1    
   166   84  205 1    
   167   85   86 1    
   168   85   87 1    
   169   85  206 1    
   170   86  207 1    
   171   86  208 1    
   172   86  209 1    
   173   87   88 2    
   174   87   89 am   BACKBONE|DICT|INTERRES
   175   89   90 1    
   176   89  210 1    
   177   90   91 1    
   178   90   92 1    
   179   90  211 1    
   180   91  212 1    
   181   91  213 1    
   182   91  214 1    
   183   92   93 2    
   184   92   94 am   BACKBONE|DICT|INTERRES
   185   94   95 1    
   186   94  215 1    
   187   95   96 1    
   188   95   97 1    
   189   95  216 1    
   190   96  217 1    
   191   96  218 1    
   192   96  219 1    
   193   97   98 2    
   194   97   99 am   BACKBONE|DICT|INTERRES
   195   99  100 1    
   196   99  220 1    
   197  100  101 1    
   198  100  102 1    
   199  100  221 1    
   200  101  222 1    
   201  101  223 1    
   202  101  224 1    
   203  102  103 2    
   204  102  104 am   BACKBONE|DICT|INTERRES
   205  104  105 1    
   206  104  225 1    
   207  105  106 1    
   208  105  107 1    
   209  105  226 1    
   210  106  227 1    
   211  106  228 1    
   212  106  229 1    
   213  107  108 2    
   214  107  109 am   BACKBONE|DICT|INTERRES
   215  109  110 1    
   216  109  230 1    
   217  110  111 1    
   218  110  112 1    
   219  110  231 1    
   220  111  232 1    
   221  111  233 1    
   222  111  234 1    
   223  112  113 2    
   224  112  114 am   BACKBONE|DICT|INTERRES
   225  114  115 1    
   226  114  235 1    
   227  115  116 1    
   228  115  117 1    
   229  115  236 1    
   230  116  237 1    
   231  116  238 1    
   232  116  239 1    
   233  117  118 2    
   234  117  119 am   BACKBONE|DICT|INTERRES
   235  119  120 1    
   236  119  240 1    
   237  120  121 1    
   238  120  124 1    
   239  120  241 1    
   240  121  122 am   BACKBONE|DICT|INTERRES
   241  121  123 2    
   242  122  242 1    
   243  122  243 1    
   244  124  125 1    
   245  124  244 1    
   246  124  245 1    
   247  125  126 1    
   248  126  246 1    
   249  126  247 1    
@<TRIPOS>SUBSTRUCTURE
     1 UNK         1 GROUP             0       ****    0 ROOT    
