@<TRIPOS>MOLECULE
3R540
247   249    1
SMALL
USER_CHARGES


@<TRIPOS>ATOM
      1 CA          0.7975  -13.7285  -52.5612 C.3       0 UNK        -0.1800 
      2 C           1.3297  -13.6909  -51.1369 C.2       0 UNK         0.5000 
      3 O           0.9803  -12.7878  -50.3765 O.2       0 UNK        -0.5000 
      4 N           2.1772  -14.6628  -50.7720 N.am      1 UNK        -0.5000 
      5 CA          2.8690  -14.7359  -49.4762 C.3       1 UNK         0.1400 
      6 C6          3.9942  -15.8053  -49.4292 C.3       23 UNK        -0.0398 
      7 S7          4.9763  -15.9028  -50.9716 S.3       23 UNK        -0.2404 
      8 C8          4.7968  -17.6506  -51.4736 C.3       23 UNK        -0.0205 
      9 C9          3.3605  -18.1599  -51.4238 C.ar      23 UNK        -0.0193 
     10 C10         2.3935  -17.6680  -52.3059 C.ar      23 UNK        -0.1150 
     11 C11         1.0745  -18.1311  -52.2413 C.ar      23 UNK        -0.0193 
     12 C12         0.7295  -19.1030  -51.2972 C.ar      23 UNK        -0.1150 
     13 C13         1.6897  -19.6067  -50.4170 C.ar      23 UNK        -0.0193 
     14 C14         3.0017  -19.1334  -50.4866 C.ar      23 UNK        -0.1150 
     15 C15         1.3180  -20.6650  -49.3934 C.3       23 UNK        -0.0205 
     16 S16         1.0011  -19.9168  -47.7661 S.3       23 UNK        -0.2404 
     17 C17        -0.6566  -20.5689  -47.3790 C.3       23 UNK        -0.0398 
     18 CA         -0.6094  -21.9899  -46.7718 C.3       11 UNK         0.1400 
     19 N           0.1526  -22.0607  -45.5182 N.am      11 UNK        -0.5000 
     20 C           0.4747  -23.1897  -44.8688 C.2       10 UNK         0.5000 
     21 O           0.1138  -24.3096  -45.2323 O.2       10 UNK        -0.5000 
     22 CA          1.3081  -23.0452  -43.5868 C.3       10 UNK         0.1400 
     23 CB          2.7844  -22.7830  -43.9225 C.3       10 UNK        -0.1800 
     24 N           0.7923  -21.9636  -42.7507 N.am      10 UNK        -0.5000 
     25 C          -0.1513  -22.1155  -41.8114 C.2       9 UNK         0.5000 
     26 O          -0.6274  -23.2056  -41.4925 O.2       9 UNK        -0.5000 
     27 CA         -0.6676  -20.8384  -41.1149 C.3       9 UNK         0.1400 
     28 CB          0.1477  -20.5528  -39.8447 C.3       9 UNK        -0.1800 
     29 N          -0.6486  -19.6458  -41.9622 N.am      9 UNK        -0.5000 
     30 C          -1.3163  -19.5038  -43.1155 C.2       8 UNK         0.5000 
     31 O          -2.0594  -20.3599  -43.5927 O.2       8 UNK        -0.5000 
     32 CA         -1.0569  -18.2051  -43.8984 C.3       8 UNK         0.1400 
     33 CB         -1.9604  -17.0877  -43.3578 C.3       8 UNK        -0.1800 
     34 N           0.3439  -17.7686  -43.8734 N.am      8 UNK        -0.5000 
     35 C           1.4099  -18.5200  -44.1940 C.2       7 UNK         0.5000 
     36 O           1.3418  -19.7057  -44.5090 O.2       7 UNK        -0.5000 
     37 CA          2.7896  -17.8560  -44.0962 C.3       7 UNK         0.1400 
     38 CB          3.0512  -16.9634  -45.3146 C.3       7 UNK        -0.1800 
     39 N           2.9043  -17.0711  -42.8704 N.am      7 UNK        -0.5000 
     40 C           3.1545  -17.5978  -41.6636 C.2       6 UNK         0.5000 
     41 O           3.4036  -18.7883  -41.4729 O.2       6 UNK        -0.5000 
     42 CA          3.0941  -16.6350  -40.4629 C.3       6 UNK         0.1400 
     43 CB          4.4661  -15.9884  -40.2194 C.3       6 UNK        -0.1800 
     44 N           2.0892  -15.5833  -40.6269 N.am      6 UNK        -0.5000 
     45 C           0.7658  -15.7941  -40.6551 C.2       5 UNK         0.5000 
     46 O           0.2447  -16.9017  -40.5150 O.2       5 UNK        -0.5000 
     47 CA         -0.1188  -14.5604  -40.9235 C.3       5 UNK         0.1400 
     48 CB         -0.4681  -13.8536  -39.6054 C.3       5 UNK        -0.1800 
     49 N           0.4739  -13.5893  -41.8518 N.am      5 UNK        -0.5000 
     50 C           0.7936  -13.8503  -43.1262 C.2       4 UNK         0.5000 
     51 O           0.7045  -14.9685  -43.6355 O.2       4 UNK        -0.5000 
     52 CA          1.3429  -12.6854  -43.9638 C.3       4 UNK         0.1400 
     53 CB          2.8560  -12.8463  -44.1763 C.3       4 UNK        -0.1800 
     54 N           0.6742  -12.6561  -45.2624 N.am      4 UNK        -0.5000 
     55 C          -0.5270  -12.0991  -45.4799 C.2       3 UNK         0.5000 
     56 O          -1.1342  -11.4427  -44.6325 O.2       3 UNK        -0.5000 
     57 CA         -1.1718  -12.3138  -46.8666 C.3       3 UNK         0.1400 
     58 CB         -0.8388  -11.1431  -47.8033 C.3       3 UNK        -0.1800 
     59 N          -0.7534  -13.5630  -47.5008 N.am      3 UNK        -0.5000 
     60 C          -1.0512  -14.7872  -47.0429 C.2       2 UNK         0.5000 
     61 O          -1.8783  -14.9867  -46.1545 O.2       2 UNK        -0.5000 
     62 CA         -0.3083  -15.9924  -47.6610 C.3       2 UNK         0.1400 
     63 CB         -1.2966  -16.9089  -48.3992 C.3       2 UNK        -0.1800 
     64 N           0.7801  -15.6523  -48.5820 N.am      2 UNK        -0.5000 
     65 C           1.8885  -14.9474  -48.3065 C.2       1 UNK         0.5000 
     66 O           2.1271  -14.4358  -47.2134 O.2       1 UNK        -0.5000 
     67 C          -2.0278  -22.5816  -46.6548 C.2       11 UNK         0.5000 
     68 O          -2.5145  -23.1431  -47.6338 O.2       11 UNK        -0.5000 
     69 N          -2.6319  -22.5193  -45.4596 N.am      12 UNK        -0.5000 
     70 CA         -3.8995  -23.1715  -45.1183 C.3       12 UNK         0.1400 
     71 CB         -4.2836  -22.7930  -43.6795 C.3       12 UNK        -0.1800 
     72 C          -3.8882  -24.7081  -45.2800 C.2       12 UNK         0.5000 
     73 O          -4.9507  -25.3025  -45.4647 O.2       12 UNK        -0.5000 
     74 N          -2.7005  -25.3237  -45.2104 N.am      13 UNK        -0.5000 
     75 CA         -2.4840  -26.7417  -45.4801 C.3       13 UNK         0.1400 
     76 CB         -1.5854  -27.3367  -44.3838 C.3       13 UNK        -0.1800 
     77 C          -1.8534  -26.9331  -46.8684 C.2       13 UNK         0.5000 
     78 O          -2.3469  -27.7439  -47.6523 O.2       13 UNK        -0.5000 
     79 N          -0.7757  -26.1867  -47.1488 N.am      14 UNK        -0.5000 
     80 CA          0.0662  -26.3467  -48.3363 C.3       14 UNK         0.1400 
     81 CB          1.3783  -25.5747  -48.1262 C.3       14 UNK        -0.1800 
     82 C          -0.5996  -25.9237  -49.6588 C.2       14 UNK         0.5000 
     83 O          -0.2632  -26.4857  -50.7019 O.2       14 UNK        -0.5000 
     84 N          -1.5142  -24.9487  -49.6015 N.am      15 UNK        -0.5000 
     85 CA         -2.2153  -24.3828  -50.7552 C.3       15 UNK         0.1400 
     86 CB         -1.6592  -22.9742  -51.0299 C.3       15 UNK        -0.1800 
     87 C          -3.7430  -24.3769  -50.5524 C.2       15 UNK         0.5000 
     88 O          -4.4461  -23.7003  -51.3055 O.2       15 UNK        -0.5000 
     89 N          -4.2301  -25.1303  -49.5528 N.am      16 UNK        -0.5000 
     90 CA         -5.6309  -25.3119  -49.1585 C.3       16 UNK         0.1400 
     91 CB         -6.3682  -26.1851  -50.1973 C.3       16 UNK        -0.1800 
     92 C          -6.3428  -23.9742  -48.8662 C.2       16 UNK         0.5000 
     93 O          -6.2101  -23.4421  -47.7655 O.2       16 UNK        -0.5000 
     94 N          -7.0746  -23.4446  -49.8552 N.am      17 UNK        -0.5000 
     95 CA         -7.7393  -22.1419  -49.7959 C.3       17 UNK         0.1400 
     96 CB         -8.7294  -22.0387  -50.9665 C.3       17 UNK        -0.1800 
     97 C          -6.7606  -20.9502  -49.8194 C.2       17 UNK         0.5000 
     98 O          -7.1493  -19.8518  -49.4201 O.2       17 UNK        -0.5000 
     99 N          -5.5319  -21.1746  -50.3122 N.am      18 UNK        -0.5000 
    100 CA        -4.4124  -20.2392  -50.4807 C.3       18 UNK         0.1400 
    101 CB        -3.9711  -19.6217  -49.1422 C.3       18 UNK        -0.1800 
    102 C         -4.6581  -19.1660  -51.5549 C.2       18 UNK         0.5000 
    103 O         -3.8411  -19.0212  -52.4635 O.2       18 UNK        -0.5000 
    104 N         -5.8092  -18.4864  -51.4897 N.am      19 UNK        -0.5000 
    105 CA        -6.2834  -17.5126  -52.4761 C.3       19 UNK         0.1400 
    106 CB        -7.5995  -16.8967  -51.9806 C.3       19 UNK        -0.1800 
    107 C         -6.4633  -18.1143  -53.8835 C.2       19 UNK         0.5000 
    108 O         -6.2695  -17.4117  -54.8746 O.2       19 UNK        -0.5000 
    109 N         -6.7758  -19.4164  -53.9449 N.am      20 UNK        -0.5000 
    110 CA        -6.8510  -20.2054  -55.1749 C.3       20 UNK         0.1400 
    111 CB        -7.4539  -21.5799  -54.8468 C.3       20 UNK        -0.1800 
    112 C         -5.4894  -20.3694  -55.8813 C.2       20 UNK         0.5000 
    113 O         -5.4622  -20.5134  -57.1041 O.2       20 UNK        -0.5000 
    114 N         -4.3930  -20.3390  -55.1104 N.am      21 UNK        -0.5000 
    115 CA        -3.0251  -20.3723  -55.6216 C.3       21 UNK         0.1400 
    116 CB        -2.1153  -21.0972  -54.6154 C.3       21 UNK        -0.1800 
    117 C         -2.5092  -18.9516  -55.9017 C.2       21 UNK         0.5000 
    118 O         -1.8948  -18.7272  -56.9453 O.2       21 UNK        -0.5000 
    119 N         -2.7561  -18.0251  -54.9652 N.am      22 UNK        -0.5000 
    120 CA        -2.2990  -16.6287  -55.0438 C.3       22 UNK         0.1400 
    121 C         -3.0513  -15.7594  -56.0921 C.2       22 UNK         0.5000 
    122 N         -4.3025  -16.0457  -56.4265 N.am      22 UNK        -0.7600 
    123 O         -2.4821  -14.8075  -56.6191 O.2       22 UNK        -0.5000 
    124 C124       -2.3127  -15.9358  -53.6555 C.3       23 UNK        -0.0398 
    125 S125       -1.2720  -16.6629  -52.3318 S.3       23 UNK        -0.2404 
    126 C126        0.0239  -17.6029  -53.2037 C.3       23 UNK        -0.0205 
    127 H127        1.1811  -12.8794  -53.1265 H         1 UNK         0.0600 
    128 H128        1.0876  -14.6426  -53.0788 H         1 UNK         0.0600 
    129 H129       -0.2902  -13.6690  -52.5534 H         1 UNK         0.0600 
    130 H130        2.4366  -15.3786  -51.4356 H         1 UNK         0.3000 
    131 H131        3.3408  -13.7628  -49.3231 H         1 UNK         0.0600 
    132 H132        3.5896  -16.7877  -49.1869 H         1 UNK         0.0800 
    133 H133        4.6799  -15.5741  -48.6124 H         1 UNK         0.0800 
    134 H134        5.1807  -17.7664  -52.4880 H         1 UNK         0.0800 
    135 H135        5.4401  -18.2599  -50.8368 H         1 UNK         0.0800 
    136 H136        2.6717  -16.9259  -53.0412 H         1 UNK         0.1150 
    137 H137       -0.2892  -19.4624  -51.2485 H         1 UNK         0.1150 
    138 H138        3.7420  -19.5206  -49.8004 H         1 UNK         0.1150 
    139 H139        0.4523  -21.2304  -49.7380 H         1 UNK         0.0800 
    140 H140        2.1291  -21.3882  -49.2967 H         1 UNK         0.0800 
    141 H141       -1.2534  -20.5519  -48.2921 H         1 UNK         0.0800 
    142 H142       -1.1429  -19.8790  -46.6898 H         1 UNK         0.0800 
    143 H143       -0.0822  -22.6245  -47.4857 H         1 UNK         0.0600 
    144 H144        0.5234  -21.1784  -45.1697 H         1 UNK         0.3000 
    145 H145        1.2541  -23.9903  -43.0421 H         1 UNK         0.0600 
    146 H146        3.3860  -22.7099  -43.0164 H         1 UNK         0.0600 
    147 H147        3.1961  -23.5956  -44.5223 H         1 UNK         0.0600 
    148 H148        2.9186  -21.8600  -44.4872 H         1 UNK         0.0600 
    149 H149        1.0815  -21.0261  -43.0064 H         1 UNK         0.3000 
    150 H150       -1.7046  -21.0197  -40.8253 H         1 UNK         0.0600 
    151 H151        0.1374  -21.4102  -39.1706 H         1 UNK         0.0600 
    152 H152       -0.2603  -19.7030  -39.2969 H         1 UNK         0.0600 
    153 H153        1.1896  -20.3296  -40.0795 H         1 UNK         0.0600 
    154 H154       -0.0836  -18.8690  -41.6408 H         1 UNK         0.3000 
    155 H155       -1.3189  -18.3773  -44.9426 H         1 UNK         0.0600 
    156 H156       -1.8303  -16.9491  -42.2850 H         1 UNK         0.0600 
    157 H157       -3.0113  -17.3228  -43.5299 H         1 UNK         0.0600 
    158 H158       -1.7570  -16.1346  -43.8427 H         1 UNK         0.0600 
    159 H159        0.4978  -16.7848  -43.6621 H         1 UNK         0.3000 
    160 H160        3.5453  -18.6447  -44.0896 H         1 UNK         0.0600 
    161 H161        4.0494  -16.5272  -45.2826 H         1 UNK         0.0600 
    162 H162        2.3306  -16.1493  -45.3630 H         1 UNK         0.0600 
    163 H163        2.9687  -17.5305  -46.2429 H         1 UNK         0.0600 
    164 H164        2.6482  -16.0961  -42.9324 H         1 UNK         0.3000 
    165 H165        2.8300  -17.2219  -39.5805 H         1 UNK         0.0600 
    166 H166        4.4546  -15.3627  -39.3268 H         1 UNK         0.0600 
    167 H167        5.2347  -16.7484  -40.0723 H         1 UNK         0.0600 
    168 H168        4.7748  -15.3679  -41.0617 H         1 UNK         0.0600 
    169 H169        2.4283  -14.6405  -40.7487 H         1 UNK         0.3000 
    170 H170       -1.0486  -14.9142  -41.3715 H         1 UNK         0.0600 
    171 H171       -0.9323  -14.5463  -38.9020 H         1 UNK         0.0600 
    172 H172        0.4179  -13.4397  -39.1225 H         1 UNK         0.0600 
    173 H173       -1.1737  -13.0389  -39.7693 H         1 UNK         0.0600 
    174 H174        0.5869  -12.6485  -41.5024 H         1 UNK         0.3000 
    175 H175        1.1664  -11.7432  -43.4408 H         1 UNK         0.0600 
    176 H176        3.0962  -13.7791  -44.6880 H         1 UNK         0.0600 
    177 H177        3.2586  -12.0271  -44.7721 H         1 UNK         0.0600 
    178 H178        3.3870  -12.8482  -43.2236 H         1 UNK         0.0600 
    179 H179        1.0894  -13.2324  -45.9884 H         1 UNK         0.3000 
    180 H180       -2.2545  -12.3472  -46.7290 H         1 UNK         0.0600 
    181 H181        0.2334  -11.0728  -47.9920 H         1 UNK         0.0600 
    182 H182       -1.1611  -10.1938  -47.3736 H         1 UNK         0.0600 
    183 H183       -1.3403  -11.2524  -48.7651 H         1 UNK         0.0600 
    184 H184       -0.0806  -13.4833  -48.2516 H         1 UNK         0.3000 
    185 H185        0.1304  -16.5552  -46.8344 H         1 UNK         0.0600 
    186 H186       -2.0600  -17.2884  -47.7189 H         1 UNK         0.0600 
    187 H187       -1.8069  -16.3806  -49.2055 H         1 UNK         0.0600 
    188 H188       -0.7927  -17.7709  -48.8356 H         1 UNK         0.0600 
    189 H189        0.6741  -15.9925  -49.5272 H         1 UNK         0.3000 
    190 H190       -2.1973  -21.9724  -44.7220 H         1 UNK         0.3000 
    191 H191       -4.6620  -22.7753  -45.7895 H         1 UNK         0.0600 
    192 H192       -3.5132  -23.0920  -42.9672 H         1 UNK         0.0600 
    193 H193       -5.2154  -23.2750  -43.3809 H         1 UNK         0.0600 
    194 H194       -4.4319  -21.7176  -43.5819 H         1 UNK         0.0600 
    195 H195       -1.8684  -24.7621  -45.0700 H         1 UNK         0.3000 
    196 H196       -3.4301  -27.2868  -45.4653 H         1 UNK         0.0600 
    197 H197       -0.6182  -26.8356  -44.3305 H         1 UNK         0.0600 
    198 H198       -1.3976  -28.3957  -44.5654 H         1 UNK         0.0600 
    199 H199       -2.0567  -27.2535  -43.4043 H         1 UNK         0.0600 
    200 H200       -0.4339  -25.5374  -46.4434 H         1 UNK         0.3000 
    201 H201        0.3129  -27.4069  -48.4243 H         1 UNK         0.0600 
    202 H202        1.8981  -25.9160  -47.2308 H         1 UNK         0.0600 
    203 H203        1.2054  -24.5038  -48.0236 H         1 UNK         0.0600 
    204 H204        2.0556  -25.7177  -48.9692 H         1 UNK         0.0600 
    205 H205       -1.7435  -24.5211  -48.7080 H         1 UNK         0.3000 
    206 H206       -2.0404  -24.9921  -51.6437 H         1 UNK         0.0600 
    207 H207       -0.5890  -23.0090  -51.2332 H         1 UNK         0.0600 
    208 H208       -2.1356  -22.5229  -51.9004 H         1 UNK         0.0600 
    209 H209       -1.8173  -22.3098  -50.1805 H         1 UNK         0.0600 
    210 H210       -3.5574  -25.6312  -48.9905 H         1 UNK         0.3000 
    211 H211       -5.6176  -25.8634  -48.2171 H         1 UNK         0.0600 
    212 H212       -6.3431  -25.7532  -51.1982 H         1 UNK         0.0600 
    213 H213       -7.4141  -26.3250  -49.9210 H         1 UNK         0.0600 
    214 H214       -5.9176  -27.1758  -50.2581 H         1 UNK         0.0600 
    215 H215       -7.1019  -23.9300  -50.7403 H         1 UNK         0.3000 
    216 H216       -8.3031  -22.0849  -48.8624 H         1 UNK         0.0600 
    217 H217       -9.2580  -21.0845  -50.9515 H         1 UNK         0.0600 
    218 H218       -9.4821  -22.8257  -50.9165 H         1 UNK         0.0600 
    219 H219       -8.2233  -22.1194  -51.9286 H         1 UNK         0.0600 
    220 H220       -5.3331  -22.1179  -50.6368 H         1 UNK         0.3000 
    221 H221       -3.5835  -20.8457  -50.8430 H         1 UNK         0.0600 
    222 H222       -4.7252  -18.9519  -48.7286 H         1 UNK         0.0600 
    223 H223       -3.7678  -20.3952  -48.4015 H         1 UNK         0.0600 
    224 H224       -3.0575  -19.0420  -49.2728 H         1 UNK         0.0600 
    225 H225       -6.4317  -18.7051  -50.7157 H         1 UNK         0.3000 
    226 H226       -5.5365  -16.7201  -52.5484 H         1 UNK         0.0600 
    227 H227       -7.4637  -16.3969  -51.0213 H         1 UNK         0.0600 
    228 H228       -7.9726  -16.1518  -52.6848 H         1 UNK         0.0600 
    229 H229       -8.3760  -17.6528  -51.8577 H         1 UNK         0.0600 
    230 H230       -6.9168  -19.9117  -53.0779 H         1 UNK         0.3000 
    231 H231       -7.5220  -19.6909  -55.8659 H         1 UNK         0.0600 
    232 H232       -8.4518  -21.4814  -54.4192 H         1 UNK         0.0600 
    233 H233       -6.8351  -22.1323  -54.1385 H         1 UNK         0.0600 
    234 H234       -7.5468  -22.1900  -55.7462 H         1 UNK         0.0600 
    235 H235       -4.4940  -20.1583  -54.1202 H         1 UNK         0.3000 
    236 H236       -2.9960  -20.9336  -56.5580 H         1 UNK         0.0600 
    237 H237       -1.0946  -21.1645  -54.9935 H         1 UNK         0.0600 
    238 H238       -2.0722  -20.5827  -53.6552 H         1 UNK         0.0600 
    239 H239       -2.4626  -22.1144  -54.4343 H         1 UNK         0.0600 
    240 H240       -3.2197  -18.3023  -54.1045 H         1 UNK         0.3000 
    241 H241       -1.2663  -16.6470  -55.3933 H         1 UNK         0.0600 
    242 H242       -4.7681  -15.4749  -57.1135 H         1 UNK         0.3800 
    243 H243       -4.8342  -16.7584  -55.9352 H         1 UNK         0.3800 
    244 H244       -1.9957  -14.8971  -53.7606 H         1 UNK         0.0800 
    245 H245       -3.3350  -15.8922  -53.2777 H         1 UNK         0.0800 
    246 H246        0.4900  -16.9678  -53.9576 H         1 UNK         0.0800 
    247 H247       -0.4168  -18.4506  -53.7270 H         1 UNK         0.0800 
@<TRIPOS>BOND
     1    1    2 1    
     2    1  127 1    
     3    1  128 1    
     4    1  129 1    
     5    2    3 2    
     6    2    4 am   BACKBONE|DICT|INTERRES
     7    4    5 1    
     8    4  130 1    
     9    5    6 1    
    10    5   65 1    
    11    5  131 1    
    12    6    7 1    
    13    6  132 1    
    14    6  133 1    
    15    7    8 1    
    16    8    9 1    
    17    8  134 1    
    18    8  135 1    
    19    9   10 ar   
    20    9   14 ar   
    21   10   11 ar   
    22   10  136 1    
    23   11   12 ar   
    24   11  126 1    
    25   12   13 ar   
    26   12  137 1    
    27   13   14 ar   
    28   13   15 1    
    29   14  138 1    
    30   15   16 1    
    31   15  139 1    
    32   15  140 1    
    33   16   17 1    
    34   17   18 1    
    35   17  141 1    
    36   17  142 1    
    37   18   19 1    
    38   18   67 1    
    39   18  143 1    
    40   19   20 am   BACKBONE|DICT|INTERRES
    41   19  144 1    
    42   20   21 2    
    43   20   22 1    
    44   22   23 1    
    45   22   24 1    
    46   22  145 1    
    47   23  146 1    
    48   23  147 1    
    49   23  148 1    
    50   24   25 am   BACKBONE|DICT|INTERRES
    51   24  149 1    
    52   25   26 2    
    53   25   27 1    
    54   27   28 1    
    55   27   29 1    
    56   27  150 1    
    57   28  151 1    
    58   28  152 1    
    59   28  153 1    
    60   29   30 am   BACKBONE|DICT|INTERRES
    61   29  154 1    
    62   30   31 2    
    63   30   32 1    
    64   32   33 1    
    65   32   34 1    
    66   32  155 1    
    67   33  156 1    
    68   33  157 1    
    69   33  158 1    
    70   34   35 am   BACKBONE|DICT|INTERRES
    71   34  159 1    
    72   35   36 2    
    73   35   37 1    
    74   37   38 1    
    75   37   39 1    
    76   37  160 1    
    77   38  161 1    
    78   38  162 1    
    79   38  163 1    
    80   39   40 am   BACKBONE|DICT|INTERRES
    81   39  164 1    
    82   40   41 2    
    83   40   42 1    
    84   42   43 1    
    85   42   44 1    
    86   42  165 1    
    87   43  166 1    
    88   43  167 1    
    89   43  168 1    
    90   44   45 am   BACKBONE|DICT|INTERRES
    91   44  169 1    
    92   45   46 2    
    93   45   47 1    
    94   47   48 1    
    95   47   49 1    
    96   47  170 1    
    97   48  171 1    
    98   48  172 1    
    99   48  173 1    
   100   49   50 am   BACKBONE|DICT|INTERRES
   101   49  174 1    
   102   50   51 2    
   103   50   52 1    
   104   52   53 1    
   105   52   54 1    
   106   52  175 1    
   107   53  176 1    
   108   53  177 1    
   109   53  178 1    
   110   54   55 am   BACKBONE|DICT|INTERRES
   111   54  179 1    
   112   55   56 2    
   113   55   57 1    
   114   57   58 1    
   115   57   59 1    
   116   57  180 1    
   117   58  181 1    
   118   58  182 1    
   119   58  183 1    
   120   59   60 am   BACKBONE|DICT|INTERRES
   121   59  184 1    
   122   60   61 2    
   123   60   62 1    
   124   62   63 1    
   125   62   64 1    
   126   62  185 1    
   127   63  186 1    
   128   63  187 1    
   129   63  188 1    
   130   64   65 am   BACKBONE|DICT|INTERRES
   131   64  189 1    
   132   65   66 2    
   133   67   68 2    
   134   67   69 am   BACKBONE|DICT|INTERRES
   135   69   70 1    
   136   69  190 1    
   137   70   71 1    
   138   70   72 1    
   139   70  191 1    
   140   71  192 1    
   141   71  193 1    
   142   71  194 1    
   143   72   73 2    
   144   72   74 am   BACKBONE|DICT|INTERRES
   145   74   75 1    
   146   74  195 1    
   147   75   76 1    
   148   75   77 1    
   149   75  196 1    
   150   76  197 1    
   151   76  198 1    
   152   76  199 1    
   153   77   78 2    
   154   77   79 am   BACKBONE|DICT|INTERRES
   155   79   80 1    
   156   79  200 1    
   157   80   81 1    
   158   80   82 1    
   159   80  201 1    
   160   81  202 1    
   161   81  203 1    
   162   81  204 1    
   163   82   83 2    
   164   82   84 am   BACKBONE|DICT|INTERRES
   165   84   85 1    
   166   84  205 1    
   167   85   86 1    
   168   85   87 1    
   169   85  206 1    
   170   86  207 1    
   171   86  208 1    
   172   86  209 1    
   173   87   88 2    
   174   87   89 am   BACKBONE|DICT|INTERRES
   175   89   90 1    
   176   89  210 1    
   177   90   91 1    
   178   90   92 1    
   179   90  211 1    
   180   91  212 1    
   181   91  213 1    
   182   91  214 1    
   183   92   93 2    
   184   92   94 am   BACKBONE|DICT|INTERRES
   185   94   95 1    
   186   94  215 1    
   187   95   96 1    
   188   95   97 1    
   189   95  216 1    
   190   96  217 1    
   191   96  218 1    
   192   96  219 1    
   193   97   98 2    
   194   97   99 am   BACKBONE|DICT|INTERRES
   195   99  100 1    
   196   99  220 1    
   197  100  101 1    
   198  100  102 1    
   199  100  221 1    
   200  101  222 1    
   201  101  223 1    
   202  101  224 1    
   203  102  103 2    
   204  102  104 am   BACKBONE|DICT|INTERRES
   205  104  105 1    
   206  104  225 1    
   207  105  106 1    
   208  105  107 1    
   209  105  226 1    
   210  106  227 1    
   211  106  228 1    
   212  106  229 1    
   213  107  108 2    
   214  107  109 am   BACKBONE|DICT|INTERRES
   215  109  110 1    
   216  109  230 1    
   217  110  111 1    
   218  110  112 1    
   219  110  231 1    
   220  111  232 1    
   221  111  233 1    
   222  111  234 1    
   223  112  113 2    
   224  112  114 am   BACKBONE|DICT|INTERRES
   225  114  115 1    
   226  114  235 1    
   227  115  116 1    
   228  115  117 1    
   229  115  236 1    
   230  116  237 1    
   231  116  238 1    
   232  116  239 1    
   233  117  118 2    
   234  117  119 am   BACKBONE|DICT|INTERRES
   235  119  120 1    
   236  119  240 1    
   237  120  121 1    
   238  120  124 1    
   239  120  241 1    
   240  121  122 am   BACKBONE|DICT|INTERRES
   241  121  123 2    
   242  122  242 1    
   243  122  243 1    
   244  124  125 1    
   245  124  244 1    
   246  124  245 1    
   247  125  126 1    
   248  126  246 1    
   249  126  247 1    
@<TRIPOS>SUBSTRUCTURE
     1 UNK         1 GROUP             0       ****    0 ROOT    
