@<TRIPOS>MOLECULE
3R540
247   249    1
SMALL
USER_CHARGES


@<TRIPOS>ATOM
      1 CA          0.7593  -10.4268  -48.8224 C.3       0 UNK        -0.1800 
      2 C           0.2104  -11.7184  -49.4121 C.2       0 UNK         0.5000 
      3 O          -0.4375  -11.6892  -50.4584 O.2       0 UNK        -0.5000 
      4 N           0.4659  -12.8479  -48.7472 N.am      1 UNK        -0.5000 
      5 CA          0.0528  -14.1877  -49.1522 C.3       1 UNK         0.1400 
      6 C6         -1.4308  -14.4630  -48.7930 C.3       23 UNK        -0.0398 
      7 S7         -2.1043  -15.9525  -49.5991 S.3       23 UNK        -0.2404 
      8 C8         -3.7076  -16.0918  -48.7528 C.3       23 UNK        -0.0205 
      9 C9         -4.4865  -17.3132  -49.2178 C.ar      23 UNK        -0.0193 
     10 C10        -5.5236  -17.1817  -50.1452 C.ar      23 UNK        -0.1150 
     11 C11        -6.2654  -18.2940  -50.5588 C.ar      23 UNK        -0.0193 
     12 C12        -5.9646  -19.5500  -50.0146 C.ar      23 UNK        -0.1150 
     13 C13        -4.9206  -19.6969  -49.0974 C.ar      23 UNK        -0.0193 
     14 C14        -4.1844  -18.5763  -48.7046 C.ar      23 UNK        -0.1150 
     15 C15        -4.5586  -21.0700  -48.5596 C.3       23 UNK        -0.0205 
     16 S16        -5.2904  -21.4012  -46.9277 S.3       23 UNK        -0.2404 
     17 C17        -4.2240  -22.7789  -46.3786 C.3       23 UNK        -0.0398 
     18 CA         -3.0123  -22.2708  -45.5498 C.3       11 UNK         0.1400 
     19 N          -3.3928  -21.6361  -44.2819 N.am      11 UNK        -0.5000 
     20 C          -3.8848  -22.2266  -43.1824 C.2       10 UNK         0.5000 
     21 O          -4.2077  -23.4137  -43.1302 O.2       10 UNK        -0.5000 
     22 CA         -3.9883  -21.3629  -41.9078 C.3       10 UNK         0.1400 
     23 CB         -2.9096  -21.7832  -40.8959 C.3       10 UNK        -0.1800 
     24 N          -3.8268  -19.9346  -42.1797 N.am      10 UNK        -0.5000 
     25 C          -4.8140  -19.1099  -42.5517 C.2       9 UNK         0.5000 
     26 O          -5.9991  -19.4394  -42.6070 O.2       9 UNK        -0.5000 
     27 CA         -4.3992  -17.6816  -42.9586 C.3       9 UNK         0.1400 
     28 CB         -4.4457  -16.7400  -41.7459 C.3       9 UNK        -0.1800 
     29 N          -3.0687  -17.6127  -43.5704 N.am      9 UNK        -0.5000 
     30 C          -2.7177  -18.2216  -44.7120 C.2       8 UNK         0.5000 
     31 O          -3.4853  -18.9003  -45.3862 O.2       8 UNK        -0.5000 
     32 CA         -1.2522  -18.0985  -45.1515 C.3       8 UNK         0.1400 
     33 CB         -1.0417  -16.7707  -45.8860 C.3       8 UNK        -0.1800 
     34 N          -0.3236  -18.1983  -44.0274 N.am      8 UNK        -0.5000 
     35 C          -0.1376  -19.2914  -43.2747 C.2       7 UNK         0.5000 
     36 O          -0.6835  -20.3735  -43.4931 O.2       7 UNK        -0.5000 
     37 CA          0.7969  -19.1484  -42.0623 C.3       7 UNK         0.1400 
     38 CB          2.2438  -19.4841  -42.4445 C.3       7 UNK        -0.1800 
     39 N           0.7439  -17.8018  -41.4961 N.am      7 UNK        -0.5000 
     40 C          -0.2329  -17.3648  -40.6899 C.2       6 UNK         0.5000 
     41 O          -1.1611  -18.0707  -40.2945 O.2       6 UNK        -0.5000 
     42 CA         -0.1774  -15.8795  -40.2854 C.3       6 UNK         0.1400 
     43 CB          0.7392  -15.6834  -39.0685 C.3       6 UNK        -0.1800 
     44 N           0.2732  -15.0111  -41.3757 N.am      6 UNK        -0.5000 
     45 C          -0.4189  -14.7956  -42.5030 C.2       5 UNK         0.5000 
     46 O          -1.5220  -15.2914  -42.7290 O.2       5 UNK        -0.5000 
     47 CA          0.2464  -13.9116  -43.5751 C.3       5 UNK         0.1400 
     48 CB         -0.1222  -12.4365  -43.3594 C.3       5 UNK        -0.1800 
     49 N           1.7054  -14.0405  -43.6485 N.am      5 UNK        -0.5000 
     50 C           2.3612  -15.1757  -43.9203 C.2       4 UNK         0.5000 
     51 O           1.8193  -16.2800  -44.0172 O.2       4 UNK        -0.5000 
     52 CA          3.8811  -15.0749  -44.0768 C.3       4 UNK         0.1400 
     53 CB          4.5849  -15.3800  -42.7425 C.3       4 UNK        -0.1800 
     54 N           4.2784  -16.0393  -45.0931 N.am      4 UNK        -0.5000 
     55 C           5.4248  -16.0407  -45.7819 C.2       3 UNK         0.5000 
     56 O           6.3265  -15.2185  -45.6148 O.2       3 UNK        -0.5000 
     57 CA          5.5926  -17.1492  -46.8393 C.3       3 UNK         0.1400 
     58 CB          6.2635  -18.3817  -46.2136 C.3       3 UNK        -0.1800 
     59 N           4.3149  -17.5457  -47.4382 N.am      3 UNK        -0.5000 
     60 C           3.6719  -16.8403  -48.3796 C.2       2 UNK         0.5000 
     61 O           4.1517  -15.8411  -48.9207 O.2       2 UNK        -0.5000 
     62 CA          2.2730  -17.3453  -48.8108 C.3       2 UNK         0.1400 
     63 CB          1.6005  -18.2697  -47.7721 C.3       2 UNK        -0.1800 
     64 N           1.3574  -16.2628  -49.1959 N.am      2 UNK        -0.5000 
     65 C           1.0282  -15.1744  -48.4836 C.2       1 UNK         0.5000 
     66 O           1.4589  -14.9198  -47.3551 O.2       1 UNK        -0.5000 
     67 C          -1.9029  -23.3315  -45.3491 C.2       11 UNK         0.5000 
     68 O          -1.8793  -24.3468  -46.0451 O.2       11 UNK        -0.5000 
     69 N          -1.0023  -23.0700  -44.3908 N.am      12 UNK        -0.5000 
     70 CA          0.0611  -23.9778  -43.9669 C.3       12 UNK         0.1400 
     71 CB          0.3886  -23.7075  -42.4896 C.3       12 UNK        -0.1800 
     72 C           1.3178  -23.8332  -44.8381 C.2       12 UNK         0.5000 
     73 O           1.8955  -24.8408  -45.2462 O.2       12 UNK        -0.5000 
     74 N           1.7107  -22.5818  -45.1139 N.am      13 UNK        -0.5000 
     75 CA          2.8638  -22.2478  -45.9580 C.3       13 UNK         0.1400 
     76 CB          3.4753  -20.9249  -45.4715 C.3       13 UNK        -0.1800 
     77 C           2.4996  -22.1479  -47.4508 C.2       13 UNK         0.5000 
     78 O           3.3959  -22.0801  -48.2922 O.2       13 UNK        -0.5000 
     79 N           1.1962  -22.0995  -47.7480 N.am      14 UNK        -0.5000 
     80 CA          0.6340  -22.0060  -49.0897 C.3       14 UNK         0.1400 
     81 CB         -0.8599  -21.6954  -48.9451 C.3       14 UNK        -0.1800 
     82 C           0.8738  -23.3015  -49.8892 C.2       14 UNK         0.5000 
     83 O           0.6397  -24.3919  -49.3621 O.2       14 UNK        -0.5000 
     84 N           1.3361  -23.1561  -51.1375 N.am      15 UNK        -0.5000 
     85 CA          1.7170  -24.2373  -52.0491 C.3       15 UNK         0.1400 
     86 CB          2.3152  -23.6238  -53.3257 C.3       15 UNK        -0.1800 
     87 C           0.5353  -25.1681  -52.3761 C.2       15 UNK         0.5000 
     88 O          -0.3623  -24.7780  -53.1228 O.2       15 UNK        -0.5000 
     89 N           0.5394  -26.3635  -51.7688 N.am      16 UNK        -0.5000 
     90 CA         -0.5366  -27.3632  -51.7996 C.3       16 UNK         0.1400 
     91 CB         -0.6872  -27.9681  -53.2117 C.3       16 UNK        -0.1800 
     92 C          -1.8676  -26.8260  -51.2247 C.2       16 UNK         0.5000 
     93 O          -2.9415  -27.2107  -51.6905 O.2       16 UNK        -0.5000 
     94 N          -1.7586  -25.9404  -50.2216 N.am      17 UNK        -0.5000 
     95 CA         -2.8433  -25.2331  -49.5383 C.3       17 UNK         0.1400 
     96 CB         -3.7426  -26.2124  -48.7545 C.3       17 UNK        -0.1800 
     97 C          -3.6323  -24.2844  -50.4673 C.2       17 UNK         0.5000 
     98 O          -4.8528  -24.1766  -50.3420 O.2       17 UNK        -0.5000 
     99 N          -2.9226  -23.5935  -51.3678 N.am      18 UNK        -0.5000 
    100 CA        -3.4555  -22.5614  -52.2523 C.3       18 UNK         0.1400 
    101 CB        -3.8998  -23.2013  -53.5767 C.3       18 UNK        -0.1800 
    102 C         -2.3680  -21.5013  -52.4793 C.2       18 UNK         0.5000 
    103 O         -1.1941  -21.8532  -52.6050 O.2       18 UNK        -0.5000 
    104 N         -2.7581  -20.2251  -52.5045 N.am      19 UNK        -0.5000 
    105 CA        -1.8764  -19.0808  -52.7067 C.3       19 UNK         0.1400 
    106 CB        -1.0441  -18.8223  -51.4346 C.3       19 UNK        -0.1800 
    107 C         -2.7217  -17.8560  -53.0876 C.2       19 UNK         0.5000 
    108 O         -3.9377  -17.8627  -52.8802 O.2       19 UNK        -0.5000 
    109 N         -2.0585  -16.8270  -53.6345 N.am      20 UNK        -0.5000 
    110 CA        -2.6279  -15.5495  -54.0761 C.3       20 UNK         0.1400 
    111 CB        -3.0255  -14.6850  -52.8581 C.3       20 UNK        -0.1800 
    112 C         -3.7626  -15.7451  -55.1047 C.2       20 UNK         0.5000 
    113 O         -3.4837  -16.1340  -56.2399 O.2       20 UNK        -0.5000 
    114 N         -5.0093  -15.4762  -54.6961 N.am      21 UNK        -0.5000 
    115 CA        -6.2139  -15.6434  -55.5092 C.3       21 UNK         0.1400 
    116 CB        -7.3598  -14.8528  -54.8582 C.3       21 UNK        -0.1800 
    117 C         -6.6252  -17.1161  -55.7079 C.2       21 UNK         0.5000 
    118 O         -7.3321  -17.4145  -56.6718 O.2       21 UNK        -0.5000 
    119 N         -6.1994  -18.0016  -54.7998 N.am      22 UNK        -0.5000 
    120 CA        -6.4578  -19.4441  -54.8558 C.3       22 UNK         0.1400 
    121 C         -5.3978  -20.1547  -55.7380 C.2       22 UNK         0.5000 
    122 N         -5.8119  -21.0808  -56.5917 N.am      22 UNK        -0.7600 
    123 O         -4.1994  -19.9109  -55.6236 O.2       22 UNK        -0.5000 
    124 C124       -6.4995  -20.0641  -53.4368 C.3       23 UNK        -0.0398 
    125 S125       -7.9702  -19.5580  -52.4803 S.3       23 UNK        -0.2404 
    126 C126       -7.3880  -18.0775  -51.5757 C.3       23 UNK        -0.0205 
    127 H127        1.3047  -10.6043  -47.8950 H         1 UNK         0.0600 
    128 H128       -0.0560   -9.7352  -48.6099 H         1 UNK         0.0600 
    129 H129        1.4374   -9.9494  -49.5298 H         1 UNK         0.0600 
    130 H130        1.0306  -12.8398  -47.9062 H         1 UNK         0.3000 
    131 H131        0.1788  -14.2665  -50.2346 H         1 UNK         0.0600 
    132 H132       -2.0507  -13.6252  -49.1149 H         1 UNK         0.0800 
    133 H133       -1.5609  -14.5324  -47.7121 H         1 UNK         0.0800 
    134 H134       -4.2856  -15.1839  -48.9311 H         1 UNK         0.0800 
    135 H135       -3.5537  -16.1510  -47.6746 H         1 UNK         0.0800 
    136 H136       -5.7526  -16.2065  -50.5507 H         1 UNK         0.1150 
    137 H137       -6.5318  -20.4219  -50.3052 H         1 UNK         0.1150 
    138 H138       -3.3764  -18.6865  -47.9958 H         1 UNK         0.1150 
    139 H139       -4.8851  -21.8407  -49.2554 H         1 UNK         0.0800 
    140 H140       -3.4755  -21.1462  -48.4950 H         1 UNK         0.0800 
    141 H141       -3.8986  -23.3272  -47.2631 H         1 UNK         0.0800 
    142 H142       -4.8235  -23.4795  -45.7962 H         1 UNK         0.0800 
    143 H143       -2.5307  -21.4838  -46.1319 H         1 UNK         0.0600 
    144 H144       -3.2278  -20.6384  -44.2477 H         1 UNK         0.3000 
    145 H145       -4.9682  -21.5431  -41.4610 H         1 UNK         0.0600 
    146 H146       -2.9924  -21.2118  -39.9712 H         1 UNK         0.0600 
    147 H147       -3.0049  -22.8381  -40.6355 H         1 UNK         0.0600 
    148 H148       -1.9046  -21.6330  -41.2925 H         1 UNK         0.0600 
    149 H149       -2.8841  -19.5721  -42.1504 H         1 UNK         0.3000 
    150 H150       -5.1221  -17.3273  -43.6964 H         1 UNK         0.0600 
    151 H151       -5.4279  -16.7586  -41.2721 H         1 UNK         0.0600 
    152 H152       -4.2464  -15.7093  -42.0397 H         1 UNK         0.0600 
    153 H153       -3.7099  -17.0207  -40.9914 H         1 UNK         0.0600 
    154 H154       -2.3920  -17.0052  -43.1174 H         1 UNK         0.3000 
    155 H155       -1.0234  -18.9151  -45.8397 H         1 UNK         0.0600 
    156 H156       -1.5803  -15.9463  -45.4184 H         1 UNK         0.0600 
    157 H157       -1.3925  -16.8558  -46.9121 H         1 UNK         0.0600 
    158 H158        0.0075  -16.4925  -45.9232 H         1 UNK         0.0600 
    159 H159        0.2419  -17.3778  -43.8323 H         1 UNK         0.3000 
    160 H160        0.4728  -19.8655  -41.3048 H         1 UNK         0.0600 
    161 H161        2.6156  -18.8378  -43.2406 H         1 UNK         0.0600 
    162 H162        2.3184  -20.5164  -42.7858 H         1 UNK         0.0600 
    163 H163        2.9118  -19.3793  -41.5895 H         1 UNK         0.0600 
    164 H164        1.4368  -17.1441  -41.8247 H         1 UNK         0.3000 
    165 H165       -1.1880  -15.5747  -40.0048 H         1 UNK         0.0600 
    166 H166        0.7233  -14.6487  -38.7256 H         1 UNK         0.0600 
    167 H167        0.4168  -16.3064  -38.2331 H         1 UNK         0.0600 
    168 H168        1.7732  -15.9469  -39.2949 H         1 UNK         0.0600 
    169 H169        1.1734  -14.5673  -41.2699 H         1 UNK         0.3000 
    170 H170       -0.1525  -14.2184  -44.5435 H         1 UNK         0.0600 
    171 H171       -1.2046  -12.3055  -43.3235 H         1 UNK         0.0600 
    172 H172        0.2867  -12.0516  -42.4244 H         1 UNK         0.0600 
    173 H173        0.2512  -11.8135  -44.1724 H         1 UNK         0.0600 
    174 H174        2.2321  -13.1834  -43.5619 H         1 UNK         0.3000 
    175 H175        4.1405  -14.0694  -44.4145 H         1 UNK         0.0600 
    176 H176        4.3581  -16.3876  -42.3911 H         1 UNK         0.0600 
    177 H177        5.6676  -15.2950  -42.8354 H         1 UNK         0.0600 
    178 H178        4.2716  -14.6814  -41.9657 H         1 UNK         0.0600 
    179 H179        3.5598  -16.7165  -45.3120 H         1 UNK         0.3000 
    180 H180        6.2485  -16.7691  -47.6256 H         1 UNK         0.0600 
    181 H181        5.6843  -18.7766  -45.3783 H         1 UNK         0.0600 
    182 H182        7.2540  -18.1310  -45.8316 H         1 UNK         0.0600 
    183 H183        6.3911  -19.1792  -46.9458 H         1 UNK         0.0600 
    184 H184        3.8745  -18.3716  -47.0635 H         1 UNK         0.3000 
    185 H185        2.4319  -17.9329  -49.7161 H         1 UNK         0.0600 
    186 H186        2.1222  -19.2230  -47.7066 H         1 UNK         0.0600 
    187 H187        1.5946  -17.8268  -46.7766 H         1 UNK         0.0600 
    188 H188        0.5693  -18.4922  -48.0478 H         1 UNK         0.0600 
    189 H189        0.9610  -16.3528  -50.1198 H         1 UNK         0.3000 
    190 H190       -1.0601  -22.1770  -43.9073 H         1 UNK         0.3000 
    191 H191       -0.2922  -25.0080  -44.0511 H         1 UNK         0.0600 
    192 H192       -0.4833  -23.8792  -41.8579 H         1 UNK         0.0600 
    193 H193        0.7201  -22.6811  -42.3272 H         1 UNK         0.0600 
    194 H194        1.1806  -24.3694  -42.1370 H         1 UNK         0.0600 
    195 H195        1.1778  -21.8123  -44.7350 H         1 UNK         0.3000 
    196 H196        3.6265  -23.0239  -45.8641 H         1 UNK         0.0600 
    197 H197        4.2927  -20.6137  -46.1219 H         1 UNK         0.0600 
    198 H198        3.8914  -21.0318  -44.4702 H         1 UNK         0.0600 
    199 H199        2.7404  -20.1197  -45.4521 H         1 UNK         0.0600 
    200 H200        0.5418  -22.2222  -46.9922 H         1 UNK         0.3000 
    201 H201        1.1140  -21.1713  -49.6051 H         1 UNK         0.0600 
    202 H202       -1.0158  -20.7575  -48.4112 H         1 UNK         0.0600 
    203 H203       -1.3827  -22.4833  -48.4037 H         1 UNK         0.0600 
    204 H204       -1.3349  -21.5917  -49.9162 H         1 UNK         0.0600 
    205 H205        1.4226  -22.2236  -51.5141 H         1 UNK         0.3000 
    206 H206        2.4996  -24.8228  -51.5622 H         1 UNK         0.0600 
    207 H207        3.2064  -23.0371  -53.1023 H         1 UNK         0.0600 
    208 H208        2.6068  -24.4014  -54.0329 H         1 UNK         0.0600 
    209 H209        1.6014  -22.9712  -53.8308 H         1 UNK         0.0600 
    210 H210        1.3060  -26.5753  -51.1448 H         1 UNK         0.3000 
    211 H211       -0.2248  -28.1670  -51.1313 H         1 UNK         0.0600 
    212 H212       -1.0706  -27.2401  -53.9271 H         1 UNK         0.0600 
    213 H213       -1.3786  -28.8115  -53.2035 H         1 UNK         0.0600 
    214 H214        0.2674  -28.3369  -53.5867 H         1 UNK         0.0600 
    215 H215       -0.8241  -25.6661  -49.9320 H         1 UNK         0.3000 
    216 H216       -2.3558  -24.5931  -48.8035 H         1 UNK         0.0600 
    217 H217       -4.4587  -25.6734  -48.1333 H         1 UNK         0.0600 
    218 H218       -3.1513  -26.8420  -48.0896 H         1 UNK         0.0600 
    219 H219       -4.3126  -26.8633  -49.4176 H         1 UNK         0.0600 
    220 H220       -1.9260  -23.7489  -51.4616 H         1 UNK         0.3000 
    221 H221       -4.3140  -22.0779  -51.7808 H         1 UNK         0.0600 
    222 H222       -3.0739  -23.7216  -54.0640 H         1 UNK         0.0600 
    223 H223       -4.7021  -23.9219  -53.4174 H         1 UNK         0.0600 
    224 H224       -4.2696  -22.4488  -54.2717 H         1 UNK         0.0600 
    225 H225       -3.7320  -19.9671  -52.4158 H         1 UNK         0.3000 
    226 H226       -1.2076  -19.2948  -53.5430 H         1 UNK         0.0600 
    227 H227       -0.3301  -19.6255  -51.2560 H         1 UNK         0.0600 
    228 H228       -0.4707  -17.8985  -51.5132 H         1 UNK         0.0600 
    229 H229       -1.6814  -18.7426  -50.5535 H         1 UNK         0.0600 
    230 H230       -1.0673  -16.9316  -53.7963 H         1 UNK         0.3000 
    231 H231       -1.8325  -15.0205  -54.6030 H         1 UNK         0.0600 
    232 H232       -3.7548  -15.1810  -52.2165 H         1 UNK         0.0600 
    233 H233       -3.4480  -13.7294  -53.1709 H         1 UNK         0.0600 
    234 H234       -2.1525  -14.4583  -52.2463 H         1 UNK         0.0600 
    235 H235       -5.1448  -15.1854  -53.7391 H         1 UNK         0.3000 
    236 H236       -6.0245  -15.2186  -56.4973 H         1 UNK         0.0600 
    237 H237       -8.2720  -14.9262  -55.4519 H         1 UNK         0.0600 
    238 H238       -7.5885  -15.2247  -53.8587 H         1 UNK         0.0600 
    239 H239       -7.1123  -13.7943  -54.7752 H         1 UNK         0.0600 
    240 H240       -5.5381  -17.7041  -54.0893 H         1 UNK         0.3000 
    241 H241       -7.4366  -19.6049  -55.3129 H         1 UNK         0.0600 
    242 H242       -5.1308  -21.5585  -57.1610 H         1 UNK         0.3800 
    243 H243       -6.7894  -21.3031  -56.7018 H         1 UNK         0.3800 
    244 H244       -6.5339  -21.1532  -53.5025 H         1 UNK         0.0800 
    245 H245       -5.5963  -19.8288  -52.8778 H         1 UNK         0.0800 
    246 H246       -7.0776  -17.3278  -52.3036 H         1 UNK         0.0800 
    247 H247       -8.2409  -17.6504  -51.0472 H         1 UNK         0.0800 
@<TRIPOS>BOND
     1    1    2 1    
     2    1  127 1    
     3    1  128 1    
     4    1  129 1    
     5    2    3 2    
     6    2    4 am   BACKBONE|DICT|INTERRES
     7    4    5 1    
     8    4  130 1    
     9    5    6 1    
    10    5   65 1    
    11    5  131 1    
    12    6    7 1    
    13    6  132 1    
    14    6  133 1    
    15    7    8 1    
    16    8    9 1    
    17    8  134 1    
    18    8  135 1    
    19    9   10 ar   
    20    9   14 ar   
    21   10   11 ar   
    22   10  136 1    
    23   11   12 ar   
    24   11  126 1    
    25   12   13 ar   
    26   12  137 1    
    27   13   14 ar   
    28   13   15 1    
    29   14  138 1    
    30   15   16 1    
    31   15  139 1    
    32   15  140 1    
    33   16   17 1    
    34   17   18 1    
    35   17  141 1    
    36   17  142 1    
    37   18   19 1    
    38   18   67 1    
    39   18  143 1    
    40   19   20 am   BACKBONE|DICT|INTERRES
    41   19  144 1    
    42   20   21 2    
    43   20   22 1    
    44   22   23 1    
    45   22   24 1    
    46   22  145 1    
    47   23  146 1    
    48   23  147 1    
    49   23  148 1    
    50   24   25 am   BACKBONE|DICT|INTERRES
    51   24  149 1    
    52   25   26 2    
    53   25   27 1    
    54   27   28 1    
    55   27   29 1    
    56   27  150 1    
    57   28  151 1    
    58   28  152 1    
    59   28  153 1    
    60   29   30 am   BACKBONE|DICT|INTERRES
    61   29  154 1    
    62   30   31 2    
    63   30   32 1    
    64   32   33 1    
    65   32   34 1    
    66   32  155 1    
    67   33  156 1    
    68   33  157 1    
    69   33  158 1    
    70   34   35 am   BACKBONE|DICT|INTERRES
    71   34  159 1    
    72   35   36 2    
    73   35   37 1    
    74   37   38 1    
    75   37   39 1    
    76   37  160 1    
    77   38  161 1    
    78   38  162 1    
    79   38  163 1    
    80   39   40 am   BACKBONE|DICT|INTERRES
    81   39  164 1    
    82   40   41 2    
    83   40   42 1    
    84   42   43 1    
    85   42   44 1    
    86   42  165 1    
    87   43  166 1    
    88   43  167 1    
    89   43  168 1    
    90   44   45 am   BACKBONE|DICT|INTERRES
    91   44  169 1    
    92   45   46 2    
    93   45   47 1    
    94   47   48 1    
    95   47   49 1    
    96   47  170 1    
    97   48  171 1    
    98   48  172 1    
    99   48  173 1    
   100   49   50 am   BACKBONE|DICT|INTERRES
   101   49  174 1    
   102   50   51 2    
   103   50   52 1    
   104   52   53 1    
   105   52   54 1    
   106   52  175 1    
   107   53  176 1    
   108   53  177 1    
   109   53  178 1    
   110   54   55 am   BACKBONE|DICT|INTERRES
   111   54  179 1    
   112   55   56 2    
   113   55   57 1    
   114   57   58 1    
   115   57   59 1    
   116   57  180 1    
   117   58  181 1    
   118   58  182 1    
   119   58  183 1    
   120   59   60 am   BACKBONE|DICT|INTERRES
   121   59  184 1    
   122   60   61 2    
   123   60   62 1    
   124   62   63 1    
   125   62   64 1    
   126   62  185 1    
   127   63  186 1    
   128   63  187 1    
   129   63  188 1    
   130   64   65 am   BACKBONE|DICT|INTERRES
   131   64  189 1    
   132   65   66 2    
   133   67   68 2    
   134   67   69 am   BACKBONE|DICT|INTERRES
   135   69   70 1    
   136   69  190 1    
   137   70   71 1    
   138   70   72 1    
   139   70  191 1    
   140   71  192 1    
   141   71  193 1    
   142   71  194 1    
   143   72   73 2    
   144   72   74 am   BACKBONE|DICT|INTERRES
   145   74   75 1    
   146   74  195 1    
   147   75   76 1    
   148   75   77 1    
   149   75  196 1    
   150   76  197 1    
   151   76  198 1    
   152   76  199 1    
   153   77   78 2    
   154   77   79 am   BACKBONE|DICT|INTERRES
   155   79   80 1    
   156   79  200 1    
   157   80   81 1    
   158   80   82 1    
   159   80  201 1    
   160   81  202 1    
   161   81  203 1    
   162   81  204 1    
   163   82   83 2    
   164   82   84 am   BACKBONE|DICT|INTERRES
   165   84   85 1    
   166   84  205 1    
   167   85   86 1    
   168   85   87 1    
   169   85  206 1    
   170   86  207 1    
   171   86  208 1    
   172   86  209 1    
   173   87   88 2    
   174   87   89 am   BACKBONE|DICT|INTERRES
   175   89   90 1    
   176   89  210 1    
   177   90   91 1    
   178   90   92 1    
   179   90  211 1    
   180   91  212 1    
   181   91  213 1    
   182   91  214 1    
   183   92   93 2    
   184   92   94 am   BACKBONE|DICT|INTERRES
   185   94   95 1    
   186   94  215 1    
   187   95   96 1    
   188   95   97 1    
   189   95  216 1    
   190   96  217 1    
   191   96  218 1    
   192   96  219 1    
   193   97   98 2    
   194   97   99 am   BACKBONE|DICT|INTERRES
   195   99  100 1    
   196   99  220 1    
   197  100  101 1    
   198  100  102 1    
   199  100  221 1    
   200  101  222 1    
   201  101  223 1    
   202  101  224 1    
   203  102  103 2    
   204  102  104 am   BACKBONE|DICT|INTERRES
   205  104  105 1    
   206  104  225 1    
   207  105  106 1    
   208  105  107 1    
   209  105  226 1    
   210  106  227 1    
   211  106  228 1    
   212  106  229 1    
   213  107  108 2    
   214  107  109 am   BACKBONE|DICT|INTERRES
   215  109  110 1    
   216  109  230 1    
   217  110  111 1    
   218  110  112 1    
   219  110  231 1    
   220  111  232 1    
   221  111  233 1    
   222  111  234 1    
   223  112  113 2    
   224  112  114 am   BACKBONE|DICT|INTERRES
   225  114  115 1    
   226  114  235 1    
   227  115  116 1    
   228  115  117 1    
   229  115  236 1    
   230  116  237 1    
   231  116  238 1    
   232  116  239 1    
   233  117  118 2    
   234  117  119 am   BACKBONE|DICT|INTERRES
   235  119  120 1    
   236  119  240 1    
   237  120  121 1    
   238  120  124 1    
   239  120  241 1    
   240  121  122 am   BACKBONE|DICT|INTERRES
   241  121  123 2    
   242  122  242 1    
   243  122  243 1    
   244  124  125 1    
   245  124  244 1    
   246  124  245 1    
   247  125  126 1    
   248  126  246 1    
   249  126  247 1    
@<TRIPOS>SUBSTRUCTURE
     1 UNK         1 GROUP             0       ****    0 ROOT    
