@<TRIPOS>MOLECULE
3R540
247   249    1
SMALL
USER_CHARGES


@<TRIPOS>ATOM
      1 CA          4.2983  -12.5996  -47.9611 C.3       0 UNK        -0.1800 
      2 C           2.8975  -13.1629  -47.7734 C.2       0 UNK         0.5000 
      3 O           2.4517  -13.3274  -46.6382 O.2       0 UNK        -0.5000 
      4 N           2.1947  -13.4367  -48.8823 N.am      1 UNK        -0.5000 
      5 CA          0.8580  -14.0553  -48.9449 C.3       1 UNK         0.1400 
      6 C6          0.3916  -14.3095  -50.4028 C.3       23 UNK        -0.0398 
      7 S7          1.6762  -15.0678  -51.4596 S.3       23 UNK        -0.2404 
      8 C8          0.7482  -16.3198  -52.4078 C.3       23 UNK        -0.0205 
      9 C9          0.7853  -17.7120  -51.7855 C.ar      23 UNK        -0.0193 
     10 C10        -0.3882  -18.4653  -51.6862 C.ar      23 UNK        -0.1150 
     11 C11        -0.3544  -19.7755  -51.1977 C.ar      23 UNK        -0.0193 
     12 C12         0.8643  -20.3248  -50.7878 C.ar      23 UNK        -0.1150 
     13 C13         2.0468  -19.5863  -50.8808 C.ar      23 UNK        -0.0193 
     14 C14         1.9987  -18.2823  -51.3828 C.ar      23 UNK        -0.1150 
     15 C15         3.3818  -20.2059  -50.4859 C.3       23 UNK        -0.0205 
     16 S16         3.6181  -20.2547  -48.6799 S.3       23 UNK        -0.2404 
     17 C17         2.7820  -21.8156  -48.2293 C.3       23 UNK        -0.0398 
     18 CA          3.6104  -22.6581  -47.2277 C.3       11 UNK         0.1400 
     19 N           3.6441  -22.0230  -45.9058 N.am      11 UNK        -0.5000 
     20 C           4.5422  -22.2719  -44.9455 C.2       10 UNK         0.5000 
     21 O           5.4778  -23.0627  -45.0710 O.2       10 UNK        -0.5000 
     22 CA          4.3434  -21.5292  -43.6101 C.3       10 UNK         0.1400 
     23 CB          4.8845  -20.0936  -43.6949 C.3       10 UNK        -0.1800 
     24 N           2.9432  -21.4995  -43.1801 N.am      10 UNK        -0.5000 
     25 C           2.2489  -22.5759  -42.7829 C.2       9 UNK         0.5000 
     26 O           2.7227  -23.7104  -42.7201 O.2       9 UNK        -0.5000 
     27 CA          0.7671  -22.3585  -42.4234 C.3       9 UNK         0.1400 
     28 CB          0.6279  -21.7930  -41.0021 C.3       9 UNK        -0.1800 
     29 N           0.0771  -21.4846  -43.3718 N.am      9 UNK        -0.5000 
     30 C          -0.1298  -21.7828  -44.6622 C.2       8 UNK         0.5000 
     31 O           0.1820  -22.8569  -45.1722 O.2       8 UNK        -0.5000 
     32 CA         -0.7461  -20.6847  -45.5448 C.3       8 UNK         0.1400 
     33 CB         -2.2734  -20.6856  -45.4204 C.3       8 UNK        -0.1800 
     34 N          -0.2249  -19.3518  -45.2509 N.am      8 UNK        -0.5000 
     35 C           1.0646  -19.0023  -45.3533 C.2       7 UNK         0.5000 
     36 O           1.9552  -19.7658  -45.7184 O.2       7 UNK        -0.5000 
     37 CA          1.4294  -17.5810  -44.9046 C.3       7 UNK         0.1400 
     38 CB          1.0704  -16.5574  -45.9915 C.3       7 UNK        -0.1800 
     39 N           0.7823  -17.2439  -43.6354 N.am      7 UNK        -0.5000 
     40 C           1.1070  -17.8107  -42.4630 C.2       6 UNK         0.5000 
     41 O           2.0397  -18.6029  -42.3244 O.2       6 UNK        -0.5000 
     42 CA          0.2130  -17.4813  -41.2535 C.3       6 UNK         0.1400 
     43 CB          0.7029  -16.2204  -40.5294 C.3       6 UNK        -0.1800 
     44 N          -1.1930  -17.3212  -41.6271 N.am      6 UNK        -0.5000 
     45 C          -1.9910  -18.3450  -41.9653 C.2       5 UNK         0.5000 
     46 O          -1.6253  -19.5198  -41.9609 O.2       5 UNK        -0.5000 
     47 CA         -3.4200  -18.0027  -42.4316 C.3       5 UNK         0.1400 
     48 CB         -4.3863  -17.9679  -41.2393 C.3       5 UNK        -0.1800 
     49 N          -3.5106  -16.7374  -43.1626 N.am      5 UNK        -0.5000 
     50 C          -2.8540  -16.4655  -44.2975 C.2       4 UNK         0.5000 
     51 O          -2.1013  -17.2672  -44.8475 O.2       4 UNK        -0.5000 
     52 CA         -3.0480  -15.0731  -44.9215 C.3       4 UNK         0.1400 
     53 CB         -4.2662  -14.3004  -44.3697 C.3       4 UNK        -0.1800 
     54 N          -1.8436  -14.2479  -44.8260 N.am      4 UNK        -0.5000 
     55 C          -1.2006  -13.8577  -43.7130 C.2       3 UNK         0.5000 
     56 O          -1.4552  -14.2999  -42.5915 O.2       3 UNK        -0.5000 
     57 CA         -0.1057  -12.7746  -43.8623 C.3       3 UNK         0.1400 
     58 CB          1.2768  -13.3055  -43.4543 C.3       3 UNK        -0.1800 
     59 N          -0.0275  -12.2058  -45.2115 N.am      3 UNK        -0.5000 
     60 C          -0.9313  -11.3596  -45.7324 C.2       2 UNK         0.5000 
     61 O          -1.8598  -10.8789  -45.0819 O.2       2 UNK        -0.5000 
     62 CA         -0.8148  -11.0127  -47.2325 C.3       2 UNK         0.1400 
     63 CB         -0.2485   -9.5959  -47.4129 C.3       2 UNK        -0.1800 
     64 N           0.0013  -11.9459  -48.0122 N.am      2 UNK        -0.5000 
     65 C          -0.2221  -13.2588  -48.1762 C.2       1 UNK         0.5000 
     66 O          -1.2009  -13.8436  -47.7130 O.2       1 UNK        -0.5000 
     67 C           3.0939  -24.1160  -47.1786 C.2       11 UNK         0.5000 
     68 O           3.3008  -24.8518  -48.1443 O.2       11 UNK        -0.5000 
     69 N           2.4327  -24.5032  -46.0762 N.am      12 UNK        -0.5000 
     70 CA          1.7612  -25.7869  -45.8278 C.3       12 UNK         0.1400 
     71 CB          2.7737  -26.9506  -45.8056 C.3       12 UNK        -0.1800 
     72 C           0.5638  -26.0395  -46.7733 C.2       12 UNK         0.5000 
     73 O           0.2244  -27.1900  -47.0553 O.2       12 UNK        -0.5000 
     74 N          -0.0560  -24.9467  -47.2272 N.am      13 UNK        -0.5000 
     75 CA         -1.1619  -24.8359  -48.1717 C.3       13 UNK         0.1400 
     76 CB         -0.7994  -25.4738  -49.5291 C.3       13 UNK        -0.1800 
     77 C          -1.4021  -23.3281  -48.3586 C.2       13 UNK         0.5000 
     78 O          -0.4219  -22.5984  -48.4923 O.2       13 UNK        -0.5000 
     79 N          -2.6358  -22.8170  -48.3838 N.am      14 UNK        -0.5000 
     80 CA         -3.9248  -23.4489  -48.1443 C.3       14 UNK         0.1400 
     81 CB         -4.4024  -24.1960  -49.4014 C.3       14 UNK        -0.1800 
     82 C          -4.9011  -22.3226  -47.7795 C.2       14 UNK         0.5000 
     83 O          -4.7638  -21.2115  -48.3045 O.2       14 UNK        -0.5000 
     84 N          -5.8591  -22.6283  -46.8940 N.am      15 UNK        -0.5000 
     85 CA         -6.9003  -21.7319  -46.3790 C.3       15 UNK         0.1400 
     86 CB         -7.9614  -21.4760  -47.4726 C.3       15 UNK        -0.1800 
     87 C          -6.3058  -20.4471  -45.7583 C.2       15 UNK         0.5000 
     88 O          -5.5001  -20.5451  -44.8326 O.2       15 UNK        -0.5000 
     89 N          -6.6865  -19.2795  -46.2884 N.am      16 UNK        -0.5000 
     90 CA         -6.1739  -17.9617  -45.9165 C.3       16 UNK         0.1400 
     91 CB         -7.3697  -17.0282  -45.6535 C.3       16 UNK        -0.1800 
     92 C          -5.2338  -17.4342  -47.0193 C.2       16 UNK         0.5000 
     93 O          -5.3550  -16.2809  -47.4321 O.2       16 UNK        -0.5000 
     94 N          -4.3311  -18.3097  -47.4842 N.am      17 UNK        -0.5000 
     95 CA         -3.4029  -18.1407  -48.6068 C.3       17 UNK         0.1400 
     96 CB         -2.3902  -17.0036  -48.3660 C.3       17 UNK        -0.1800 
     97 C          -4.1640  -18.0139  -49.9379 C.2       17 UNK         0.5000 
     98 O          -4.0229  -17.0206  -50.6536 O.2       17 UNK        -0.5000 
     99 N          -4.9836  -19.0337  -50.2257 N.am      18 UNK        -0.5000 
    100 CA        -5.7918  -19.1619  -51.4362 C.3       18 UNK         0.1400 
    101 CB        -6.8080  -20.2996  -51.2391 C.3       18 UNK        -0.1800 
    102 C         -4.9144  -19.3928  -52.6795 C.2       18 UNK         0.5000 
    103 O         -4.6594  -20.5389  -53.0526 O.2       18 UNK        -0.5000 
    104 N         -4.4476  -18.3000  -53.2965 N.am      19 UNK        -0.5000 
    105 CA        -3.5670  -18.2985  -54.4694 C.3       19 UNK         0.1400 
    106 CB        -3.2067  -16.8500  -54.8283 C.3       19 UNK        -0.1800 
    107 C         -4.1464  -19.0384  -55.6918 C.2       19 UNK         0.5000 
    108 O         -3.3837  -19.6037  -56.4741 O.2       19 UNK        -0.5000 
    109 N         -5.4815  -19.0716  -55.8038 N.am      20 UNK        -0.5000 
    110 CA        -6.2186  -19.8471  -56.8026 C.3       20 UNK         0.1400 
    111 CB        -7.6981  -19.4349  -56.7601 C.3       20 UNK        -0.1800 
    112 C         -6.0795  -21.3738  -56.6234 C.2       20 UNK         0.5000 
    113 O         -6.1786  -22.1029  -57.6111 O.2       20 UNK        -0.5000 
    114 N         -5.8503  -21.8298  -55.3834 N.am      21 UNK        -0.5000 
    115 CA        -5.5820  -23.2286  -55.0550 C.3       21 UNK         0.1400 
    116 CB        -6.1181  -23.5444  -53.6481 C.3       21 UNK        -0.1800 
    117 C         -4.0782  -23.5348  -55.1505 C.2       21 UNK         0.5000 
    118 O         -3.7089  -24.5775  -55.6927 O.2       21 UNK        -0.5000 
    119 N         -3.2425  -22.6265  -54.6278 N.am      22 UNK        -0.5000 
    120 CA        -1.7750  -22.7509  -54.6369 C.3       22 UNK         0.1400 
    121 C         -1.1200  -22.6012  -56.0395 C.2       22 UNK         0.5000 
    122 N         -1.6742  -21.8170  -56.9546 N.am      22 UNK        -0.7600 
    123 O         -0.0913  -23.2170  -56.3050 O.2       22 UNK        -0.5000 
    124 C124       -1.1019  -21.8001  -53.6179 C.3       23 UNK        -0.0398 
    125 S125       -1.5347  -22.2262  -51.8995 S.3       23 UNK        -0.2404 
    126 C126       -1.6399  -20.5868  -51.1093 C.3       23 UNK        -0.0205 
    127 H127        4.3724  -11.6171  -47.4951 H         1 UNK         0.0600 
    128 H128        4.5568  -12.4978  -49.0154 H         1 UNK         0.0600 
    129 H129        5.0310  -13.2566  -47.4927 H         1 UNK         0.0600 
    130 H130        2.6277  -13.2851  -49.7828 H         1 UNK         0.3000 
    131 H131        0.9425  -15.0256  -48.4539 H         1 UNK         0.0600 
    132 H132       -0.4946  -14.9470  -50.3993 H         1 UNK         0.0800 
    133 H133        0.0925  -13.3742  -50.8798 H         1 UNK         0.0800 
    134 H134       -0.2781  -15.9809  -52.5581 H         1 UNK         0.0800 
    135 H135        1.1902  -16.3881  -53.4025 H         1 UNK         0.0800 
    136 H136       -1.3277  -18.0368  -52.0071 H         1 UNK         0.1150 
    137 H137        0.8897  -21.3366  -50.4104 H         1 UNK         0.1150 
    138 H138        2.9127  -17.7131  -51.4771 H         1 UNK         0.1150 
    139 H139        3.4706  -21.2065  -50.9108 H         1 UNK         0.0800 
    140 H140        4.2001  -19.6285  -50.9186 H         1 UNK         0.0800 
    141 H141        1.8079  -21.5692  -47.8063 H         1 UNK         0.0800 
    142 H142        2.5832  -22.3859  -49.1378 H         1 UNK         0.0800 
    143 H143        4.6354  -22.7132  -47.6008 H         1 UNK         0.0600 
    144 H144        2.9499  -21.2941  -45.7462 H         1 UNK         0.3000 
    145 H145        4.9172  -22.0597  -42.8474 H         1 UNK         0.0600 
    146 H146        4.8079  -19.5866  -42.7328 H         1 UNK         0.0600 
    147 H147        4.3405  -19.4986  -44.4289 H         1 UNK         0.0600 
    148 H148        5.9363  -20.0893  -43.9832 H         1 UNK         0.0600 
    149 H149        2.4843  -20.5962  -43.1900 H         1 UNK         0.3000 
    150 H150        0.2738  -23.3325  -42.4490 H         1 UNK         0.0600 
    151 H151        1.1277  -22.4346  -40.2753 H         1 UNK         0.0600 
    152 H152       -0.4192  -21.7230  -40.7073 H         1 UNK         0.0600 
    153 H153        1.0659  -20.7982  -40.9188 H         1 UNK         0.0600 
    154 H154       -0.2789  -20.6068  -43.0083 H         1 UNK         0.3000 
    155 H155       -0.4867  -20.9037  -46.5803 H         1 UNK         0.0600 
    156 H156       -2.6869  -21.6643  -45.6645 H         1 UNK         0.0600 
    157 H157       -2.7207  -19.9624  -46.0980 H         1 UNK         0.0600 
    158 H158       -2.5954  -20.4405  -44.4090 H         1 UNK         0.0600 
    159 H159       -0.9021  -18.6422  -44.9785 H         1 UNK         0.3000 
    160 H160        2.5114  -17.5473  -44.7592 H         1 UNK         0.0600 
    161 H161       -0.0047  -16.4432  -46.1173 H         1 UNK         0.0600 
    162 H162        1.4832  -16.8577  -46.9556 H         1 UNK         0.0600 
    163 H163        1.4831  -15.5791  -45.7608 H         1 UNK         0.0600 
    164 H164       -0.0438  -16.6655  -43.6828 H         1 UNK         0.3000 
    165 H165        0.2895  -18.3160  -40.5531 H         1 UNK         0.0600 
    166 H166        0.1323  -16.0441  -39.6176 H         1 UNK         0.0600 
    167 H167        1.7516  -16.3144  -40.2447 H         1 UNK         0.0600 
    168 H168        0.6097  -15.3360  -41.1567 H         1 UNK         0.0600 
    169 H169       -1.5453  -16.3740  -41.7002 H         1 UNK         0.3000 
    170 H170       -3.7451  -18.7963  -43.1071 H         1 UNK         0.0600 
    171 H171       -4.3572  -18.9079  -40.6865 H         1 UNK         0.0600 
    172 H172       -4.1363  -17.1679  -40.5413 H         1 UNK         0.0600 
    173 H173       -5.4146  -17.8189  -41.5694 H         1 UNK         0.0600 
    174 H174       -4.0812  -16.0139  -42.7499 H         1 UNK         0.3000 
    175 H175       -3.2179  -15.2377  -45.9857 H         1 UNK         0.0600 
    176 H176       -4.1496  -14.0346  -43.3185 H         1 UNK         0.0600 
    177 H177       -4.4183  -13.3749  -44.9254 H         1 UNK         0.0600 
    178 H178       -5.1810  -14.8843  -44.4676 H         1 UNK         0.0600 
    179 H179       -1.5123  -13.8914  -45.7165 H         1 UNK         0.3000 
    180 H180       -0.3629  -11.9674  -43.1735 H         1 UNK         0.0600 
    181 H181        2.0543  -12.5620  -43.6308 H         1 UNK         0.0600 
    182 H182        1.5473  -14.2064  -44.0016 H         1 UNK         0.0600 
    183 H183        1.3018  -13.5456  -42.3922 H         1 UNK         0.0600 
    184 H184        0.7240  -12.5495  -45.8015 H         1 UNK         0.3000 
    185 H185       -1.8247  -11.0351  -47.6467 H         1 UNK         0.0600 
    186 H186       -0.2453   -9.3019  -48.4627 H         1 UNK         0.0600 
    187 H187       -0.8493   -8.8619  -46.8741 H         1 UNK         0.0600 
    188 H188        0.7735   -9.5219  -47.0388 H         1 UNK         0.0600 
    189 H189        0.8471  -11.5672  -48.4128 H         1 UNK         0.3000 
    190 H190        2.2780  -23.8012  -45.3639 H         1 UNK         0.3000 
    191 H191        1.3363  -25.7060  -44.8263 H         1 UNK         0.0600 
    192 H192        2.3028  -27.8708  -45.4581 H         1 UNK         0.0600 
    193 H193        3.6034  -26.7374  -45.1315 H         1 UNK         0.0600 
    194 H194        3.1861  -27.1501  -46.7948 H         1 UNK         0.0600 
    195 H195        0.2707  -24.0488  -46.8810 H         1 UNK         0.3000 
    196 H196       -2.0331  -25.3319  -47.7465 H         1 UNK         0.0600 
    197 H197       -1.5525  -25.2520  -50.2856 H         1 UNK         0.0600 
    198 H198       -0.7260  -26.5585  -49.4584 H         1 UNK         0.0600 
    199 H199        0.1530  -25.0964  -49.9042 H         1 UNK         0.0600 
    200 H200       -2.7343  -21.8216  -48.5229 H         1 UNK         0.3000 
    201 H201       -3.8564  -24.1321  -47.2964 H         1 UNK         0.0600 
    202 H202       -3.7803  -25.0629  -49.6165 H         1 UNK         0.0600 
    203 H203       -4.3917  -23.5484  -50.2798 H         1 UNK         0.0600 
    204 H204       -5.4228  -24.5606  -49.2762 H         1 UNK         0.0600 
    205 H205       -5.8673  -23.5588  -46.5006 H         1 UNK         0.3000 
    206 H206       -7.3911  -22.2618  -45.5614 H         1 UNK         0.0600 
    207 H207       -8.3804  -22.4154  -47.8334 H         1 UNK         0.0600 
    208 H208       -8.7934  -20.8840  -47.0893 H         1 UNK         0.0600 
    209 H209       -7.5429  -20.9543  -48.3323 H         1 UNK         0.0600 
    210 H210       -7.3241  -19.2997  -47.0715 H         1 UNK         0.3000 
    211 H211       -5.5870  -18.0220  -44.9979 H         1 UNK         0.0600 
    212 H212       -7.9876  -16.9056  -46.5439 H         1 UNK         0.0600 
    213 H213       -7.0398  -16.0366  -45.3444 H         1 UNK         0.0600 
    214 H214       -8.0040  -17.4189  -44.8576 H         1 UNK         0.0600 
    215 H215       -4.3808  -19.2510  -47.1175 H         1 UNK         0.3000 
    216 H216       -2.8299  -19.0661  -48.6640 H         1 UNK         0.0600 
    217 H217       -1.8374  -17.1608  -47.4423 H         1 UNK         0.0600 
    218 H218       -2.8712  -16.0272  -48.3122 H         1 UNK         0.0600 
    219 H219       -1.6580  -16.9596  -49.1729 H         1 UNK         0.0600 
    220 H220       -5.0142  -19.8192  -49.5804 H         1 UNK         0.3000 
    221 H221       -6.3509  -18.2356  -51.5830 H         1 UNK         0.0600 
    222 H222       -7.3672  -20.4918  -52.1558 H         1 UNK         0.0600 
    223 H223       -6.3212  -21.2321  -50.9492 H         1 UNK         0.0600 
    224 H224       -7.5342  -20.0433  -50.4689 H         1 UNK         0.0600 
    225 H225       -4.6354  -17.4007  -52.8724 H         1 UNK         0.3000 
    226 H226       -2.6478  -18.8133  -54.1861 H         1 UNK         0.0600 
    227 H227       -2.7074  -16.3508  -53.9974 H         1 UNK         0.0600 
    228 H228       -2.5278  -16.8158  -55.6815 H         1 UNK         0.0600 
    229 H229       -4.0918  -16.2681  -55.0880 H         1 UNK         0.0600 
    230 H230       -6.0303  -18.5745  -55.1182 H         1 UNK         0.3000 
    231 H231       -5.8204  -19.5937  -57.7875 H         1 UNK         0.0600 
    232 H232       -8.2754  -19.9738  -57.5126 H         1 UNK         0.0600 
    233 H233       -7.8175  -18.3703  -56.9622 H         1 UNK         0.0600 
    234 H234       -8.1469  -19.6461  -55.7886 H         1 UNK         0.0600 
    235 H235       -5.7159  -21.1659  -54.6297 H         1 UNK         0.3000 
    236 H236       -6.1057  -23.8764  -55.7614 H         1 UNK         0.0600 
    237 H237       -5.6036  -22.9741  -52.8744 H         1 UNK         0.0600 
    238 H238       -7.1830  -23.3243  -53.5732 H         1 UNK         0.0600 
    239 H239       -5.9864  -24.6010  -53.4125 H         1 UNK         0.0600 
    240 H240       -3.6315  -21.8241  -54.1439 H         1 UNK         0.3000 
    241 H241       -1.5460  -23.7698  -54.3170 H         1 UNK         0.0600 
    242 H242       -1.2406  -21.7397  -57.8603 H         1 UNK         0.3800 
    243 H243       -2.4608  -21.2135  -56.7300 H         1 UNK         0.3800 
    244 H244       -1.3769  -20.7660  -53.8258 H         1 UNK         0.0800 
    245 H245       -0.0142  -21.8497  -53.6960 H         1 UNK         0.0800 
    246 H246       -2.4651  -20.0399  -51.5572 H         1 UNK         0.0800 
    247 H247       -1.8910  -20.7212  -50.0593 H         1 UNK         0.0800 
@<TRIPOS>BOND
     1    1    2 1    
     2    1  127 1    
     3    1  128 1    
     4    1  129 1    
     5    2    3 2    
     6    2    4 am   BACKBONE|DICT|INTERRES
     7    4    5 1    
     8    4  130 1    
     9    5    6 1    
    10    5   65 1    
    11    5  131 1    
    12    6    7 1    
    13    6  132 1    
    14    6  133 1    
    15    7    8 1    
    16    8    9 1    
    17    8  134 1    
    18    8  135 1    
    19    9   10 ar   
    20    9   14 ar   
    21   10   11 ar   
    22   10  136 1    
    23   11   12 ar   
    24   11  126 1    
    25   12   13 ar   
    26   12  137 1    
    27   13   14 ar   
    28   13   15 1    
    29   14  138 1    
    30   15   16 1    
    31   15  139 1    
    32   15  140 1    
    33   16   17 1    
    34   17   18 1    
    35   17  141 1    
    36   17  142 1    
    37   18   19 1    
    38   18   67 1    
    39   18  143 1    
    40   19   20 am   BACKBONE|DICT|INTERRES
    41   19  144 1    
    42   20   21 2    
    43   20   22 1    
    44   22   23 1    
    45   22   24 1    
    46   22  145 1    
    47   23  146 1    
    48   23  147 1    
    49   23  148 1    
    50   24   25 am   BACKBONE|DICT|INTERRES
    51   24  149 1    
    52   25   26 2    
    53   25   27 1    
    54   27   28 1    
    55   27   29 1    
    56   27  150 1    
    57   28  151 1    
    58   28  152 1    
    59   28  153 1    
    60   29   30 am   BACKBONE|DICT|INTERRES
    61   29  154 1    
    62   30   31 2    
    63   30   32 1    
    64   32   33 1    
    65   32   34 1    
    66   32  155 1    
    67   33  156 1    
    68   33  157 1    
    69   33  158 1    
    70   34   35 am   BACKBONE|DICT|INTERRES
    71   34  159 1    
    72   35   36 2    
    73   35   37 1    
    74   37   38 1    
    75   37   39 1    
    76   37  160 1    
    77   38  161 1    
    78   38  162 1    
    79   38  163 1    
    80   39   40 am   BACKBONE|DICT|INTERRES
    81   39  164 1    
    82   40   41 2    
    83   40   42 1    
    84   42   43 1    
    85   42   44 1    
    86   42  165 1    
    87   43  166 1    
    88   43  167 1    
    89   43  168 1    
    90   44   45 am   BACKBONE|DICT|INTERRES
    91   44  169 1    
    92   45   46 2    
    93   45   47 1    
    94   47   48 1    
    95   47   49 1    
    96   47  170 1    
    97   48  171 1    
    98   48  172 1    
    99   48  173 1    
   100   49   50 am   BACKBONE|DICT|INTERRES
   101   49  174 1    
   102   50   51 2    
   103   50   52 1    
   104   52   53 1    
   105   52   54 1    
   106   52  175 1    
   107   53  176 1    
   108   53  177 1    
   109   53  178 1    
   110   54   55 am   BACKBONE|DICT|INTERRES
   111   54  179 1    
   112   55   56 2    
   113   55   57 1    
   114   57   58 1    
   115   57   59 1    
   116   57  180 1    
   117   58  181 1    
   118   58  182 1    
   119   58  183 1    
   120   59   60 am   BACKBONE|DICT|INTERRES
   121   59  184 1    
   122   60   61 2    
   123   60   62 1    
   124   62   63 1    
   125   62   64 1    
   126   62  185 1    
   127   63  186 1    
   128   63  187 1    
   129   63  188 1    
   130   64   65 am   BACKBONE|DICT|INTERRES
   131   64  189 1    
   132   65   66 2    
   133   67   68 2    
   134   67   69 am   BACKBONE|DICT|INTERRES
   135   69   70 1    
   136   69  190 1    
   137   70   71 1    
   138   70   72 1    
   139   70  191 1    
   140   71  192 1    
   141   71  193 1    
   142   71  194 1    
   143   72   73 2    
   144   72   74 am   BACKBONE|DICT|INTERRES
   145   74   75 1    
   146   74  195 1    
   147   75   76 1    
   148   75   77 1    
   149   75  196 1    
   150   76  197 1    
   151   76  198 1    
   152   76  199 1    
   153   77   78 2    
   154   77   79 am   BACKBONE|DICT|INTERRES
   155   79   80 1    
   156   79  200 1    
   157   80   81 1    
   158   80   82 1    
   159   80  201 1    
   160   81  202 1    
   161   81  203 1    
   162   81  204 1    
   163   82   83 2    
   164   82   84 am   BACKBONE|DICT|INTERRES
   165   84   85 1    
   166   84  205 1    
   167   85   86 1    
   168   85   87 1    
   169   85  206 1    
   170   86  207 1    
   171   86  208 1    
   172   86  209 1    
   173   87   88 2    
   174   87   89 am   BACKBONE|DICT|INTERRES
   175   89   90 1    
   176   89  210 1    
   177   90   91 1    
   178   90   92 1    
   179   90  211 1    
   180   91  212 1    
   181   91  213 1    
   182   91  214 1    
   183   92   93 2    
   184   92   94 am   BACKBONE|DICT|INTERRES
   185   94   95 1    
   186   94  215 1    
   187   95   96 1    
   188   95   97 1    
   189   95  216 1    
   190   96  217 1    
   191   96  218 1    
   192   96  219 1    
   193   97   98 2    
   194   97   99 am   BACKBONE|DICT|INTERRES
   195   99  100 1    
   196   99  220 1    
   197  100  101 1    
   198  100  102 1    
   199  100  221 1    
   200  101  222 1    
   201  101  223 1    
   202  101  224 1    
   203  102  103 2    
   204  102  104 am   BACKBONE|DICT|INTERRES
   205  104  105 1    
   206  104  225 1    
   207  105  106 1    
   208  105  107 1    
   209  105  226 1    
   210  106  227 1    
   211  106  228 1    
   212  106  229 1    
   213  107  108 2    
   214  107  109 am   BACKBONE|DICT|INTERRES
   215  109  110 1    
   216  109  230 1    
   217  110  111 1    
   218  110  112 1    
   219  110  231 1    
   220  111  232 1    
   221  111  233 1    
   222  111  234 1    
   223  112  113 2    
   224  112  114 am   BACKBONE|DICT|INTERRES
   225  114  115 1    
   226  114  235 1    
   227  115  116 1    
   228  115  117 1    
   229  115  236 1    
   230  116  237 1    
   231  116  238 1    
   232  116  239 1    
   233  117  118 2    
   234  117  119 am   BACKBONE|DICT|INTERRES
   235  119  120 1    
   236  119  240 1    
   237  120  121 1    
   238  120  124 1    
   239  120  241 1    
   240  121  122 am   BACKBONE|DICT|INTERRES
   241  121  123 2    
   242  122  242 1    
   243  122  243 1    
   244  124  125 1    
   245  124  244 1    
   246  124  245 1    
   247  125  126 1    
   248  126  246 1    
   249  126  247 1    
@<TRIPOS>SUBSTRUCTURE
     1 UNK         1 GROUP             0       ****    0 ROOT    
