@<TRIPOS>MOLECULE
3R540
247   249    1
SMALL
USER_CHARGES


@<TRIPOS>ATOM
      1 CA          0.8833  -11.3906  -47.1981 C.3       0 UNK        -0.1800 
      2 C          -0.1367  -11.3335  -48.3334 C.2       0 UNK         0.5000 
      3 O          -0.7206  -10.2762  -48.5611 O.2       0 UNK        -0.5000 
      4 N          -0.3961  -12.4243  -49.0697 N.am      1 UNK        -0.5000 
      5 CA          0.1862  -13.7681  -48.9340 C.3       1 UNK         0.1400 
      6 C6         -0.1298  -14.6479  -50.1662 C.3       23 UNK        -0.0398 
      7 S7          0.7809  -14.0980  -51.6483 S.3       23 UNK        -0.2404 
      8 C8          2.2362  -15.1968  -51.6116 C.3       23 UNK        -0.0205 
      9 C9          1.8821  -16.6254  -51.9997 C.ar      23 UNK        -0.0193 
     10 C10         1.7664  -16.9745  -53.3473 C.ar      23 UNK        -0.1150 
     11 C11         1.4158  -18.2759  -53.7155 C.ar      23 UNK        -0.0193 
     12 C12         1.1817  -19.2282  -52.7197 C.ar      23 UNK        -0.1150 
     13 C13         1.3156  -18.9070  -51.3654 C.ar      23 UNK        -0.0193 
     14 C14         1.6768  -17.5984  -51.0161 C.ar      23 UNK        -0.1150 
     15 C15         1.0707  -20.0177  -50.3403 C.3       23 UNK        -0.0205 
     16 S16         1.3851  -19.6002  -48.5885 S.3       23 UNK        -0.2404 
     17 C17        -0.1478  -18.7186  -48.1313 C.3       23 UNK        -0.0398 
     18 CA         -1.2857  -19.6804  -47.7152 C.3       11 UNK         0.1400 
     19 N          -0.8793  -20.6561  -46.7019 N.am      11 UNK        -0.5000 
     20 C          -1.5687  -21.7652  -46.4055 C.2       10 UNK         0.5000 
     21 O          -2.6159  -22.0818  -46.9652 O.2       10 UNK        -0.5000 
     22 CA         -1.0222  -22.6342  -45.2598 C.3       10 UNK         0.1400 
     23 CB          0.0874  -23.5647  -45.7709 C.3       10 UNK        -0.1800 
     24 N          -0.5133  -21.8202  -44.1552 N.am      10 UNK        -0.5000 
     25 C          -1.2809  -21.0313  -43.3892 C.2       9 UNK         0.5000 
     26 O          -2.5069  -20.9896  -43.4705 O.2       9 UNK        -0.5000 
     27 CA         -0.5575  -20.0873  -42.4137 C.3       9 UNK         0.1400 
     28 CB         -0.4067  -20.7340  -41.0299 C.3       9 UNK        -0.1800 
     29 N           0.7587  -19.6698  -42.8958 N.am      9 UNK        -0.5000 
     30 C           0.9870  -18.8863  -43.9590 C.2       8 UNK         0.5000 
     31 O           0.0836  -18.4464  -44.6724 O.2       8 UNK        -0.5000 
     32 CA          2.4650  -18.5492  -44.2578 C.3       8 UNK         0.1400 
     33 CB          2.6217  -17.3520  -45.2114 C.3       8 UNK        -0.1800 
     34 N           3.2168  -18.3029  -43.0198 N.am      8 UNK        -0.5000 
     35 C           3.7971  -19.2612  -42.2804 C.2       7 UNK         0.5000 
     36 O           3.7929  -20.4471  -42.6133 O.2       7 UNK        -0.5000 
     37 CA          4.3924  -18.8758  -40.9108 C.3       7 UNK         0.1400 
     38 CB          5.6847  -19.6528  -40.5814 C.3       7 UNK        -0.1800 
     39 N           4.5542  -17.4360  -40.6982 N.am      7 UNK        -0.5000 
     40 C           5.4527  -16.6083  -41.2532 C.2       6 UNK         0.5000 
     41 O           6.3013  -16.9681  -42.0698 O.2       6 UNK        -0.5000 
     42 CA          5.3877  -15.1252  -40.8282 C.3       6 UNK         0.1400 
     43 CB          5.5615  -14.1891  -42.0367 C.3       6 UNK        -0.1800 
     44 N           4.1184  -14.8132  -40.1662 N.am      6 UNK        -0.5000 
     45 C           3.9291  -14.7084  -38.8433 C.2       5 UNK         0.5000 
     46 O           4.8380  -14.7867  -38.0166 O.2       5 UNK        -0.5000 
     47 CA          2.4789  -14.5061  -38.3515 C.3       5 UNK         0.1400 
     48 CB          2.2258  -13.0257  -38.0284 C.3       5 UNK        -0.1800 
     49 N           1.4622  -14.9612  -39.3045 N.am      5 UNK        -0.5000 
     50 C           1.2436  -16.2369  -39.6552 C.2       4 UNK         0.5000 
     51 O           1.8480  -17.1918  -39.1677 O.2       4 UNK        -0.5000 
     52 CA          0.2425  -16.4772  -40.8042 C.3       4 UNK         0.1400 
     53 CB         -1.1747  -16.7118  -40.2640 C.3       4 UNK        -0.1800 
     54 N           0.2143  -15.3963  -41.7966 N.am      4 UNK        -0.5000 
     55 C           1.2696  -14.9931  -42.5153 C.2       3 UNK         0.5000 
     56 O           2.3843  -15.5098  -42.4171 O.2       3 UNK        -0.5000 
     57 CA          1.0362  -13.8292  -43.4952 C.3       3 UNK         0.1400 
     58 CB          2.3469  -13.2969  -44.1007 C.3       3 UNK        -0.1800 
     59 N           0.1433  -14.2258  -44.5799 N.am      3 UNK        -0.5000 
     60 C          -1.1921  -14.2568  -44.5233 C.2       2 UNK         0.5000 
     61 O          -1.8220  -13.9731  -43.5026 O.2       2 UNK        -0.5000 
     62 CA         -1.9410  -14.6630  -45.8154 C.3       2 UNK         0.1400 
     63 CB         -3.4351  -14.2950  -45.7651 C.3       2 UNK        -0.1800 
     64 N          -1.3668  -14.0899  -47.0377 N.am      2 UNK        -0.5000 
     65 C          -0.2449  -14.4984  -47.6452 C.2       1 UNK         0.5000 
     66 O           0.4644  -15.4026  -47.2073 O.2       1 UNK        -0.5000 
     67 C          -2.5426  -18.9100  -47.2655 C.2       11 UNK         0.5000 
     68 O          -3.4439  -18.6948  -48.0773 O.2       11 UNK        -0.5000 
     69 N          -2.6056  -18.5722  -45.9676 N.am      12 UNK        -0.5000 
     70 CA         -3.7750  -17.9832  -45.3112 C.3       12 UNK         0.1400 
     71 CB         -3.4133  -17.5821  -43.8720 C.3       12 UNK        -0.1800 
     72 C          -5.0077  -18.9081  -45.3289 C.2       12 UNK         0.5000 
     73 O          -6.1271  -18.4205  -45.4911 O.2       12 UNK        -0.5000 
     74 N          -4.7852  -20.2252  -45.2201 N.am      13 UNK        -0.5000 
     75 CA         -5.7887  -21.2848  -45.3448 C.3       13 UNK         0.1400 
     76 CB         -5.2639  -22.5581  -44.6577 C.3       13 UNK        -0.1800 
     77 C          -6.2054  -21.5281  -46.8130 C.2       13 UNK         0.5000 
     78 O          -6.0871  -22.6456  -47.3215 O.2       13 UNK        -0.5000 
     79 N          -6.6909  -20.4613  -47.4632 N.am      14 UNK        -0.5000 
     80 CA         -7.2443  -20.4064  -48.8184 C.3       14 UNK         0.1400 
     81 CB         -8.6184  -21.1082  -48.8530 C.3       14 UNK        -0.1800 
     82 C          -6.2785  -20.9372  -49.8965 C.2       14 UNK         0.5000 
     83 O          -6.6886  -21.7287  -50.7456 O.2       14 UNK        -0.5000 
     84 N          -5.0078  -20.5106  -49.8304 N.am      15 UNK        -0.5000 
     85 CA         -3.9136  -20.9097  -50.7227 C.3       15 UNK         0.1400 
     86 CB         -4.1362  -20.3441  -52.1396 C.3       15 UNK        -0.1800 
     87 C          -3.6812  -22.4348  -50.7070 C.2       15 UNK         0.5000 
     88 O          -3.7043  -23.0788  -51.7577 O.2       15 UNK        -0.5000 
     89 N          -3.5021  -22.9811  -49.4958 N.am      16 UNK        -0.5000 
     90 CA         -3.3347  -24.4000  -49.1727 C.3       16 UNK         0.1400 
     91 CB         -1.9897  -24.9231  -49.7198 C.3       16 UNK        -0.1800 
     92 C          -4.5456  -25.2422  -49.6173 C.2       16 UNK         0.5000 
     93 O          -4.3737  -26.2686  -50.2740 O.2       16 UNK        -0.5000 
     94 N          -5.7559  -24.7623  -49.2914 N.am      17 UNK        -0.5000 
     95 CA         -7.0532  -25.3002  -49.7229 C.3       17 UNK         0.1400 
     96 CB         -7.3483  -26.6391  -49.0163 C.3       17 UNK        -0.1800 
     97 C          -7.1644  -25.3858  -51.2624 C.2       17 UNK         0.5000 
     98 O          -7.5734  -26.4109  -51.8101 O.2       17 UNK        -0.5000 
     99 N          -6.7479  -24.2963  -51.9190 N.am      18 UNK        -0.5000 
    100 CA        -6.6469  -24.0646  -53.3595 C.3       18 UNK         0.1400 
    101 CB        -8.0273  -24.1675  -54.0389 C.3       18 UNK        -0.1800 
    102 C         -5.5685  -24.8922  -54.0926 C.2       18 UNK         0.5000 
    103 O         -5.4922  -24.8073  -55.3193 O.2       18 UNK        -0.5000 
    104 N         -4.7283  -25.6483  -53.3698 N.am      19 UNK        -0.5000 
    105 CA        -3.6407  -26.4399  -53.9550 C.3       19 UNK         0.1400 
    106 CB        -3.1572  -27.4893  -52.9440 C.3       19 UNK        -0.1800 
    107 C         -2.4560  -25.5824  -54.4411 C.2       19 UNK         0.5000 
    108 O         -1.7303  -26.0162  -55.3367 O.2       19 UNK        -0.5000 
    109 N         -2.2836  -24.3906  -53.8563 N.am      20 UNK        -0.5000 
    110 CA        -1.2299  -23.4284  -54.1761 C.3       20 UNK         0.1400 
    111 CB        -0.3686  -23.2013  -52.9196 C.3       20 UNK        -0.1800 
    112 C         -1.8287  -22.1150  -54.7155 C.2       20 UNK         0.5000 
    113 O         -1.2183  -21.0571  -54.5564 O.2       20 UNK        -0.5000 
    114 N         -3.0189  -22.1889  -55.3296 N.am      21 UNK        -0.5000 
    115 CA        -3.7519  -21.0588  -55.9026 C.3       21 UNK         0.1400 
    116 CB        -5.2275  -21.4533  -56.0837 C.3       21 UNK        -0.1800 
    117 C         -3.1177  -20.5520  -57.2137 C.2       21 UNK         0.5000 
    118 O         -3.6319  -20.8211  -58.3016 O.2       21 UNK        -0.5000 
    119 N         -1.9998  -19.8339  -57.0799 N.am      22 UNK        -0.5000 
    120 CA        -1.3329  -19.0734  -58.1454 C.3       22 UNK         0.1400 
    121 C         -2.1973  -17.9102  -58.7172 C.2       22 UNK         0.5000 
    122 N         -1.9504  -17.5023  -59.9551 N.am      22 UNK        -0.7600 
    123 O         -3.0679  -17.3558  -58.0488 O.2       22 UNK        -0.5000 
    124 C124        0.0688  -18.5783  -57.6972 C.3       23 UNK        -0.0398 
    125 S125        0.0781  -17.6997  -56.0904 S.3       23 UNK        -0.2404 
    126 C126        1.3253  -18.6681  -55.1839 C.3       23 UNK        -0.0205 
    127 H127        1.2393  -10.3880  -46.9608 H         1 UNK         0.0600 
    128 H128        1.7554  -11.9910  -47.4526 H         1 UNK         0.0600 
    129 H129        0.4212  -11.7995  -46.3003 H         1 UNK         0.0600 
    130 H130       -1.0600  -12.3308  -49.8252 H         1 UNK         0.3000 
    131 H131        1.2710  -13.6644  -48.8770 H         1 UNK         0.0600 
    132 H132        0.1037  -15.6943  -49.9754 H         1 UNK         0.0800 
    133 H133       -1.1980  -14.6265  -50.3889 H         1 UNK         0.0800 
    134 H134        2.6942  -15.1672  -50.6216 H         1 UNK         0.0800 
    135 H135        2.9858  -14.8094  -52.3033 H         1 UNK         0.0800 
    136 H136        1.9407  -16.2302  -54.1118 H         1 UNK         0.1150 
    137 H137        0.9067  -20.2345  -53.0020 H         1 UNK         0.1150 
    138 H138        1.7947  -17.3201  -49.9796 H         1 UNK         0.1150 
    139 H139        0.0482  -20.3823  -50.4463 H         1 UNK         0.0800 
    140 H140        1.7180  -20.8586  -50.5936 H         1 UNK         0.0800 
    141 H141       -0.4631  -18.0895  -48.9652 H         1 UNK         0.0800 
    142 H142        0.0936  -18.0385  -47.3138 H         1 UNK         0.0800 
    143 H143       -1.5623  -20.2496  -48.6028 H         1 UNK         0.0600 
    144 H144       -0.0433  -20.4380  -46.1812 H         1 UNK         0.3000 
    145 H145       -1.8419  -23.2502  -44.8841 H         1 UNK         0.0600 
    146 H146        0.9458  -23.0047  -46.1442 H         1 UNK         0.0600 
    147 H147        0.4376  -24.2306  -44.9821 H         1 UNK         0.0600 
    148 H148       -0.2756  -24.1912  -46.5870 H         1 UNK         0.0600 
    149 H149        0.4863  -21.8038  -44.0173 H         1 UNK         0.3000 
    150 H150       -1.1722  -19.1922  -42.3048 H         1 UNK         0.0600 
    151 H151       -1.3772  -21.0328  -40.6314 H         1 UNK         0.0600 
    152 H152        0.0362  -20.0385  -40.3163 H         1 UNK         0.0600 
    153 H153        0.2223  -21.6242  -41.0671 H         1 UNK         0.0600 
    154 H154        1.5610  -20.0254  -42.3941 H         1 UNK         0.3000 
    155 H155        2.8893  -19.4165  -44.7674 H         1 UNK         0.0600 
    156 H156        2.2394  -17.5937  -46.2033 H         1 UNK         0.0600 
    157 H157        3.6680  -17.0700  -45.3283 H         1 UNK         0.0600 
    158 H158        2.0745  -16.4781  -44.8646 H         1 UNK         0.0600 
    159 H159        3.1985  -17.3493  -42.6720 H         1 UNK         0.3000 
    160 H160        3.6445  -19.1853  -40.1795 H         1 UNK         0.0600 
    161 H161        6.0816  -19.3653  -39.6077 H         1 UNK         0.0600 
    162 H162        6.4630  -19.4851  -41.3260 H         1 UNK         0.0600 
    163 H163        5.4970  -20.7265  -40.5480 H         1 UNK         0.0600 
    164 H164        3.8819  -17.0304  -40.0592 H         1 UNK         0.3000 
    165 H165        6.2200  -14.9491  -40.1442 H         1 UNK         0.0600 
    166 H166        4.8473  -14.4187  -42.8272 H         1 UNK         0.0600 
    167 H167        5.4299  -13.1447  -41.7536 H         1 UNK         0.0600 
    168 H168        6.5601  -14.2854  -42.4641 H         1 UNK         0.0600 
    169 H169        3.3122  -14.7972  -40.7806 H         1 UNK         0.3000 
    170 H170        2.3619  -15.0830  -37.4318 H         1 UNK         0.0600 
    171 H171        2.3122  -12.3994  -38.9173 H         1 UNK         0.0600 
    172 H172        1.2312  -12.8777  -37.6073 H         1 UNK         0.0600 
    173 H173        2.9450  -12.6567  -37.2959 H         1 UNK         0.0600 
    174 H174        0.9203  -14.2431  -39.7624 H         1 UNK         0.3000 
    175 H175        0.5624  -17.3835  -41.3189 H         1 UNK         0.0600 
    176 H176       -1.5627  -15.8283  -39.7557 H         1 UNK         0.0600 
    177 H177       -1.8656  -16.9672  -41.0678 H         1 UNK         0.0600 
    178 H178       -1.1891  -17.5366  -39.5501 H         1 UNK         0.0600 
    179 H179       -0.6773  -14.9452  -41.9681 H         1 UNK         0.3000 
    180 H180        0.5780  -13.0130  -42.9328 H         1 UNK         0.0600 
    181 H181        2.8661  -14.0594  -44.6828 H         1 UNK         0.0600 
    182 H182        3.0251  -12.9568  -43.3177 H         1 UNK         0.0600 
    183 H183        2.1646  -12.4443  -44.7531 H         1 UNK         0.0600 
    184 H184        0.5783  -14.5639  -45.4322 H         1 UNK         0.3000 
    185 H185       -1.8646  -15.7492  -45.8869 H         1 UNK         0.0600 
    186 H186       -3.9579  -14.6447  -46.6556 H         1 UNK         0.0600 
    187 H187       -3.9281  -14.7479  -44.9042 H         1 UNK         0.0600 
    188 H188       -3.5789  -13.2163  -45.6937 H         1 UNK         0.0600 
    189 H189       -1.8718  -13.3168  -47.4468 H         1 UNK         0.3000 
    190 H190       -1.7920  -18.7464  -45.3864 H         1 UNK         0.3000 
    191 H191       -4.0384  -17.0818  -45.8659 H         1 UNK         0.0600 
    192 H192       -3.2720  -18.4533  -43.2338 H         1 UNK         0.0600 
    193 H193       -2.4986  -16.9911  -43.8337 H         1 UNK         0.0600 
    194 H194       -4.2081  -16.9824  -43.4271 H         1 UNK         0.0600 
    195 H195       -3.8370  -20.5355  -45.0434 H         1 UNK         0.3000 
    196 H196       -6.6864  -20.9719  -44.8079 H         1 UNK         0.0600 
    197 H197       -5.0193  -22.3697  -43.6122 H         1 UNK         0.0600 
    198 H198       -4.3684  -22.9413  -45.1461 H         1 UNK         0.0600 
    199 H199       -6.0128  -23.3507  -44.6779 H         1 UNK         0.0600 
    200 H200       -6.6996  -19.5859  -46.9476 H         1 UNK         0.3000 
    201 H201       -7.4046  -19.3517  -49.0456 H         1 UNK         0.0600 
    202 H202       -9.0952  -20.9906  -49.8268 H         1 UNK         0.0600 
    203 H203       -9.2949  -20.6867  -48.1096 H         1 UNK         0.0600 
    204 H204       -8.5309  -22.1775  -48.6578 H         1 UNK         0.0600 
    205 H205       -4.7461  -19.8707  -49.0864 H         1 UNK         0.3000 
    206 H206       -3.0068  -20.4496  -50.3338 H         1 UNK         0.0600 
    207 H207       -4.9722  -20.8250  -52.6484 H         1 UNK         0.0600 
    208 H208       -3.2483  -20.4926  -52.7518 H         1 UNK         0.0600 
    209 H209       -4.3312  -19.2722  -52.1115 H         1 UNK         0.0600 
    210 H210       -3.4979  -22.3764  -48.6795 H         1 UNK         0.3000 
    211 H211       -3.2991  -24.4693  -48.0848 H         1 UNK         0.0600 
    212 H212       -1.1581  -24.3150  -49.3639 H         1 UNK         0.0600 
    213 H213       -1.8073  -25.9471  -49.3926 H         1 UNK         0.0600 
    214 H214       -1.9646  -24.9197  -50.8097 H         1 UNK         0.0600 
    215 H215       -5.7998  -23.9180  -48.7242 H         1 UNK         0.3000 
    216 H216       -7.8067  -24.5808  -49.3992 H         1 UNK         0.0600 
    217 H217       -8.3547  -26.9890  -49.2488 H         1 UNK         0.0600 
    218 H218       -6.6517  -27.4210  -49.3203 H         1 UNK         0.0600 
    219 H219       -7.2833  -26.5344  -47.9334 H         1 UNK         0.0600 
    220 H220       -6.4704  -23.4929  -51.3589 H         1 UNK         0.3000 
    221 H221       -6.3218  -23.0281  -53.4407 H         1 UNK         0.0600 
    222 H222       -8.3969  -25.1930  -54.0533 H         1 UNK         0.0600 
    223 H223       -8.7654  -23.5498  -53.5272 H         1 UNK         0.0600 
    224 H224       -7.9811  -23.8240  -55.0730 H         1 UNK         0.0600 
    225 H225       -4.8168  -25.6655  -52.3606 H         1 UNK         0.3000 
    226 H226       -4.0392  -26.9729  -54.8209 H         1 UNK         0.0600 
    227 H227       -3.9863  -28.0840  -52.5599 H         1 UNK         0.0600 
    228 H228       -2.4494  -28.1773  -53.4078 H         1 UNK         0.0600 
    229 H229       -2.6509  -27.0275  -52.0962 H         1 UNK         0.0600 
    230 H230       -2.9366  -24.0921  -53.1331 H         1 UNK         0.3000 
    231 H231       -0.5807  -23.8175  -54.9624 H         1 UNK         0.0600 
    232 H232        0.4995  -22.5823  -53.1463 H         1 UNK         0.0600 
    233 H233        0.0050  -24.1449  -52.5219 H         1 UNK         0.0600 
    234 H234       -0.9313  -22.7046  -52.1287 H         1 UNK         0.0600 
    235 H235       -3.4455  -23.0989  -55.4323 H         1 UNK         0.3000 
    236 H236       -3.7244  -20.2306  -55.1915 H         1 UNK         0.0600 
    237 H237       -5.6992  -21.6517  -55.1236 H         1 UNK         0.0600 
    238 H238       -5.7931  -20.6490  -56.5558 H         1 UNK         0.0600 
    239 H239       -5.3367  -22.3423  -56.7059 H         1 UNK         0.0600 
    240 H240       -1.6185  -19.7164  -56.1479 H         1 UNK         0.3000 
    241 H241       -1.1799  -19.7737  -58.9689 H         1 UNK         0.0600 
    242 H242       -2.4942  -16.7436  -60.3370 H         1 UNK         0.3800 
    243 H243       -1.2423  -17.9368  -60.5272 H         1 UNK         0.3800 
    244 H244        0.5134  -17.9264  -58.4511 H         1 UNK         0.0800 
    245 H245        0.7372  -19.4379  -57.6370 H         1 UNK         0.0800 
    246 H246        2.3005  -18.5256  -55.6512 H         1 UNK         0.0800 
    247 H247        1.0879  -19.7291  -55.2770 H         1 UNK         0.0800 
@<TRIPOS>BOND
     1    1    2 1    
     2    1  127 1    
     3    1  128 1    
     4    1  129 1    
     5    2    3 2    
     6    2    4 am   BACKBONE|DICT|INTERRES
     7    4    5 1    
     8    4  130 1    
     9    5    6 1    
    10    5   65 1    
    11    5  131 1    
    12    6    7 1    
    13    6  132 1    
    14    6  133 1    
    15    7    8 1    
    16    8    9 1    
    17    8  134 1    
    18    8  135 1    
    19    9   10 ar   
    20    9   14 ar   
    21   10   11 ar   
    22   10  136 1    
    23   11   12 ar   
    24   11  126 1    
    25   12   13 ar   
    26   12  137 1    
    27   13   14 ar   
    28   13   15 1    
    29   14  138 1    
    30   15   16 1    
    31   15  139 1    
    32   15  140 1    
    33   16   17 1    
    34   17   18 1    
    35   17  141 1    
    36   17  142 1    
    37   18   19 1    
    38   18   67 1    
    39   18  143 1    
    40   19   20 am   BACKBONE|DICT|INTERRES
    41   19  144 1    
    42   20   21 2    
    43   20   22 1    
    44   22   23 1    
    45   22   24 1    
    46   22  145 1    
    47   23  146 1    
    48   23  147 1    
    49   23  148 1    
    50   24   25 am   BACKBONE|DICT|INTERRES
    51   24  149 1    
    52   25   26 2    
    53   25   27 1    
    54   27   28 1    
    55   27   29 1    
    56   27  150 1    
    57   28  151 1    
    58   28  152 1    
    59   28  153 1    
    60   29   30 am   BACKBONE|DICT|INTERRES
    61   29  154 1    
    62   30   31 2    
    63   30   32 1    
    64   32   33 1    
    65   32   34 1    
    66   32  155 1    
    67   33  156 1    
    68   33  157 1    
    69   33  158 1    
    70   34   35 am   BACKBONE|DICT|INTERRES
    71   34  159 1    
    72   35   36 2    
    73   35   37 1    
    74   37   38 1    
    75   37   39 1    
    76   37  160 1    
    77   38  161 1    
    78   38  162 1    
    79   38  163 1    
    80   39   40 am   BACKBONE|DICT|INTERRES
    81   39  164 1    
    82   40   41 2    
    83   40   42 1    
    84   42   43 1    
    85   42   44 1    
    86   42  165 1    
    87   43  166 1    
    88   43  167 1    
    89   43  168 1    
    90   44   45 am   BACKBONE|DICT|INTERRES
    91   44  169 1    
    92   45   46 2    
    93   45   47 1    
    94   47   48 1    
    95   47   49 1    
    96   47  170 1    
    97   48  171 1    
    98   48  172 1    
    99   48  173 1    
   100   49   50 am   BACKBONE|DICT|INTERRES
   101   49  174 1    
   102   50   51 2    
   103   50   52 1    
   104   52   53 1    
   105   52   54 1    
   106   52  175 1    
   107   53  176 1    
   108   53  177 1    
   109   53  178 1    
   110   54   55 am   BACKBONE|DICT|INTERRES
   111   54  179 1    
   112   55   56 2    
   113   55   57 1    
   114   57   58 1    
   115   57   59 1    
   116   57  180 1    
   117   58  181 1    
   118   58  182 1    
   119   58  183 1    
   120   59   60 am   BACKBONE|DICT|INTERRES
   121   59  184 1    
   122   60   61 2    
   123   60   62 1    
   124   62   63 1    
   125   62   64 1    
   126   62  185 1    
   127   63  186 1    
   128   63  187 1    
   129   63  188 1    
   130   64   65 am   BACKBONE|DICT|INTERRES
   131   64  189 1    
   132   65   66 2    
   133   67   68 2    
   134   67   69 am   BACKBONE|DICT|INTERRES
   135   69   70 1    
   136   69  190 1    
   137   70   71 1    
   138   70   72 1    
   139   70  191 1    
   140   71  192 1    
   141   71  193 1    
   142   71  194 1    
   143   72   73 2    
   144   72   74 am   BACKBONE|DICT|INTERRES
   145   74   75 1    
   146   74  195 1    
   147   75   76 1    
   148   75   77 1    
   149   75  196 1    
   150   76  197 1    
   151   76  198 1    
   152   76  199 1    
   153   77   78 2    
   154   77   79 am   BACKBONE|DICT|INTERRES
   155   79   80 1    
   156   79  200 1    
   157   80   81 1    
   158   80   82 1    
   159   80  201 1    
   160   81  202 1    
   161   81  203 1    
   162   81  204 1    
   163   82   83 2    
   164   82   84 am   BACKBONE|DICT|INTERRES
   165   84   85 1    
   166   84  205 1    
   167   85   86 1    
   168   85   87 1    
   169   85  206 1    
   170   86  207 1    
   171   86  208 1    
   172   86  209 1    
   173   87   88 2    
   174   87   89 am   BACKBONE|DICT|INTERRES
   175   89   90 1    
   176   89  210 1    
   177   90   91 1    
   178   90   92 1    
   179   90  211 1    
   180   91  212 1    
   181   91  213 1    
   182   91  214 1    
   183   92   93 2    
   184   92   94 am   BACKBONE|DICT|INTERRES
   185   94   95 1    
   186   94  215 1    
   187   95   96 1    
   188   95   97 1    
   189   95  216 1    
   190   96  217 1    
   191   96  218 1    
   192   96  219 1    
   193   97   98 2    
   194   97   99 am   BACKBONE|DICT|INTERRES
   195   99  100 1    
   196   99  220 1    
   197  100  101 1    
   198  100  102 1    
   199  100  221 1    
   200  101  222 1    
   201  101  223 1    
   202  101  224 1    
   203  102  103 2    
   204  102  104 am   BACKBONE|DICT|INTERRES
   205  104  105 1    
   206  104  225 1    
   207  105  106 1    
   208  105  107 1    
   209  105  226 1    
   210  106  227 1    
   211  106  228 1    
   212  106  229 1    
   213  107  108 2    
   214  107  109 am   BACKBONE|DICT|INTERRES
   215  109  110 1    
   216  109  230 1    
   217  110  111 1    
   218  110  112 1    
   219  110  231 1    
   220  111  232 1    
   221  111  233 1    
   222  111  234 1    
   223  112  113 2    
   224  112  114 am   BACKBONE|DICT|INTERRES
   225  114  115 1    
   226  114  235 1    
   227  115  116 1    
   228  115  117 1    
   229  115  236 1    
   230  116  237 1    
   231  116  238 1    
   232  116  239 1    
   233  117  118 2    
   234  117  119 am   BACKBONE|DICT|INTERRES
   235  119  120 1    
   236  119  240 1    
   237  120  121 1    
   238  120  124 1    
   239  120  241 1    
   240  121  122 am   BACKBONE|DICT|INTERRES
   241  121  123 2    
   242  122  242 1    
   243  122  243 1    
   244  124  125 1    
   245  124  244 1    
   246  124  245 1    
   247  125  126 1    
   248  126  246 1    
   249  126  247 1    
@<TRIPOS>SUBSTRUCTURE
     1 UNK         1 GROUP             0       ****    0 ROOT    
