@<TRIPOS>MOLECULE
3R540
247   249    1
SMALL
USER_CHARGES


@<TRIPOS>ATOM
      1 CA          6.8971  -10.2040  -52.3101 C.3       0 UNK        -0.1800 
      2 C           6.5333  -11.1286  -51.1573 C.2       0 UNK         0.5000 
      3 O           7.4038  -11.4991  -50.3681 O.2       0 UNK        -0.5000 
      4 N           5.2516  -11.4988  -51.0491 N.am      1 UNK        -0.5000 
      5 CA          4.7008  -12.3818  -50.0135 C.3       1 UNK         0.1400 
      6 C6          3.4156  -13.1077  -50.4887 C.3       23 UNK        -0.0398 
      7 S7          3.7111  -14.1335  -51.9689 S.3       23 UNK        -0.2404 
      8 C8          4.0003  -15.7721  -51.2142 C.3       23 UNK        -0.0205 
      9 C9          2.7589  -16.5468  -50.7624 C.ar      23 UNK        -0.0193 
     10 C10         1.4489  -16.0781  -50.9393 C.ar      23 UNK        -0.1150 
     11 C11         0.3527  -16.8535  -50.5497 C.ar      23 UNK        -0.0193 
     12 C12         0.5669  -18.1034  -49.9635 C.ar      23 UNK        -0.1150 
     13 C13         1.8644  -18.5829  -49.7742 C.ar      23 UNK        -0.0193 
     14 C14         2.9512  -17.8001  -50.1721 C.ar      23 UNK        -0.1150 
     15 C15         2.0897  -19.9529  -49.1563 C.3       23 UNK        -0.0205 
     16 S16         1.9779  -19.8760  -47.3452 S.3       23 UNK        -0.2404 
     17 C17         2.2657  -21.6142  -46.8860 C.3       23 UNK        -0.0398 
     18 CA          0.9969  -22.4492  -46.5863 C.3       11 UNK         0.1400 
     19 N           0.1810  -21.9458  -45.4747 N.am      11 UNK        -0.5000 
     20 C          -0.6917  -22.7238  -44.8145 C.2       10 UNK         0.5000 
     21 O          -0.8577  -23.9185  -45.0670 O.2       10 UNK        -0.5000 
     22 CA         -1.5519  -22.0677  -43.7211 C.3       10 UNK         0.1400 
     23 CB         -0.7418  -21.8524  -42.4341 C.3       10 UNK        -0.1800 
     24 N          -2.1646  -20.8113  -44.1515 N.am      10 UNK        -0.5000 
     25 C          -3.0704  -20.7110  -45.1349 C.2       9 UNK         0.5000 
     26 O          -3.4858  -21.6732  -45.7784 O.2       9 UNK        -0.5000 
     27 CA         -3.5803  -19.3013  -45.4833 C.3       9 UNK         0.1400 
     28 CB         -4.7050  -18.8763  -44.5282 C.3       9 UNK        -0.1800 
     29 N          -2.5179  -18.2976  -45.4799 N.am      9 UNK        -0.5000 
     30 C          -1.4777  -18.3016  -46.3258 C.2       8 UNK         0.5000 
     31 O          -1.3436  -19.1215  -47.2330 O.2       8 UNK        -0.5000 
     32 CA         -0.3823  -17.2476  -46.0822 C.3       8 UNK         0.1400 
     33 CB         -0.7963  -15.8792  -46.6426 C.3       8 UNK        -0.1800 
     34 N          -0.0390  -17.1178  -44.6659 N.am      8 UNK        -0.5000 
     35 C           0.4496  -18.1027  -43.8973 C.2       7 UNK         0.5000 
     36 O           0.7167  -19.2329  -44.3055 O.2       7 UNK        -0.5000 
     37 CA          0.6063  -17.7869  -42.4007 C.3       7 UNK         0.1400 
     38 CB          1.8831  -16.9757  -42.1314 C.3       7 UNK        -0.1800 
     39 N          -0.5574  -17.0733  -41.8741 N.am      7 UNK        -0.5000 
     40 C          -1.7692  -17.6231  -41.7111 C.2       6 UNK         0.5000 
     41 O          -2.0229  -18.8016  -41.9568 O.2       6 UNK        -0.5000 
     42 CA         -2.8942  -16.6921  -41.2231 C.3       6 UNK         0.1400 
     43 CB         -2.8696  -16.5699  -39.6922 C.3       6 UNK        -0.1800 
     44 N          -2.8181  -15.3571  -41.8171 N.am      6 UNK        -0.5000 
     45 C          -3.0236  -15.0938  -43.1153 C.2       5 UNK         0.5000 
     46 O          -3.3353  -15.9464  -43.9455 O.2       5 UNK        -0.5000 
     47 CA         -2.7856  -13.6413  -43.5700 C.3       5 UNK         0.1400 
     48 CB         -4.0458  -12.7915  -43.3494 C.3       5 UNK        -0.1800 
     49 N          -1.6434  -13.0039  -42.9058 N.am      5 UNK        -0.5000 
     50 C          -0.3829  -13.4504  -42.9773 C.2       4 UNK         0.5000 
     51 O          -0.0566  -14.4739  -43.5825 O.2       4 UNK        -0.5000 
     52 CA          0.6784  -12.6575  -42.1931 C.3       4 UNK         0.1400 
     53 CB          0.7079  -13.1217  -40.7282 C.3       4 UNK        -0.1800 
     54 N           2.0127  -12.8336  -42.7674 N.am      4 UNK        -0.5000 
     55 C           2.3924  -12.3602  -43.9599 C.2       3 UNK         0.5000 
     56 O           1.6932  -11.6232  -44.6617 O.2       3 UNK        -0.5000 
     57 CA          3.7787  -12.8028  -44.4500 C.3       3 UNK         0.1400 
     58 CB          3.7268  -14.2344  -45.0124 C.3       3 UNK        -0.1800 
     59 N           4.2236  -11.8991  -45.5040 N.am      3 UNK        -0.5000 
     60 C           5.4409  -11.3661  -45.6283 C.2       2 UNK         0.5000 
     61 O           6.3793  -11.6189  -44.8699 O.2       2 UNK        -0.5000 
     62 CA          5.6374  -10.4154  -46.8274 C.3       2 UNK         0.1400 
     63 CB          6.9666   -9.6418  -46.7621 C.3       2 UNK        -0.1800 
     64 N           5.5843  -11.1431  -48.0948 N.am      2 UNK        -0.5000 
     65 C           4.4815  -11.6008  -48.6996 C.2       1 UNK         0.5000 
     66 O           3.3425  -11.4063  -48.2696 O.2       1 UNK        -0.5000 
     67 C           0.1537  -22.7481  -47.8433 C.2       11 UNK         0.5000 
     68 O           0.4536  -23.7151  -48.5418 O.2       11 UNK        -0.5000 
     69 N          -0.9117  -21.9692  -48.0879 N.am      12 UNK        -0.5000 
     70 CA         -1.8903  -22.2388  -49.1428 C.3       12 UNK         0.1400 
     71 CB         -2.8487  -21.0532  -49.2886 C.3       12 UNK        -0.1800 
     72 C          -2.6754  -23.5406  -48.9058 C.2       12 UNK         0.5000 
     73 O          -2.8789  -24.3045  -49.8487 O.2       12 UNK        -0.5000 
     74 N          -3.0767  -23.7950  -47.6533 N.am      13 UNK        -0.5000 
     75 CA         -3.7122  -25.0425  -47.2300 C.3       13 UNK         0.1400 
     76 CB         -4.2290  -24.9094  -45.7906 C.3       13 UNK        -0.1800 
     77 C          -2.7794  -26.2568  -47.3835 C.2       13 UNK         0.5000 
     78 O          -3.2151  -27.2861  -47.8989 O.2       13 UNK        -0.5000 
     79 N          -1.5034  -26.0981  -47.0016 N.am      14 UNK        -0.5000 
     80 CA         -0.4500  -27.1022  -47.1861 C.3       14 UNK         0.1400 
     81 CB          0.8245  -26.6503  -46.4582 C.3       14 UNK        -0.1800 
     82 C          -0.1543  -27.4061  -48.6698 C.2       14 UNK         0.5000 
     83 O           0.1097  -28.5584  -49.0138 O.2       14 UNK        -0.5000 
     84 N          -0.2471  -26.3785  -49.5247 N.am      15 UNK        -0.5000 
     85 CA         -0.1309  -26.4679  -50.9827 C.3       15 UNK         0.1400 
     86 CB          0.2156  -25.0751  -51.5359 C.3       15 UNK        -0.1800 
     87 C          -1.3927  -27.0275  -51.6768 C.2       15 UNK         0.5000 
     88 O          -1.3711  -27.2051  -52.8953 O.2       15 UNK        -0.5000 
     89 N          -2.4629  -27.2818  -50.9078 N.am      16 UNK        -0.5000 
     90 CA         -3.7784  -27.7751  -51.3299 C.3       16 UNK         0.1400 
     91 CB         -3.6752  -29.1643  -51.9940 C.3       16 UNK        -0.1800 
     92 C          -4.5857  -26.7606  -52.1689 C.2       16 UNK         0.5000 
     93 O          -5.4970  -27.1566  -52.8974 O.2       16 UNK        -0.5000 
     94 N          -4.2746  -25.4659  -52.0189 N.am      17 UNK        -0.5000 
     95 CA         -5.0313  -24.3473  -52.5866 C.3       17 UNK         0.1400 
     96 CB         -4.0603  -23.1995  -52.8981 C.3       17 UNK        -0.1800 
     97 C          -6.1608  -23.8790  -51.6444 C.2       17 UNK         0.5000 
     98 O          -6.9862  -23.0573  -52.0462 O.2       17 UNK        -0.5000 
     99 N          -6.1746  -24.4024  -50.4061 N.am      18 UNK        -0.5000 
    100 CA        -7.2142  -24.2681  -49.3743 C.3       18 UNK         0.1400 
    101 CB        -8.5040  -24.9780  -49.8347 C.3       18 UNK        -0.1800 
    102 C         -7.4840  -22.8205  -48.9106 C.2       18 UNK         0.5000 
    103 O         -8.5500  -22.5472  -48.3579 O.2       18 UNK        -0.5000 
    104 N         -6.5246  -21.9194  -49.1674 N.am      19 UNK        -0.5000 
    105 CA        -6.5809  -20.4674  -48.9599 C.3       19 UNK         0.1400 
    106 CB        -6.7564  -20.1242  -47.4665 C.3       19 UNK        -0.1800 
    107 C         -7.6032  -19.7397  -49.8634 C.2       19 UNK         0.5000 
    108 O         -7.8494  -18.5506  -49.6564 O.2       19 UNK        -0.5000 
    109 N         -8.1498  -20.4348  -50.8734 N.am      20 UNK        -0.5000 
    110 CA        -8.9760  -19.8502  -51.9342 C.3       20 UNK         0.1400 
    111 CB        -9.8227  -20.9581  -52.5788 C.3       20 UNK        -0.1800 
    112 C         -8.1080  -19.1408  -52.9921 C.2       20 UNK         0.5000 
    113 O         -8.5685  -18.2042  -53.6456 O.2       20 UNK        -0.5000 
    114 N         -6.8571  -19.5914  -53.1064 N.am      21 UNK        -0.5000 
    115 CA        -5.7566  -18.9918  -53.8422 C.3       21 UNK         0.1400 
    116 CB        -5.6852  -19.6130  -55.2477 C.3       21 UNK        -0.1800 
    117 C         -4.4788  -19.2678  -53.0330 C.2       21 UNK         0.5000 
    118 O         -4.5236  -20.0304  -52.0628 O.2       21 UNK        -0.5000 
    119 N         -3.3646  -18.6530  -53.4373 N.am      22 UNK        -0.5000 
    120 CA        -2.0317  -18.9278  -52.8795 C.3       22 UNK         0.1400 
    121 C         -1.4792  -20.3180  -53.3059 C.2       22 UNK         0.5000 
    122 N         -0.5981  -20.9098  -52.5103 N.am      22 UNK        -0.7600 
    123 O         -1.8018  -20.8429  -54.3693 O.2       22 UNK        -0.5000 
    124 C124       -1.0216  -17.8116  -53.2390 C.3       23 UNK        -0.0398 
    125 S125       -1.4783  -16.1798  -52.5545 S.3       23 UNK        -0.2404 
    126 C126       -1.0659  -16.3529  -50.7833 C.3       23 UNK        -0.0205 
    127 H127        7.3126   -9.2722  -51.9265 H         1 UNK         0.0600 
    128 H128        6.0299   -9.9625  -52.9253 H         1 UNK         0.0600 
    129 H129        7.6452  -10.6758  -52.9472 H         1 UNK         0.0600 
    130 H130        4.5816  -11.1515  -51.7204 H         1 UNK         0.3000 
    131 H131        5.4391  -13.1561  -49.7928 H         1 UNK         0.0600 
    132 H132        2.6331  -12.3857  -50.7280 H         1 UNK         0.0800 
    133 H133        3.0122  -13.7385  -49.6942 H         1 UNK         0.0800 
    134 H134        4.6806  -15.6576  -50.3690 H         1 UNK         0.0800 
    135 H135        4.5280  -16.3822  -51.9485 H         1 UNK         0.0800 
    136 H136        1.2613  -15.1207  -51.4016 H         1 UNK         0.1150 
    137 H137       -0.2741  -18.7069  -49.6525 H         1 UNK         0.1150 
    138 H138        3.9556  -18.1747  -50.0314 H         1 UNK         0.1150 
    139 H139        1.3493  -20.6536  -49.5429 H         1 UNK         0.0800 
    140 H140        3.0669  -20.3435  -49.4444 H         1 UNK         0.0800 
    141 H141        2.8979  -21.6070  -45.9972 H         1 UNK         0.0800 
    142 H142        2.8643  -22.0996  -47.6588 H         1 UNK         0.0800 
    143 H143        1.3775  -23.4201  -46.2620 H         1 UNK         0.0600 
    144 H144        0.2864  -20.9667  -45.2208 H         1 UNK         0.3000 
    145 H145       -2.3630  -22.7606  -43.4874 H         1 UNK         0.0600 
    146 H146       -1.3746  -21.4802  -41.6284 H         1 UNK         0.0600 
    147 H147       -0.2986  -22.7884  -42.0918 H         1 UNK         0.0600 
    148 H148        0.0697  -21.1400  -42.5785 H         1 UNK         0.0600 
    149 H149       -1.9025  -19.9778  -43.6366 H         1 UNK         0.3000 
    150 H150       -3.9918  -19.3390  -46.4933 H         1 UNK         0.0600 
    151 H151       -5.5091  -19.6132  -44.5174 H         1 UNK         0.0600 
    152 H152       -5.1409  -17.9249  -44.8331 H         1 UNK         0.0600 
    153 H153       -4.3452  -18.7674  -43.5050 H         1 UNK         0.0600 
    154 H154       -2.5942  -17.5539  -44.7925 H         1 UNK         0.3000 
    155 H155        0.5156  -17.5626  -46.6133 H         1 UNK         0.0600 
    156 H156       -1.0163  -15.9470  -47.7084 H         1 UNK         0.0600 
    157 H157        0.0014  -15.1460  -46.5202 H         1 UNK         0.0600 
    158 H158       -1.6859  -15.4918  -46.1460 H         1 UNK         0.0600 
    159 H159       -0.1873  -16.2035  -44.2446 H         1 UNK         0.3000 
    160 H160        0.6931  -18.7358  -41.8670 H         1 UNK         0.0600 
    161 H161        1.8603  -16.0045  -42.6243 H         1 UNK         0.0600 
    162 H162        2.7637  -17.5060  -42.4959 H         1 UNK         0.0600 
    163 H163        2.0243  -16.8063  -41.0639 H         1 UNK         0.0600 
    164 H164       -0.4485  -16.0836  -41.7130 H         1 UNK         0.3000 
    165 H165       -3.8466  -17.1401  -41.5143 H         1 UNK         0.0600 
    166 H166       -3.7088  -15.9755  -39.3308 H         1 UNK         0.0600 
    167 H167       -2.9416  -17.5515  -39.2218 H         1 UNK         0.0600 
    168 H168       -1.9495  -16.1029  -39.3385 H         1 UNK         0.0600 
    169 H169       -2.5649  -14.5959  -41.2049 H         1 UNK         0.3000 
    170 H170       -2.5741  -13.6638  -44.6409 H         1 UNK         0.0600 
    171 H171       -4.9079  -13.2355  -43.8491 H         1 UNK         0.0600 
    172 H172       -4.2911  -12.7000  -42.2906 H         1 UNK         0.0600 
    173 H173       -3.9200  -11.7869  -43.7536 H         1 UNK         0.0600 
    174 H174       -1.8392  -12.1643  -42.3798 H         1 UNK         0.3000 
    175 H175        0.4219  -11.5965  -42.2261 H         1 UNK         0.0600 
    176 H176        0.9656  -14.1784  -40.6442 H         1 UNK         0.0600 
    177 H177        1.4360  -12.5529  -40.1497 H         1 UNK         0.0600 
    178 H178       -0.2627  -12.9815  -40.2507 H         1 UNK         0.0600 
    179 H179        2.6352  -13.4502  -42.2670 H         1 UNK         0.3000 
    180 H180        4.4671  -12.7678  -43.6030 H         1 UNK         0.0600 
    181 H181        4.7056  -14.5518  -45.3725 H         1 UNK         0.0600 
    182 H182        3.0228  -14.3147  -45.8421 H         1 UNK         0.0600 
    183 H183        3.4154  -14.9477  -44.2490 H         1 UNK         0.0600 
    184 H184        3.5057  -11.6283  -46.1692 H         1 UNK         0.3000 
    185 H185        4.8264   -9.6843  -46.8054 H         1 UNK         0.0600 
    186 H186        7.0431   -9.0732  -45.8345 H         1 UNK         0.0600 
    187 H187        7.8266  -10.3110  -46.8114 H         1 UNK         0.0600 
    188 H188        7.0489   -8.9317  -47.5852 H         1 UNK         0.0600 
    189 H189        6.4728  -11.3244  -48.5501 H         1 UNK         0.3000 
    190 H190       -1.0748  -21.1505  -47.5102 H         1 UNK         0.3000 
    191 H191       -1.3491  -22.3505  -50.0838 H         1 UNK         0.0600 
    192 H192       -2.3215  -20.1506  -49.5951 H         1 UNK         0.0600 
    193 H193       -3.6016  -21.2635  -50.0458 H         1 UNK         0.0600 
    194 H194       -3.3710  -20.8380  -48.3573 H         1 UNK         0.0600 
    195 H195       -2.9454  -23.0848  -46.9374 H         1 UNK         0.3000 
    196 H196       -4.5729  -25.2113  -47.8782 H         1 UNK         0.0600 
    197 H197       -4.7206  -25.8270  -45.4654 H         1 UNK         0.0600 
    198 H198       -4.9579  -24.1029  -45.7089 H         1 UNK         0.0600 
    199 H199       -3.4223  -24.7015  -45.0880 H         1 UNK         0.0600 
    200 H200       -1.2374  -25.2328  -46.5414 H         1 UNK         0.3000 
    201 H201       -0.7939  -28.0287  -46.7217 H         1 UNK         0.0600 
    202 H202        0.6305  -26.4560  -45.4031 H         1 UNK         0.0600 
    203 H203        1.2377  -25.7425  -46.8966 H         1 UNK         0.0600 
    204 H204        1.5962  -27.4191  -46.5120 H         1 UNK         0.0600 
    205 H205       -0.3888  -25.4479  -49.1455 H         1 UNK         0.3000 
    206 H206        0.6941  -27.1417  -51.2221 H         1 UNK         0.0600 
    207 H207        1.1302  -24.6880  -51.0866 H         1 UNK         0.0600 
    208 H208        0.3745  -25.1077  -52.6143 H         1 UNK         0.0600 
    209 H209       -0.5821  -24.3574  -51.3444 H         1 UNK         0.0600 
    210 H210       -2.3804  -27.0896  -49.9170 H         1 UNK         0.3000 
    211 H211       -4.3472  -27.9049  -50.4083 H         1 UNK         0.0600 
    212 H212       -3.2025  -29.1134  -52.9750 H         1 UNK         0.0600 
    213 H213       -4.6631  -29.6048  -52.1332 H         1 UNK         0.0600 
    214 H214       -3.0988  -29.8541  -51.3775 H         1 UNK         0.0600 
    215 H215       -3.5351  -25.2128  -51.3673 H         1 UNK         0.3000 
    216 H216       -5.4953  -24.6585  -53.5246 H         1 UNK         0.0600 
    217 H217       -4.5738  -22.3876  -53.4131 H         1 UNK         0.0600 
    218 H218       -3.2504  -23.5303  -53.5483 H         1 UNK         0.0600 
    219 H219       -3.6132  -22.7848  -51.9948 H         1 UNK         0.0600 
    220 H220       -5.4123  -25.0236  -50.1770 H         1 UNK         0.3000 
    221 H221       -6.8460  -24.7977  -48.4953 H         1 UNK         0.0600 
    222 H222       -8.9713  -24.4610  -50.6737 H         1 UNK         0.0600 
    223 H223       -8.3008  -26.0032  -50.1444 H         1 UNK         0.0600 
    224 H224       -9.2382  -25.0251  -49.0297 H         1 UNK         0.0600 
    225 H225       -5.7053  -22.2556  -49.6517 H         1 UNK         0.3000 
    226 H226       -5.6064  -20.0865  -49.2660 H         1 UNK         0.0600 
    227 H227       -6.0572  -20.6876  -46.8488 H         1 UNK         0.0600 
    228 H228       -6.5724  -19.0647  -47.2850 H         1 UNK         0.0600 
    229 H229       -7.7646  -20.3429  -47.1144 H         1 UNK         0.0600 
    230 H230       -7.8787  -21.4034  -50.9999 H         1 UNK         0.3000 
    231 H231       -9.6510  -19.1112  -51.4975 H         1 UNK         0.0600 
    232 H232       -9.1996  -21.7201  -53.0487 H         1 UNK         0.0600 
    233 H233      -10.4781  -20.5493  -53.3488 H         1 UNK         0.0600 
    234 H234      -10.4550  -21.4511  -51.8403 H         1 UNK         0.0600 
    235 H235       -6.5571  -20.3319  -52.4836 H         1 UNK         0.3000 
    236 H236       -5.8982  -17.9114  -53.9131 H         1 UNK         0.0600 
    237 H237       -6.6119  -19.4493  -55.7979 H         1 UNK         0.0600 
    238 H238       -4.8781  -19.1724  -55.8336 H         1 UNK         0.0600 
    239 H239       -5.5092  -20.6885  -55.2016 H         1 UNK         0.0600 
    240 H240       -3.3942  -18.0491  -54.2451 H         1 UNK         0.3000 
    241 H241       -2.1318  -18.9505  -51.7929 H         1 UNK         0.0600 
    242 H242       -0.2791  -20.4796  -51.6588 H         1 UNK         0.3800 
    243 H243       -0.2143  -21.7964  -52.7957 H         1 UNK         0.3800 
    244 H244       -0.0158  -18.0666  -52.9027 H         1 UNK         0.0800 
    245 H245       -0.9466  -17.7112  -54.3230 H         1 UNK         0.0800 
    246 H246       -1.1835  -15.3825  -50.2995 H         1 UNK         0.0800 
    247 H247       -1.7930  -17.0160  -50.3117 H         1 UNK         0.0800 
@<TRIPOS>BOND
     1    1    2 1    
     2    1  127 1    
     3    1  128 1    
     4    1  129 1    
     5    2    3 2    
     6    2    4 am   BACKBONE|DICT|INTERRES
     7    4    5 1    
     8    4  130 1    
     9    5    6 1    
    10    5   65 1    
    11    5  131 1    
    12    6    7 1    
    13    6  132 1    
    14    6  133 1    
    15    7    8 1    
    16    8    9 1    
    17    8  134 1    
    18    8  135 1    
    19    9   10 ar   
    20    9   14 ar   
    21   10   11 ar   
    22   10  136 1    
    23   11   12 ar   
    24   11  126 1    
    25   12   13 ar   
    26   12  137 1    
    27   13   14 ar   
    28   13   15 1    
    29   14  138 1    
    30   15   16 1    
    31   15  139 1    
    32   15  140 1    
    33   16   17 1    
    34   17   18 1    
    35   17  141 1    
    36   17  142 1    
    37   18   19 1    
    38   18   67 1    
    39   18  143 1    
    40   19   20 am   BACKBONE|DICT|INTERRES
    41   19  144 1    
    42   20   21 2    
    43   20   22 1    
    44   22   23 1    
    45   22   24 1    
    46   22  145 1    
    47   23  146 1    
    48   23  147 1    
    49   23  148 1    
    50   24   25 am   BACKBONE|DICT|INTERRES
    51   24  149 1    
    52   25   26 2    
    53   25   27 1    
    54   27   28 1    
    55   27   29 1    
    56   27  150 1    
    57   28  151 1    
    58   28  152 1    
    59   28  153 1    
    60   29   30 am   BACKBONE|DICT|INTERRES
    61   29  154 1    
    62   30   31 2    
    63   30   32 1    
    64   32   33 1    
    65   32   34 1    
    66   32  155 1    
    67   33  156 1    
    68   33  157 1    
    69   33  158 1    
    70   34   35 am   BACKBONE|DICT|INTERRES
    71   34  159 1    
    72   35   36 2    
    73   35   37 1    
    74   37   38 1    
    75   37   39 1    
    76   37  160 1    
    77   38  161 1    
    78   38  162 1    
    79   38  163 1    
    80   39   40 am   BACKBONE|DICT|INTERRES
    81   39  164 1    
    82   40   41 2    
    83   40   42 1    
    84   42   43 1    
    85   42   44 1    
    86   42  165 1    
    87   43  166 1    
    88   43  167 1    
    89   43  168 1    
    90   44   45 am   BACKBONE|DICT|INTERRES
    91   44  169 1    
    92   45   46 2    
    93   45   47 1    
    94   47   48 1    
    95   47   49 1    
    96   47  170 1    
    97   48  171 1    
    98   48  172 1    
    99   48  173 1    
   100   49   50 am   BACKBONE|DICT|INTERRES
   101   49  174 1    
   102   50   51 2    
   103   50   52 1    
   104   52   53 1    
   105   52   54 1    
   106   52  175 1    
   107   53  176 1    
   108   53  177 1    
   109   53  178 1    
   110   54   55 am   BACKBONE|DICT|INTERRES
   111   54  179 1    
   112   55   56 2    
   113   55   57 1    
   114   57   58 1    
   115   57   59 1    
   116   57  180 1    
   117   58  181 1    
   118   58  182 1    
   119   58  183 1    
   120   59   60 am   BACKBONE|DICT|INTERRES
   121   59  184 1    
   122   60   61 2    
   123   60   62 1    
   124   62   63 1    
   125   62   64 1    
   126   62  185 1    
   127   63  186 1    
   128   63  187 1    
   129   63  188 1    
   130   64   65 am   BACKBONE|DICT|INTERRES
   131   64  189 1    
   132   65   66 2    
   133   67   68 2    
   134   67   69 am   BACKBONE|DICT|INTERRES
   135   69   70 1    
   136   69  190 1    
   137   70   71 1    
   138   70   72 1    
   139   70  191 1    
   140   71  192 1    
   141   71  193 1    
   142   71  194 1    
   143   72   73 2    
   144   72   74 am   BACKBONE|DICT|INTERRES
   145   74   75 1    
   146   74  195 1    
   147   75   76 1    
   148   75   77 1    
   149   75  196 1    
   150   76  197 1    
   151   76  198 1    
   152   76  199 1    
   153   77   78 2    
   154   77   79 am   BACKBONE|DICT|INTERRES
   155   79   80 1    
   156   79  200 1    
   157   80   81 1    
   158   80   82 1    
   159   80  201 1    
   160   81  202 1    
   161   81  203 1    
   162   81  204 1    
   163   82   83 2    
   164   82   84 am   BACKBONE|DICT|INTERRES
   165   84   85 1    
   166   84  205 1    
   167   85   86 1    
   168   85   87 1    
   169   85  206 1    
   170   86  207 1    
   171   86  208 1    
   172   86  209 1    
   173   87   88 2    
   174   87   89 am   BACKBONE|DICT|INTERRES
   175   89   90 1    
   176   89  210 1    
   177   90   91 1    
   178   90   92 1    
   179   90  211 1    
   180   91  212 1    
   181   91  213 1    
   182   91  214 1    
   183   92   93 2    
   184   92   94 am   BACKBONE|DICT|INTERRES
   185   94   95 1    
   186   94  215 1    
   187   95   96 1    
   188   95   97 1    
   189   95  216 1    
   190   96  217 1    
   191   96  218 1    
   192   96  219 1    
   193   97   98 2    
   194   97   99 am   BACKBONE|DICT|INTERRES
   195   99  100 1    
   196   99  220 1    
   197  100  101 1    
   198  100  102 1    
   199  100  221 1    
   200  101  222 1    
   201  101  223 1    
   202  101  224 1    
   203  102  103 2    
   204  102  104 am   BACKBONE|DICT|INTERRES
   205  104  105 1    
   206  104  225 1    
   207  105  106 1    
   208  105  107 1    
   209  105  226 1    
   210  106  227 1    
   211  106  228 1    
   212  106  229 1    
   213  107  108 2    
   214  107  109 am   BACKBONE|DICT|INTERRES
   215  109  110 1    
   216  109  230 1    
   217  110  111 1    
   218  110  112 1    
   219  110  231 1    
   220  111  232 1    
   221  111  233 1    
   222  111  234 1    
   223  112  113 2    
   224  112  114 am   BACKBONE|DICT|INTERRES
   225  114  115 1    
   226  114  235 1    
   227  115  116 1    
   228  115  117 1    
   229  115  236 1    
   230  116  237 1    
   231  116  238 1    
   232  116  239 1    
   233  117  118 2    
   234  117  119 am   BACKBONE|DICT|INTERRES
   235  119  120 1    
   236  119  240 1    
   237  120  121 1    
   238  120  124 1    
   239  120  241 1    
   240  121  122 am   BACKBONE|DICT|INTERRES
   241  121  123 2    
   242  122  242 1    
   243  122  243 1    
   244  124  125 1    
   245  124  244 1    
   246  124  245 1    
   247  125  126 1    
   248  126  246 1    
   249  126  247 1    
@<TRIPOS>SUBSTRUCTURE
     1 UNK         1 GROUP             0       ****    0 ROOT    
