@<TRIPOS>MOLECULE
3R540
247   249    1
SMALL
USER_CHARGES


@<TRIPOS>ATOM
      1 CA         -0.8561   -9.7117  -45.2217 C.3       0 UNK        -0.1800 
      2 C          -1.0415  -11.2178  -45.3321 C.2       0 UNK         0.5000 
      3 O          -2.0199  -11.7519  -44.8088 O.2       0 UNK        -0.5000 
      4 N          -0.0984  -11.9026  -45.9960 N.am      1 UNK        -0.5000 
      5 CA         -0.0490  -13.3560  -46.1955 C.3       1 UNK         0.1400 
      6 C6         -1.1069  -13.8493  -47.2227 C.3       23 UNK        -0.0398 
      7 S7         -0.7671  -15.5270  -47.8633 S.3       23 UNK        -0.2404 
      8 C8          0.3929  -15.1522  -49.2160 C.3       23 UNK        -0.0205 
      9 C9          0.8459  -16.4127  -49.9388 C.ar      23 UNK        -0.0193 
     10 C10         0.2006  -16.8242  -51.1073 C.ar      23 UNK        -0.1150 
     11 C11         0.6288  -17.9644  -51.7940 C.ar      23 UNK        -0.0193 
     12 C12         1.7147  -18.6968  -51.3028 C.ar      23 UNK        -0.1150 
     13 C13         2.3453  -18.3188  -50.1123 C.ar      23 UNK        -0.0193 
     14 C14         1.9171  -17.1644  -49.4478 C.ar      23 UNK        -0.1150 
     15 C15         3.4622  -19.1744  -49.5174 C.3       23 UNK        -0.0205 
     16 S16         2.9182  -20.8383  -48.9688 S.3       23 UNK        -0.2404 
     17 C17         1.1807  -20.5597  -48.5020 C.3       23 UNK        -0.0398 
     18 CA          0.5210  -21.7179  -47.7167 C.3       11 UNK         0.1400 
     19 N           0.9686  -21.8405  -46.3237 N.am      11 UNK        -0.5000 
     20 C           0.5557  -22.8041  -45.4813 C.2       10 UNK         0.5000 
     21 O          -0.1328  -23.7657  -45.8258 O.2       10 UNK        -0.5000 
     22 CA          0.9028  -22.6376  -43.9892 C.3       10 UNK         0.1400 
     23 CB          2.3029  -23.1832  -43.6725 C.3       10 UNK        -0.1800 
     24 N           0.7874  -21.2506  -43.5363 N.am      10 UNK        -0.5000 
     25 C          -0.3588  -20.5543  -43.5134 C.2       9 UNK         0.5000 
     26 O          -1.4542  -21.0312  -43.8070 O.2       9 UNK        -0.5000 
     27 CA         -0.2600  -19.0593  -43.1633 C.3       9 UNK         0.1400 
     28 CB         -0.2439  -18.8441  -41.6424 C.3       9 UNK        -0.1800 
     29 N           0.9052  -18.4248  -43.7841 N.am      9 UNK        -0.5000 
     30 C           1.0538  -18.2749  -45.1084 C.2       8 UNK         0.5000 
     31 O           0.1708  -18.5534  -45.9175 O.2       8 UNK        -0.5000 
     32 CA          2.4313  -17.8170  -45.6253 C.3       8 UNK         0.1400 
     33 CB          2.5244  -16.2965  -45.7685 C.3       8 UNK        -0.1800 
     34 N           3.5231  -18.2757  -44.7748 N.am      8 UNK        -0.5000 
     35 C           3.9670  -19.5372  -44.7378 C.2       7 UNK         0.5000 
     36 O           3.5325  -20.4334  -45.4594 O.2       7 UNK        -0.5000 
     37 CA          5.0372  -19.8482  -43.6756 C.3       7 UNK         0.1400 
     38 CB          6.4393  -19.5105  -44.2037 C.3       7 UNK        -0.1800 
     39 N           4.7981  -19.1200  -42.4258 N.am      7 UNK        -0.5000 
     40 C           3.7520  -19.3437  -41.6175 C.2       6 UNK         0.5000 
     41 O           2.9240  -20.2317  -41.8149 O.2       6 UNK        -0.5000 
     42 CA          3.5737  -18.3929  -40.4192 C.3       6 UNK         0.1400 
     43 CB          4.3128  -18.9364  -39.1876 C.3       6 UNK        -0.1800 
     44 N           4.0284  -17.0273  -40.6949 N.am      6 UNK        -0.5000 
     45 C           3.4311  -16.1764  -41.5402 C.2       5 UNK         0.5000 
     46 O           2.4274  -16.4533  -42.1990 O.2       5 UNK        -0.5000 
     47 CA          4.1218  -14.8202  -41.7241 C.3       5 UNK         0.1400 
     48 CB          5.1573  -14.8969  -42.8610 C.3       5 UNK        -0.1800 
     49 N           3.1539  -13.7612  -42.0118 N.am      5 UNK        -0.5000 
     50 C           3.3545  -12.4722  -41.7012 C.2       4 UNK         0.5000 
     51 O           4.3483  -12.0689  -41.0943 O.2       4 UNK        -0.5000 
     52 CA          2.2952  -11.4468  -42.1365 C.3       4 UNK         0.1400 
     53 CB          2.5514  -10.9927  -43.5828 C.3       4 UNK        -0.1800 
     54 N           0.9320  -11.9620  -42.0241 N.am      4 UNK        -0.5000 
     55 C           0.1093  -11.7185  -40.9937 C.2       3 UNK         0.5000 
     56 O           0.4432  -11.0766  -39.9968 O.2       3 UNK        -0.5000 
     57 CA         -1.3382  -12.2448  -41.0859 C.3       3 UNK         0.1400 
     58 CB         -2.3132  -11.0882  -41.3577 C.3       3 UNK        -0.1800 
     59 N          -1.5118  -13.2599  -42.1242 N.am      3 UNK        -0.5000 
     60 C          -1.2227  -14.5580  -41.9597 C.2       2 UNK         0.5000 
     61 O          -0.8665  -15.0448  -40.8867 O.2       2 UNK        -0.5000 
     62 CA         -1.3248  -15.4650  -43.2029 C.3       2 UNK         0.1400 
     63 CB         -2.6758  -16.1953  -43.2246 C.3       2 UNK        -0.1800 
     64 N          -1.1417  -14.7734  -44.4807 N.am      2 UNK        -0.5000 
     65 C          -0.0502  -14.0807  -44.8306 C.2       1 UNK         0.5000 
     66 O           0.9256  -13.9459  -44.0914 O.2       1 UNK        -0.5000 
     67 C          -1.0083  -21.5572  -47.7924 C.2       11 UNK         0.5000 
     68 O          -1.6568  -22.3598  -48.4580 O.2       11 UNK        -0.5000 
     69 N          -1.5523  -20.5426  -47.1047 N.am      12 UNK        -0.5000 
     70 CA         -2.9757  -20.1972  -47.1072 C.3       12 UNK         0.1400 
     71 CB         -3.1977  -18.9392  -46.2548 C.3       12 UNK        -0.1800 
     72 C          -3.8903  -21.3448  -46.6403 C.2       12 UNK         0.5000 
     73 O          -4.9247  -21.5868  -47.2635 O.2       12 UNK        -0.5000 
     74 N          -3.4713  -22.0552  -45.5842 N.am      13 UNK        -0.5000 
     75 CA         -4.1573  -23.2264  -45.0384 C.3       13 UNK         0.1400 
     76 CB         -3.4687  -23.6555  -43.7340 C.3       13 UNK        -0.1800 
     77 C          -4.2278  -24.4070  -46.0251 C.2       13 UNK         0.5000 
     78 O          -5.2534  -25.0868  -46.0800 O.2       13 UNK        -0.5000 
     79 N          -3.1492  -24.6237  -46.7895 N.am      14 UNK        -0.5000 
     80 CA         -3.0748  -25.6502  -47.8283 C.3       14 UNK         0.1400 
     81 CB         -1.6001  -25.9564  -48.1327 C.3       14 UNK        -0.1800 
     82 C          -3.8209  -25.2351  -49.1094 C.2       14 UNK         0.5000 
     83 O          -4.4996  -26.0643  -49.7161 O.2       14 UNK        -0.5000 
     84 N          -3.6668  -23.9642  -49.5010 N.am      15 UNK        -0.5000 
     85 CA         -4.2191  -23.3773  -50.7186 C.3       15 UNK         0.1400 
     86 CB         -3.5488  -22.0176  -50.9591 C.3       15 UNK        -0.1800 
     87 C          -5.7464  -23.2151  -50.6841 C.2       15 UNK         0.5000 
     88 O          -6.3892  -23.4078  -51.7177 O.2       15 UNK        -0.5000 
     89 N          -6.2918  -22.8489  -49.5139 N.am      16 UNK        -0.5000 
     90 CA         -7.7040  -22.5659  -49.2441 C.3       16 UNK         0.1400 
     91 CB         -8.5417  -23.8623  -49.3075 C.3       16 UNK        -0.1800 
     92 C          -8.2327  -21.4314  -50.1471 C.2       16 UNK         0.5000 
     93 O          -7.9563  -20.2635  -49.8705 O.2       16 UNK        -0.5000 
     94 N          -8.9509  -21.7895  -51.2208 N.am      17 UNK        -0.5000 
     95 CA         -9.4223  -20.8729  -52.2626 C.3       17 UNK         0.1400 
     96 CB        -10.4754  -21.5948  -53.1177 C.3       17 UNK        -0.1800 
     97 C          -8.2896  -20.3257  -53.1575 C.2       17 UNK         0.5000 
     98 O          -8.4697  -19.2785  -53.7795 O.2       17 UNK        -0.5000 
     99 N          -7.1558  -21.0430  -53.2090 N.am      18 UNK        -0.5000 
    100 CA        -5.9164  -20.7148  -53.9224 C.3       18 UNK         0.1400 
    101 CB        -5.2750  -19.4289  -53.3618 C.3       18 UNK        -0.1800 
    102 C         -6.0420  -20.6997  -55.4588 C.2       18 UNK         0.5000 
    103 O         -5.1980  -20.1087  -56.1338 O.2       18 UNK        -0.5000 
    104 N         -7.0475  -21.4048  -55.9973 N.am      19 UNK        -0.5000 
    105 CA        -7.3009  -21.5537  -57.4358 C.3       19 UNK         0.1400 
    106 CB        -8.6397  -22.2810  -57.6324 C.3       19 UNK        -0.1800 
    107 C         -6.1704  -22.2829  -58.1930 C.2       19 UNK         0.5000 
    108 O         -5.9874  -22.0518  -59.3882 O.2       19 UNK        -0.5000 
    109 N         -5.4162  -23.1240  -57.4728 N.am      20 UNK        -0.5000 
    110 CA        -4.2278  -23.8303  -57.9540 C.3       20 UNK         0.1400 
    111 CB        -4.0445  -25.0955  -57.0984 C.3       20 UNK        -0.1800 
    112 C         -2.9442  -22.9696  -57.9296 C.2       20 UNK         0.5000 
    113 O         -1.8927  -23.4679  -58.3320 O.2       20 UNK        -0.5000 
    114 N         -3.0378  -21.7194  -57.4453 N.am      21 UNK        -0.5000 
    115 CA        -1.9410  -20.7729  -57.2024 C.3       21 UNK         0.1400 
    116 CB        -1.1999  -20.4075  -58.5063 C.3       21 UNK        -0.1800 
    117 C         -1.0035  -21.2355  -56.0659 C.2       21 UNK         0.5000 
    118 O          0.2112  -21.0393  -56.1385 O.2       21 UNK        -0.5000 
    119 N         -1.6095  -21.8204  -55.0243 N.am      22 UNK        -0.5000 
    120 CA        -0.9689  -22.3364  -53.8023 C.3       22 UNK         0.1400 
    121 C         -0.0886  -23.6012  -54.0514 C.2       22 UNK         0.5000 
    122 N          0.7820  -23.9803  -53.1226 N.am      22 UNK        -0.7600 
    123 O         -0.2215  -24.2876  -55.0621 O.2       22 UNK        -0.5000 
    124 C124       -0.2544  -21.2336  -52.9615 C.3       23 UNK        -0.0398 
    125 S125       -1.2829  -19.7450  -52.6920 S.3       23 UNK        -0.2404 
    126 C126       -0.1010  -18.4075  -53.0531 C.3       23 UNK        -0.0205 
    127 H127       -1.7308   -9.1960  -45.6177 H         1 UNK         0.0600 
    128 H128        0.0197   -9.3690  -45.7731 H         1 UNK         0.0600 
    129 H129       -0.7338   -9.4259  -44.1770 H         1 UNK         0.0600 
    130 H130        0.6880  -11.3951  -46.3764 H         1 UNK         0.3000 
    131 H131        0.9356  -13.5447  -46.6251 H         1 UNK         0.0600 
    132 H132       -1.1335  -13.1676  -48.0738 H         1 UNK         0.0800 
    133 H133       -2.1145  -13.8194  -46.8058 H         1 UNK         0.0800 
    134 H134        1.2628  -14.6282  -48.8177 H         1 UNK         0.0800 
    135 H135       -0.0819  -14.4679  -49.9210 H         1 UNK         0.0800 
    136 H136       -0.6390  -16.2556  -51.4821 H         1 UNK         0.1150 
    137 H137        2.0421  -19.5871  -51.8205 H         1 UNK         0.1150 
    138 H138        2.4093  -16.8529  -48.5393 H         1 UNK         0.1150 
    139 H139        4.2560  -19.2900  -50.2564 H         1 UNK         0.0800 
    140 H140        3.9168  -18.6663  -48.6657 H         1 UNK         0.0800 
    141 H141        0.6400  -20.3967  -49.4365 H         1 UNK         0.0800 
    142 H142        1.1094  -19.6253  -47.9509 H         1 UNK         0.0800 
    143 H143        0.7705  -22.6539  -48.2211 H         1 UNK         0.0600 
    144 H144        1.5976  -21.1252  -45.9778 H         1 UNK         0.3000 
    145 H145        0.1811  -23.2261  -43.4187 H         1 UNK         0.0600 
    146 H146        2.5286  -23.0966  -42.6094 H         1 UNK         0.0600 
    147 H147        3.0809  -22.6566  -44.2229 H         1 UNK         0.0600 
    148 H148        2.3756  -24.2390  -43.9362 H         1 UNK         0.0600 
    149 H149        1.6366  -20.8019  -43.2080 H         1 UNK         0.3000 
    150 H150       -1.1510  -18.5739  -43.5617 H         1 UNK         0.0600 
    151 H151       -1.1902  -19.1589  -41.2013 H         1 UNK         0.0600 
    152 H152       -0.0981  -17.7954  -41.3845 H         1 UNK         0.0600 
    153 H153        0.5431  -19.4193  -41.1573 H         1 UNK         0.0600 
    154 H154        1.6374  -18.0921  -43.1678 H         1 UNK         0.3000 
    155 H155        2.5637  -18.2536  -46.6161 H         1 UNK         0.0600 
    156 H156        1.7009  -15.9114  -46.3659 H         1 UNK         0.0600 
    157 H157        3.4500  -16.0030  -46.2635 H         1 UNK         0.0600 
    158 H158        2.4975  -15.8054  -44.7979 H         1 UNK         0.0600 
    159 H159        3.9033  -17.6071  -44.1226 H         1 UNK         0.3000 
    160 H160        4.9978  -20.9190  -43.4639 H         1 UNK         0.0600 
    161 H161        6.5470  -18.4456  -44.4141 H         1 UNK         0.0600 
    162 H162        6.6476  -20.0507  -45.1282 H         1 UNK         0.0600 
    163 H163        7.2091  -19.7906  -43.4844 H         1 UNK         0.0600 
    164 H164        5.4463  -18.3837  -42.1896 H         1 UNK         0.3000 
    165 H165        2.5084  -18.3517  -40.1843 H         1 UNK         0.0600 
    166 H166        4.1293  -18.3145  -38.3112 H         1 UNK         0.0600 
    167 H167        3.9760  -19.9451  -38.9444 H         1 UNK         0.0600 
    168 H168        5.3905  -18.9802  -39.3496 H         1 UNK         0.0600 
    169 H169        4.8560  -16.7252  -40.2008 H         1 UNK         0.3000 
    170 H170        4.6390  -14.5896  -40.7900 H         1 UNK         0.0600 
    171 H171        4.6824  -15.0847  -43.8244 H         1 UNK         0.0600 
    172 H172        5.7209  -13.9676  -42.9447 H         1 UNK         0.0600 
    173 H173        5.8791  -15.6958  -42.6869 H         1 UNK         0.0600 
    174 H174        2.3195  -14.0449  -42.5171 H         1 UNK         0.3000 
    175 H175        2.4093  -10.5677  -41.4985 H         1 UNK         0.0600 
    176 H176        2.4815  -11.8199  -44.2892 H         1 UNK         0.0600 
    177 H177        1.8377  -10.2277  -43.8872 H         1 UNK         0.0600 
    178 H178        3.5487  -10.5629  -43.6837 H         1 UNK         0.0600 
    179 H179        0.6253  -12.5729  -42.7739 H         1 UNK         0.3000 
    180 H180       -1.5933  -12.6764  -40.1157 H         1 UNK         0.0600 
    181 H181       -3.3439  -11.4411  -41.3949 H         1 UNK         0.0600 
    182 H182       -2.0951  -10.5895  -42.3022 H         1 UNK         0.0600 
    183 H183       -2.2565  -10.3358  -40.5701 H         1 UNK         0.0600 
    184 H184       -1.7938  -12.9294  -43.0411 H         1 UNK         0.3000 
    185 H185       -0.5246  -16.1996  -43.1236 H         1 UNK         0.0600 
    186 H186       -3.5093  -15.4936  -43.2755 H         1 UNK         0.0600 
    187 H187       -2.7518  -16.8644  -44.0812 H         1 UNK         0.0600 
    188 H188       -2.8079  -16.7989  -42.3257 H         1 UNK         0.0600 
    189 H189       -1.9147  -14.8184  -45.1276 H         1 UNK         0.3000 
    190 H190       -0.9400  -19.9134  -46.5901 H         1 UNK         0.3000 
    191 H191       -3.2477  -19.9587  -48.1371 H         1 UNK         0.0600 
    192 H192       -4.2433  -18.6302  -46.2780 H         1 UNK         0.0600 
    193 H193       -2.6021  -18.1027  -46.6219 H         1 UNK         0.0600 
    194 H194       -2.9281  -19.1098  -45.2126 H         1 UNK         0.0600 
    195 H195       -2.6288  -21.7554  -45.0990 H         1 UNK         0.3000 
    196 H196       -5.1816  -22.9309  -44.8025 H         1 UNK         0.0600 
    197 H197       -3.4989  -22.8574  -42.9920 H         1 UNK         0.0600 
    198 H198       -2.4229  -23.9174  -43.9002 H         1 UNK         0.0600 
    199 H199       -3.9618  -24.5248  -43.2972 H         1 UNK         0.0600 
    200 H200       -2.3427  -24.0199  -46.6859 H         1 UNK         0.3000 
    201 H201       -3.5369  -26.5654  -47.4519 H         1 UNK         0.0600 
    202 H202       -1.0807  -26.3118  -47.2426 H         1 UNK         0.0600 
    203 H203       -1.0704  -25.0749  -48.4960 H         1 UNK         0.0600 
    204 H204       -1.5107  -26.7318  -48.8945 H         1 UNK         0.0600 
    205 H205       -3.0369  -23.3677  -48.9665 H         1 UNK         0.3000 
    206 H206       -3.9688  -24.0357  -51.5528 H         1 UNK         0.0600 
    207 H207       -3.8032  -21.2983  -50.1800 H         1 UNK         0.0600 
    208 H208       -2.4639  -22.1112  -50.9793 H         1 UNK         0.0600 
    209 H209       -3.8501  -21.5891  -51.9122 H         1 UNK         0.0600 
    210 H210       -5.6638  -22.6371  -48.7431 H         1 UNK         0.3000 
    211 H211       -7.7529  -22.1932  -48.2198 H         1 UNK         0.0600 
    212 H212       -8.4873  -24.3506  -50.2807 H         1 UNK         0.0600 
    213 H213       -9.5923  -23.6604  -49.0948 H         1 UNK         0.0600 
    214 H214       -8.1957  -24.5802  -48.5636 H         1 UNK         0.0600 
    215 H215       -9.1034  -22.7746  -51.3826 H         1 UNK         0.3000 
    216 H216       -9.9000  -20.0189  -51.7778 H         1 UNK         0.0600 
    217 H217      -10.8710  -20.9348  -53.8910 H         1 UNK         0.0600 
    218 H218      -11.3192  -21.9227  -52.5102 H         1 UNK         0.0600 
    219 H219      -10.0587  -22.4711  -53.6157 H         1 UNK         0.0600 
    220 H220       -7.1163  -21.9011  -52.6643 H         1 UNK         0.3000 
    221 H221       -5.2359  -21.5386  -53.7098 H         1 UNK         0.0600 
    222 H222       -5.8586  -18.5429  -53.6128 H         1 UNK         0.0600 
    223 H223       -5.1837  -19.4734  -52.2765 H         1 UNK         0.0600 
    224 H224       -4.2716  -19.2829  -53.7636 H         1 UNK         0.0600 
    225 H225       -7.6911  -21.8675  -55.3725 H         1 UNK         0.3000 
    226 H226       -7.3878  -20.5530  -57.8641 H         1 UNK         0.0600 
    227 H227       -9.4592  -21.7313  -57.1688 H         1 UNK         0.0600 
    228 H228       -8.8773  -22.3832  -58.6921 H         1 UNK         0.0600 
    229 H229       -8.6205  -23.2830  -57.2019 H         1 UNK         0.0600 
    230 H230       -5.6568  -23.2600  -56.5023 H         1 UNK         0.3000 
    231 H231       -4.3929  -24.1389  -58.9884 H         1 UNK         0.0600 
    232 H232       -3.2042  -25.6930  -57.4544 H         1 UNK         0.0600 
    233 H233       -4.9297  -25.7307  -57.1375 H         1 UNK         0.0600 
    234 H234       -3.8514  -24.8502  -56.0532 H         1 UNK         0.0600 
    235 H235       -3.9509  -21.3850  -57.1578 H         1 UNK         0.3000 
    236 H236       -2.4147  -19.8598  -56.8388 H         1 UNK         0.0600 
    237 H237       -0.6168  -21.2429  -58.8941 H         1 UNK         0.0600 
    238 H238       -1.8983  -20.0949  -59.2825 H         1 UNK         0.0600 
    239 H239       -0.5086  -19.5806  -58.3402 H         1 UNK         0.0600 
    240 H240       -2.6059  -21.9574  -55.0837 H         1 UNK         0.3000 
    241 H241       -1.7986  -22.7089  -53.2030 H         1 UNK         0.0600 
    242 H242        1.3301  -24.8104  -53.2872 H         1 UNK         0.3800 
    243 H243        0.9100  -23.4723  -52.2627 H         1 UNK         0.3800 
    244 H244        0.6842  -20.9545  -53.4413 H         1 UNK         0.0800 
    245 H245        0.0123  -21.6157  -51.9756 H         1 UNK         0.0800 
    246 H246        0.6111  -18.7121  -53.8212 H         1 UNK         0.0800 
    247 H247       -0.6535  -17.5682  -53.4778 H         1 UNK         0.0800 
@<TRIPOS>BOND
     1    1    2 1    
     2    1  127 1    
     3    1  128 1    
     4    1  129 1    
     5    2    3 2    
     6    2    4 am   BACKBONE|DICT|INTERRES
     7    4    5 1    
     8    4  130 1    
     9    5    6 1    
    10    5   65 1    
    11    5  131 1    
    12    6    7 1    
    13    6  132 1    
    14    6  133 1    
    15    7    8 1    
    16    8    9 1    
    17    8  134 1    
    18    8  135 1    
    19    9   10 ar   
    20    9   14 ar   
    21   10   11 ar   
    22   10  136 1    
    23   11   12 ar   
    24   11  126 1    
    25   12   13 ar   
    26   12  137 1    
    27   13   14 ar   
    28   13   15 1    
    29   14  138 1    
    30   15   16 1    
    31   15  139 1    
    32   15  140 1    
    33   16   17 1    
    34   17   18 1    
    35   17  141 1    
    36   17  142 1    
    37   18   19 1    
    38   18   67 1    
    39   18  143 1    
    40   19   20 am   BACKBONE|DICT|INTERRES
    41   19  144 1    
    42   20   21 2    
    43   20   22 1    
    44   22   23 1    
    45   22   24 1    
    46   22  145 1    
    47   23  146 1    
    48   23  147 1    
    49   23  148 1    
    50   24   25 am   BACKBONE|DICT|INTERRES
    51   24  149 1    
    52   25   26 2    
    53   25   27 1    
    54   27   28 1    
    55   27   29 1    
    56   27  150 1    
    57   28  151 1    
    58   28  152 1    
    59   28  153 1    
    60   29   30 am   BACKBONE|DICT|INTERRES
    61   29  154 1    
    62   30   31 2    
    63   30   32 1    
    64   32   33 1    
    65   32   34 1    
    66   32  155 1    
    67   33  156 1    
    68   33  157 1    
    69   33  158 1    
    70   34   35 am   BACKBONE|DICT|INTERRES
    71   34  159 1    
    72   35   36 2    
    73   35   37 1    
    74   37   38 1    
    75   37   39 1    
    76   37  160 1    
    77   38  161 1    
    78   38  162 1    
    79   38  163 1    
    80   39   40 am   BACKBONE|DICT|INTERRES
    81   39  164 1    
    82   40   41 2    
    83   40   42 1    
    84   42   43 1    
    85   42   44 1    
    86   42  165 1    
    87   43  166 1    
    88   43  167 1    
    89   43  168 1    
    90   44   45 am   BACKBONE|DICT|INTERRES
    91   44  169 1    
    92   45   46 2    
    93   45   47 1    
    94   47   48 1    
    95   47   49 1    
    96   47  170 1    
    97   48  171 1    
    98   48  172 1    
    99   48  173 1    
   100   49   50 am   BACKBONE|DICT|INTERRES
   101   49  174 1    
   102   50   51 2    
   103   50   52 1    
   104   52   53 1    
   105   52   54 1    
   106   52  175 1    
   107   53  176 1    
   108   53  177 1    
   109   53  178 1    
   110   54   55 am   BACKBONE|DICT|INTERRES
   111   54  179 1    
   112   55   56 2    
   113   55   57 1    
   114   57   58 1    
   115   57   59 1    
   116   57  180 1    
   117   58  181 1    
   118   58  182 1    
   119   58  183 1    
   120   59   60 am   BACKBONE|DICT|INTERRES
   121   59  184 1    
   122   60   61 2    
   123   60   62 1    
   124   62   63 1    
   125   62   64 1    
   126   62  185 1    
   127   63  186 1    
   128   63  187 1    
   129   63  188 1    
   130   64   65 am   BACKBONE|DICT|INTERRES
   131   64  189 1    
   132   65   66 2    
   133   67   68 2    
   134   67   69 am   BACKBONE|DICT|INTERRES
   135   69   70 1    
   136   69  190 1    
   137   70   71 1    
   138   70   72 1    
   139   70  191 1    
   140   71  192 1    
   141   71  193 1    
   142   71  194 1    
   143   72   73 2    
   144   72   74 am   BACKBONE|DICT|INTERRES
   145   74   75 1    
   146   74  195 1    
   147   75   76 1    
   148   75   77 1    
   149   75  196 1    
   150   76  197 1    
   151   76  198 1    
   152   76  199 1    
   153   77   78 2    
   154   77   79 am   BACKBONE|DICT|INTERRES
   155   79   80 1    
   156   79  200 1    
   157   80   81 1    
   158   80   82 1    
   159   80  201 1    
   160   81  202 1    
   161   81  203 1    
   162   81  204 1    
   163   82   83 2    
   164   82   84 am   BACKBONE|DICT|INTERRES
   165   84   85 1    
   166   84  205 1    
   167   85   86 1    
   168   85   87 1    
   169   85  206 1    
   170   86  207 1    
   171   86  208 1    
   172   86  209 1    
   173   87   88 2    
   174   87   89 am   BACKBONE|DICT|INTERRES
   175   89   90 1    
   176   89  210 1    
   177   90   91 1    
   178   90   92 1    
   179   90  211 1    
   180   91  212 1    
   181   91  213 1    
   182   91  214 1    
   183   92   93 2    
   184   92   94 am   BACKBONE|DICT|INTERRES
   185   94   95 1    
   186   94  215 1    
   187   95   96 1    
   188   95   97 1    
   189   95  216 1    
   190   96  217 1    
   191   96  218 1    
   192   96  219 1    
   193   97   98 2    
   194   97   99 am   BACKBONE|DICT|INTERRES
   195   99  100 1    
   196   99  220 1    
   197  100  101 1    
   198  100  102 1    
   199  100  221 1    
   200  101  222 1    
   201  101  223 1    
   202  101  224 1    
   203  102  103 2    
   204  102  104 am   BACKBONE|DICT|INTERRES
   205  104  105 1    
   206  104  225 1    
   207  105  106 1    
   208  105  107 1    
   209  105  226 1    
   210  106  227 1    
   211  106  228 1    
   212  106  229 1    
   213  107  108 2    
   214  107  109 am   BACKBONE|DICT|INTERRES
   215  109  110 1    
   216  109  230 1    
   217  110  111 1    
   218  110  112 1    
   219  110  231 1    
   220  111  232 1    
   221  111  233 1    
   222  111  234 1    
   223  112  113 2    
   224  112  114 am   BACKBONE|DICT|INTERRES
   225  114  115 1    
   226  114  235 1    
   227  115  116 1    
   228  115  117 1    
   229  115  236 1    
   230  116  237 1    
   231  116  238 1    
   232  116  239 1    
   233  117  118 2    
   234  117  119 am   BACKBONE|DICT|INTERRES
   235  119  120 1    
   236  119  240 1    
   237  120  121 1    
   238  120  124 1    
   239  120  241 1    
   240  121  122 am   BACKBONE|DICT|INTERRES
   241  121  123 2    
   242  122  242 1    
   243  122  243 1    
   244  124  125 1    
   245  124  244 1    
   246  124  245 1    
   247  125  126 1    
   248  126  246 1    
   249  126  247 1    
@<TRIPOS>SUBSTRUCTURE
     1 UNK         1 GROUP             0       ****    0 ROOT    
