@<TRIPOS>MOLECULE
3R540
247   249    1
SMALL
USER_CHARGES


@<TRIPOS>ATOM
      1 CA         -2.5166  -16.3583  -48.3850 C.3       0 UNK        -0.1800 
      2 C          -1.3624  -16.6871  -49.3306 C.2       0 UNK         0.5000 
      3 O          -1.3612  -17.7662  -49.9143 O.2       0 UNK        -0.5000 
      4 N          -0.3706  -15.8058  -49.5244 N.am      1 UNK        -0.5000 
      5 CA         -0.2283  -14.4782  -48.9198 C.3       1 UNK         0.1400 
      6 C6          0.7131  -13.5644  -49.7611 C.3       23 UNK        -0.0398 
      7 S7          2.5116  -13.6603  -49.4178 S.3       23 UNK        -0.2404 
      8 C8          3.1522  -14.5710  -50.8579 C.3       23 UNK        -0.0205 
      9 C9          2.7500  -16.0368  -50.8310 C.ar      23 UNK        -0.0193 
     10 C10         1.9058  -16.5575  -51.8160 C.ar      23 UNK        -0.1150 
     11 C11         1.5249  -17.9022  -51.7827 C.ar      23 UNK        -0.0193 
     12 C12         1.9913  -18.7246  -50.7529 C.ar      23 UNK        -0.1150 
     13 C13         2.8488  -18.2188  -49.7722 C.ar      23 UNK        -0.0193 
     14 C14         3.2294  -16.8760  -49.8210 C.ar      23 UNK        -0.1150 
     15 C15         3.3649  -19.1240  -48.6629 C.3       23 UNK        -0.0205 
     16 S16         2.6616  -18.7158  -47.0316 S.3       23 UNK        -0.2404 
     17 C17         0.8708  -18.9071  -47.3266 C.3       23 UNK        -0.0398 
     18 CA          0.3933  -20.3749  -47.2649 C.3       11 UNK         0.1400 
     19 N           0.5534  -20.9631  -45.9348 N.am      11 UNK        -0.5000 
     20 C           0.3564  -22.2533  -45.6358 C.2       10 UNK         0.5000 
     21 O           0.0657  -23.1134  -46.4668 O.2       10 UNK        -0.5000 
     22 CA          0.4484  -22.6355  -44.1493 C.3       10 UNK         0.1400 
     23 CB          1.9097  -22.8308  -43.7172 C.3       10 UNK        -0.1800 
     24 N          -0.1936  -21.6405  -43.2897 N.am      10 UNK        -0.5000 
     25 C          -1.5164  -21.4345  -43.2311 C.2       9 UNK         0.5000 
     26 O          -2.3377  -22.0815  -43.8799 O.2       9 UNK        -0.5000 
     27 CA         -2.0010  -20.2938  -42.3185 C.3       9 UNK         0.1400 
     28 CB         -2.0469  -20.7519  -40.8531 C.3       9 UNK        -0.1800 
     29 N          -1.1725  -19.0937  -42.4225 N.am      9 UNK        -0.5000 
     30 C          -1.0786  -18.3276  -43.5180 C.2       8 UNK         0.5000 
     31 O          -1.6873  -18.5449  -44.5643 O.2       8 UNK        -0.5000 
     32 CA         -0.1034  -17.1402  -43.4434 C.3       8 UNK         0.1400 
     33 CB         -0.7692  -15.9647  -42.7092 C.3       8 UNK        -0.1800 
     34 N           1.1736  -17.4512  -42.7951 N.am      8 UNK        -0.5000 
     35 C           1.9797  -18.4839  -43.0843 C.2       7 UNK         0.5000 
     36 O           1.7093  -19.3603  -43.9017 O.2       7 UNK        -0.5000 
     37 CA          3.3049  -18.5754  -42.3138 C.3       7 UNK         0.1400 
     38 CB          4.4086  -17.8139  -43.0618 C.3       7 UNK        -0.1800 
     39 N           3.2025  -18.0813  -40.9399 N.am      7 UNK        -0.5000 
     40 C           2.5555  -18.7167  -39.9520 C.2       6 UNK         0.5000 
     41 O           1.9471  -19.7768  -40.1037 O.2       6 UNK        -0.5000 
     42 CA          2.6006  -18.0584  -38.5606 C.3       6 UNK         0.1400 
     43 CB          3.8554  -18.5065  -37.7956 C.3       6 UNK        -0.1800 
     44 N           2.5811  -16.5969  -38.6362 N.am      6 UNK        -0.5000 
     45 C           1.4721  -15.8711  -38.8313 C.2       5 UNK         0.5000 
     46 O           0.3422  -16.3533  -38.9154 O.2       5 UNK        -0.5000 
     47 CA          1.6646  -14.3494  -38.9903 C.3       5 UNK         0.1400 
     48 CB          1.7188  -13.6643  -37.6163 C.3       5 UNK        -0.1800 
     49 N           2.8526  -13.9749  -39.7682 N.am      5 UNK        -0.5000 
     50 C           3.0655  -14.3379  -41.0388 C.2       4 UNK         0.5000 
     51 O           2.3159  -15.0929  -41.6647 O.2       4 UNK        -0.5000 
     52 CA          4.3241  -13.7936  -41.7286 C.3       4 UNK         0.1400 
     53 CB          5.5871  -14.5416  -41.2644 C.3       4 UNK        -0.1800 
     54 N           4.1141  -13.9711  -43.1585 N.am      4 UNK        -0.5000 
     55 C           4.7598  -13.3836  -44.1681 C.2       3 UNK         0.5000 
     56 O           5.7411  -12.6526  -44.0294 O.2       3 UNK        -0.5000 
     57 CA          4.1774  -13.6380  -45.5744 C.3       3 UNK         0.1400 
     58 CB          4.8294  -14.8730  -46.2148 C.3       3 UNK        -0.1800 
     59 N           2.7208  -13.8177  -45.5784 N.am      3 UNK        -0.5000 
     60 C           1.8235  -12.8892  -45.2197 C.2       2 UNK         0.5000 
     61 O           2.1240  -11.7464  -44.8706 O.2       2 UNK        -0.5000 
     62 CA          0.3435  -13.3121  -45.2994 C.3       2 UNK         0.1400 
     63 CB         -0.6029  -12.3192  -44.6022 C.3       2 UNK        -0.1800 
     64 N          -0.0721  -13.4724  -46.6910 N.am      2 UNK        -0.5000 
     65 C           0.1677  -14.5624  -47.4286 C.2       1 UNK         0.5000 
     66 O           0.6999  -15.5787  -46.9760 O.2       1 UNK        -0.5000 
     67 C          -1.0578  -20.5084  -47.7677 C.2       11 UNK         0.5000 
     68 O          -1.2656  -20.9858  -48.8828 O.2       11 UNK        -0.5000 
     69 N          -2.0354  -20.1558  -46.9184 N.am      12 UNK        -0.5000 
     70 CA         -3.4636  -20.3030  -47.2013 C.3       12 UNK         0.1400 
     71 CB         -4.2897  -19.6470  -46.0864 C.3       12 UNK        -0.1800 
     72 C          -3.8933  -21.7666  -47.4045 C.2       12 UNK         0.5000 
     73 O          -4.7173  -22.0298  -48.2797 O.2       12 UNK        -0.5000 
     74 N          -3.3153  -22.6934  -46.6265 N.am      13 UNK        -0.5000 
     75 CA         -3.5211  -24.1345  -46.7750 C.3       13 UNK         0.1400 
     76 CB         -2.9219  -24.8814  -45.5742 C.3       13 UNK        -0.1800 
     77 C          -2.9565  -24.6742  -48.1015 C.2       13 UNK         0.5000 
     78 O          -3.6493  -25.4273  -48.7855 O.2       13 UNK        -0.5000 
     79 N          -1.7397  -24.2450  -48.4689 N.am      14 UNK        -0.5000 
     80 CA         -1.0887  -24.5712  -49.7425 C.3       14 UNK         0.1400 
     81 CB          0.3591  -24.0566  -49.7297 C.3       14 UNK        -0.1800 
     82 C          -1.8547  -24.0228  -50.9620 C.2       14 UNK         0.5000 
     83 O          -1.9848  -24.7207  -51.9673 O.2       14 UNK        -0.5000 
     84 N          -2.3933  -22.8047  -50.8247 N.am      15 UNK        -0.5000 
     85 CA         -3.2654  -22.1481  -51.7976 C.3       15 UNK         0.1400 
     86 CB         -3.2993  -20.6457  -51.4797 C.3       15 UNK        -0.1800 
     87 C          -4.6985  -22.7156  -51.8383 C.2       15 UNK         0.5000 
     88 O          -5.4716  -22.3038  -52.7042 O.2       15 UNK        -0.5000 
     89 N          -5.0439  -23.6111  -50.9008 N.am      16 UNK        -0.5000 
     90 CA         -6.3534  -24.2393  -50.6997 C.3       16 UNK         0.1400 
     91 CB         -6.6747  -25.2013  -51.8619 C.3       16 UNK        -0.1800 
     92 C          -7.4666  -23.2012  -50.4528 C.2       16 UNK         0.5000 
     93 O          -8.5163  -23.2540  -51.0925 O.2       16 UNK        -0.5000 
     94 N          -7.1875  -22.2308  -49.5698 N.am      17 UNK        -0.5000 
     95 CA         -8.0124  -21.0521  -49.2715 C.3       17 UNK         0.1400 
     96 CB         -9.3261  -21.4576  -48.5714 C.3       17 UNK        -0.1800 
     97 C          -8.2332  -20.1647  -50.5173 C.2       17 UNK         0.5000 
     98 O          -9.3201  -19.6205  -50.7148 O.2       17 UNK        -0.5000 
     99 N          -7.1807  -20.0733  -51.3426 N.am      18 UNK        -0.5000 
    100 CA        -7.0780  -19.3939  -52.6372 C.3       18 UNK         0.1400 
    101 CB        -7.4495  -17.9006  -52.5348 C.3       18 UNK        -0.1800 
    102 C         -7.8056  -20.1037  -53.7980 C.2       18 UNK         0.5000 
    103 O         -7.7600  -19.5932  -54.9178 O.2       18 UNK        -0.5000 
    104 N         -8.4089  -21.2801  -53.5633 N.am      19 UNK        -0.5000 
    105 CA        -9.0732  -22.0790  -54.5998 C.3       19 UNK         0.1400 
    106 CB        -9.9480  -23.1593  -53.9479 C.3       19 UNK        -0.1800 
    107 C         -8.0879  -22.7180  -55.5983 C.2       19 UNK         0.5000 
    108 O         -8.4622  -22.9458  -56.7492 O.2       19 UNK        -0.5000 
    109 N         -6.8495  -22.9707  -55.1538 N.am      20 UNK        -0.5000 
    110 CA        -5.7403  -23.4625  -55.9734 C.3       20 UNK         0.1400 
    111 CB        -5.0842  -24.6583  -55.2609 C.3       20 UNK        -0.1800 
    112 C         -4.7115  -22.3493  -56.2562 C.2       20 UNK         0.5000 
    113 O         -3.6246  -22.6513  -56.7551 O.2       20 UNK        -0.5000 
    114 N         -5.0544  -21.0956  -55.9145 N.am      21 UNK        -0.5000 
    115 CA        -4.2987  -19.8402  -56.0345 C.3       21 UNK         0.1400 
    116 CB        -4.0240  -19.4969  -57.5106 C.3       21 UNK        -0.1800 
    117 C         -3.0041  -19.7879  -55.1994 C.2       21 UNK         0.5000 
    118 O         -2.8202  -18.8595  -54.4133 O.2       21 UNK        -0.5000 
    119 N         -2.1416  -20.7863  -55.3858 N.am      22 UNK        -0.5000 
    120 CA        -0.8698  -21.0051  -54.6907 C.3       22 UNK         0.1400 
    121 C         -0.4167  -22.4975  -54.7208 C.2       22 UNK         0.5000 
    122 N         -1.1508  -23.4176  -55.3409 N.am      22 UNK        -0.7600 
    123 O          0.6126  -22.8442  -54.1503 O.2       22 UNK        -0.5000 
    124 C124        0.2243  -20.0126  -55.1762 C.3       23 UNK        -0.0398 
    125 S125        1.4949  -19.6415  -53.9231 S.3       23 UNK        -0.2404 
    126 C126        0.6050  -18.4694  -52.8517 C.3       23 UNK        -0.0205 
    127 H127       -3.2791  -17.1359  -48.4357 H         1 UNK         0.0600 
    128 H128       -2.9929  -15.4147  -48.6484 H         1 UNK         0.0600 
    129 H129       -2.1691  -16.3085  -47.3531 H         1 UNK         0.0600 
    130 H130        0.4134  -16.0969  -50.0921 H         1 UNK         0.3000 
    131 H131       -1.2137  -14.0110  -48.9567 H         1 UNK         0.0600 
    132 H132        0.5366  -13.7205  -50.8263 H         1 UNK         0.0800 
    133 H133        0.4320  -12.5250  -49.5856 H         1 UNK         0.0800 
    134 H134        4.2411  -14.5060  -50.8566 H         1 UNK         0.0800 
    135 H135        2.8184  -14.0845  -51.7757 H         1 UNK         0.0800 
    136 H136        1.5423  -15.9163  -52.6069 H         1 UNK         0.1150 
    137 H137        1.6877  -19.7619  -50.7231 H         1 UNK         0.1150 
    138 H138        3.8854  -16.4792  -49.0594 H         1 UNK         0.1150 
    139 H139        3.1587  -20.1708  -48.8900 H         1 UNK         0.0800 
    140 H140        4.4506  -19.0347  -48.6074 H         1 UNK         0.0800 
    141 H141        0.6329  -18.4630  -48.2909 H         1 UNK         0.0800 
    142 H142        0.3419  -18.3049  -46.5865 H         1 UNK         0.0800 
    143 H143        1.0141  -20.9571  -47.9488 H         1 UNK         0.0600 
    144 H144        0.8501  -20.3314  -45.1930 H         1 UNK         0.3000 
    145 H145       -0.0722  -23.5861  -44.0159 H         1 UNK         0.0600 
    146 H146        1.9740  -23.1455  -42.6756 H         1 UNK         0.0600 
    147 H147        2.3926  -23.6006  -44.3203 H         1 UNK         0.0600 
    148 H148        2.4928  -21.9162  -43.8275 H         1 UNK         0.0600 
    149 H149        0.4185  -21.0122  -42.7883 H         1 UNK         0.3000 
    150 H150       -3.0155  -20.0314  -42.6260 H         1 UNK         0.0600 
    151 H151       -2.6654  -21.6435  -40.7419 H         1 UNK         0.0600 
    152 H152       -2.4728  -19.9797  -40.2122 H         1 UNK         0.0600 
    153 H153       -1.0524  -20.9913  -40.4738 H         1 UNK         0.0600 
    154 H154       -0.6103  -18.8527  -41.6189 H         1 UNK         0.3000 
    155 H155        0.1212  -16.8303  -44.4658 H         1 UNK         0.0600 
    156 H156       -1.0157  -16.2238  -41.6786 H         1 UNK         0.0600 
    157 H157       -1.6940  -15.6670  -43.2052 H         1 UNK         0.0600 
    158 H158       -0.1221  -15.0897  -42.6775 H         1 UNK         0.0600 
    159 H159        1.5184  -16.7513  -42.1440 H         1 UNK         0.3000 
    160 H160        3.5907  -19.6288  -42.2745 H         1 UNK         0.0600 
    161 H161        4.1728  -16.7549  -43.1561 H         1 UNK         0.0600 
    162 H162        4.5354  -18.2081  -44.0713 H         1 UNK         0.0600 
    163 H163        5.3689  -17.9058  -42.5546 H         1 UNK         0.0600 
    164 H164        3.6380  -17.1947  -40.7404 H         1 UNK         0.3000 
    165 H165        1.7258  -18.3981  -38.0016 H         1 UNK         0.0600 
    166 H166        3.8674  -18.0976  -36.7851 H         1 UNK         0.0600 
    167 H167        3.8900  -19.5931  -37.7058 H         1 UNK         0.0600 
    168 H168        4.7704  -18.1892  -38.2974 H         1 UNK         0.0600 
    169 H169        3.4668  -16.1181  -38.5651 H         1 UNK         0.3000 
    170 H170        0.7915  -13.9678  -39.5240 H         1 UNK         0.0600 
    171 H171        0.8377  -13.9103  -37.0219 H         1 UNK         0.0600 
    172 H172        2.5960  -13.9726  -37.0461 H         1 UNK         0.0600 
    173 H173        1.7476  -12.5792  -37.7172 H         1 UNK         0.0600 
    174 H174        3.5143  -13.3623  -39.3134 H         1 UNK         0.3000 
    175 H175        4.4153  -12.7280  -41.5097 H         1 UNK         0.0600 
    176 H176        5.5171  -15.6125  -41.4518 H         1 UNK         0.0600 
    177 H177        6.4770  -14.1727  -41.7742 H         1 UNK         0.0600 
    178 H178        5.7513  -14.4062  -40.1949 H         1 UNK         0.0600 
    179 H179        3.2940  -14.5285  -43.3650 H         1 UNK         0.3000 
    180 H180        4.4089  -12.7675  -46.1914 H         1 UNK         0.0600 
    181 H181        4.5894  -15.7858  -45.6679 H         1 UNK         0.0600 
    182 H182        5.9157  -14.7766  -46.2358 H         1 UNK         0.0600 
    183 H183        4.4955  -15.0025  -47.2441 H         1 UNK         0.0600 
    184 H184        2.3701  -14.7048  -45.9223 H         1 UNK         0.3000 
    185 H185        0.2511  -14.2698  -44.7871 H         1 UNK         0.0600 
    186 H186       -0.3238  -12.1847  -43.5563 H         1 UNK         0.0600 
    187 H187       -0.5841  -11.3379  -45.0779 H         1 UNK         0.0600 
    188 H188       -1.6315  -12.6801  -44.6182 H         1 UNK         0.0600 
    189 H189       -0.4797  -12.6579  -47.1273 H         1 UNK         0.3000 
    190 H190       -1.7953  -19.7424  -46.0206 H         1 UNK         0.3000 
    191 H191       -3.6693  -19.7688  -48.1308 H         1 UNK         0.0600 
    192 H192       -4.0885  -20.1030  -45.1163 H         1 UNK         0.0600 
    193 H193       -5.3585  -19.7438  -46.2817 H         1 UNK         0.0600 
    194 H194       -4.0691  -18.5823  -46.0087 H         1 UNK         0.0600 
    195 H195       -2.6960  -22.3950  -45.8808 H         1 UNK         0.3000 
    196 H196       -4.5978  -24.3170  -46.7768 H         1 UNK         0.0600 
    197 H197       -3.0839  -25.9563  -45.6633 H         1 UNK         0.0600 
    198 H198       -3.3841  -24.5601  -44.6408 H         1 UNK         0.0600 
    199 H199       -1.8481  -24.7179  -45.4888 H         1 UNK         0.0600 
    200 H200       -1.2153  -23.6537  -47.8296 H         1 UNK         0.3000 
    201 H201       -1.0609  -25.6591  -49.8314 H         1 UNK         0.0600 
    202 H202        0.9277  -24.5002  -48.9122 H         1 UNK         0.0600 
    203 H203        0.4024  -22.9733  -49.6162 H         1 UNK         0.0600 
    204 H204        0.8712  -24.3092  -50.6590 H         1 UNK         0.0600 
    205 H205       -2.1702  -22.2705  -49.9880 H         1 UNK         0.3000 
    206 H206       -2.8408  -22.2844  -52.7930 H         1 UNK         0.0600 
    207 H207       -2.2971  -20.2166  -51.4814 H         1 UNK         0.0600 
    208 H208       -3.8827  -20.0984  -52.2185 H         1 UNK         0.0600 
    209 H209       -3.7405  -20.4514  -50.5021 H         1 UNK         0.0600 
    210 H210       -4.3402  -23.8700  -50.2211 H         1 UNK         0.3000 
    211 H211       -6.2754  -24.8324  -49.7876 H         1 UNK         0.0600 
    212 H212       -6.8359  -24.6672  -52.7978 H         1 UNK         0.0600 
    213 H213       -7.5794  -25.7737  -51.6548 H         1 UNK         0.0600 
    214 H214       -5.8660  -25.9152  -52.0182 H         1 UNK         0.0600 
    215 H215       -6.2773  -22.2517  -49.1086 H         1 UNK         0.3000 
    216 H216       -7.4371  -20.4493  -48.5673 H         1 UNK         0.0600 
    217 H217       -9.8712  -20.5784  -48.2261 H         1 UNK         0.0600 
    218 H218       -9.1307  -22.0807  -47.6987 H         1 UNK         0.0600 
    219 H219       -9.9889  -22.0108  -49.2373 H         1 UNK         0.0600 
    220 H220       -6.3696  -20.6224  -51.0964 H         1 UNK         0.3000 
    221 H221       -6.0209  -19.4369  -52.8996 H         1 UNK         0.0600 
    222 H222       -8.5177  -17.7555  -52.3735 H         1 UNK         0.0600 
    223 H223       -6.9150  -17.4153  -51.7183 H         1 UNK         0.0600 
    224 H224       -7.1878  -17.3709  -53.4515 H         1 UNK         0.0600 
    225 H225       -8.3855  -21.6755  -52.6309 H         1 UNK         0.3000 
    226 H226       -9.7301  -21.4133  -55.1637 H         1 UNK         0.0600 
    227 H227      -10.6172  -22.7333  -53.2001 H         1 UNK         0.0600 
    228 H228      -10.5674  -23.6578  -54.6944 H         1 UNK         0.0600 
    229 H229       -9.3450  -23.9279  -53.4639 H         1 UNK         0.0600 
    230 H230       -6.6092  -22.7334  -54.1937 H         1 UNK         0.3000 
    231 H231       -6.1054  -23.8090  -56.9419 H         1 UNK         0.0600 
    232 H232       -5.8156  -25.4366  -55.0434 H         1 UNK         0.0600 
    233 H233       -4.6163  -24.3659  -54.3210 H         1 UNK         0.0600 
    234 H234       -4.3103  -25.1097  -55.8828 H         1 UNK         0.0600 
    235 H235       -5.9765  -20.9837  -55.5155 H         1 UNK         0.3000 
    236 H236       -4.9553  -19.0640  -55.6378 H         1 UNK         0.0600 
    237 H237       -3.5271  -18.5300  -57.5989 H         1 UNK         0.0600 
    238 H238       -3.3844  -20.2367  -57.9926 H         1 UNK         0.0600 
    239 H239       -4.9526  -19.4376  -58.0784 H         1 UNK         0.0600 
    240 H240       -2.4184  -21.5052  -56.0479 H         1 UNK         0.3000 
    241 H241       -1.0695  -20.8027  -53.6380 H         1 UNK         0.0600 
    242 H242       -0.8315  -24.3730  -55.3186 H         1 UNK         0.3800 
    243 H243       -2.0107  -23.2010  -55.8300 H         1 UNK         0.3800 
    244 H244        0.7148  -20.3927  -56.0736 H         1 UNK         0.0800 
    245 H245       -0.2185  -19.0610  -55.4723 H         1 UNK         0.0800 
    246 H246       -0.2357  -18.9701  -52.3693 H         1 UNK         0.0800 
    247 H247        0.1803  -17.6688  -53.4593 H         1 UNK         0.0800 
@<TRIPOS>BOND
     1    1    2 1    
     2    1  127 1    
     3    1  128 1    
     4    1  129 1    
     5    2    3 2    
     6    2    4 am   BACKBONE|DICT|INTERRES
     7    4    5 1    
     8    4  130 1    
     9    5    6 1    
    10    5   65 1    
    11    5  131 1    
    12    6    7 1    
    13    6  132 1    
    14    6  133 1    
    15    7    8 1    
    16    8    9 1    
    17    8  134 1    
    18    8  135 1    
    19    9   10 ar   
    20    9   14 ar   
    21   10   11 ar   
    22   10  136 1    
    23   11   12 ar   
    24   11  126 1    
    25   12   13 ar   
    26   12  137 1    
    27   13   14 ar   
    28   13   15 1    
    29   14  138 1    
    30   15   16 1    
    31   15  139 1    
    32   15  140 1    
    33   16   17 1    
    34   17   18 1    
    35   17  141 1    
    36   17  142 1    
    37   18   19 1    
    38   18   67 1    
    39   18  143 1    
    40   19   20 am   BACKBONE|DICT|INTERRES
    41   19  144 1    
    42   20   21 2    
    43   20   22 1    
    44   22   23 1    
    45   22   24 1    
    46   22  145 1    
    47   23  146 1    
    48   23  147 1    
    49   23  148 1    
    50   24   25 am   BACKBONE|DICT|INTERRES
    51   24  149 1    
    52   25   26 2    
    53   25   27 1    
    54   27   28 1    
    55   27   29 1    
    56   27  150 1    
    57   28  151 1    
    58   28  152 1    
    59   28  153 1    
    60   29   30 am   BACKBONE|DICT|INTERRES
    61   29  154 1    
    62   30   31 2    
    63   30   32 1    
    64   32   33 1    
    65   32   34 1    
    66   32  155 1    
    67   33  156 1    
    68   33  157 1    
    69   33  158 1    
    70   34   35 am   BACKBONE|DICT|INTERRES
    71   34  159 1    
    72   35   36 2    
    73   35   37 1    
    74   37   38 1    
    75   37   39 1    
    76   37  160 1    
    77   38  161 1    
    78   38  162 1    
    79   38  163 1    
    80   39   40 am   BACKBONE|DICT|INTERRES
    81   39  164 1    
    82   40   41 2    
    83   40   42 1    
    84   42   43 1    
    85   42   44 1    
    86   42  165 1    
    87   43  166 1    
    88   43  167 1    
    89   43  168 1    
    90   44   45 am   BACKBONE|DICT|INTERRES
    91   44  169 1    
    92   45   46 2    
    93   45   47 1    
    94   47   48 1    
    95   47   49 1    
    96   47  170 1    
    97   48  171 1    
    98   48  172 1    
    99   48  173 1    
   100   49   50 am   BACKBONE|DICT|INTERRES
   101   49  174 1    
   102   50   51 2    
   103   50   52 1    
   104   52   53 1    
   105   52   54 1    
   106   52  175 1    
   107   53  176 1    
   108   53  177 1    
   109   53  178 1    
   110   54   55 am   BACKBONE|DICT|INTERRES
   111   54  179 1    
   112   55   56 2    
   113   55   57 1    
   114   57   58 1    
   115   57   59 1    
   116   57  180 1    
   117   58  181 1    
   118   58  182 1    
   119   58  183 1    
   120   59   60 am   BACKBONE|DICT|INTERRES
   121   59  184 1    
   122   60   61 2    
   123   60   62 1    
   124   62   63 1    
   125   62   64 1    
   126   62  185 1    
   127   63  186 1    
   128   63  187 1    
   129   63  188 1    
   130   64   65 am   BACKBONE|DICT|INTERRES
   131   64  189 1    
   132   65   66 2    
   133   67   68 2    
   134   67   69 am   BACKBONE|DICT|INTERRES
   135   69   70 1    
   136   69  190 1    
   137   70   71 1    
   138   70   72 1    
   139   70  191 1    
   140   71  192 1    
   141   71  193 1    
   142   71  194 1    
   143   72   73 2    
   144   72   74 am   BACKBONE|DICT|INTERRES
   145   74   75 1    
   146   74  195 1    
   147   75   76 1    
   148   75   77 1    
   149   75  196 1    
   150   76  197 1    
   151   76  198 1    
   152   76  199 1    
   153   77   78 2    
   154   77   79 am   BACKBONE|DICT|INTERRES
   155   79   80 1    
   156   79  200 1    
   157   80   81 1    
   158   80   82 1    
   159   80  201 1    
   160   81  202 1    
   161   81  203 1    
   162   81  204 1    
   163   82   83 2    
   164   82   84 am   BACKBONE|DICT|INTERRES
   165   84   85 1    
   166   84  205 1    
   167   85   86 1    
   168   85   87 1    
   169   85  206 1    
   170   86  207 1    
   171   86  208 1    
   172   86  209 1    
   173   87   88 2    
   174   87   89 am   BACKBONE|DICT|INTERRES
   175   89   90 1    
   176   89  210 1    
   177   90   91 1    
   178   90   92 1    
   179   90  211 1    
   180   91  212 1    
   181   91  213 1    
   182   91  214 1    
   183   92   93 2    
   184   92   94 am   BACKBONE|DICT|INTERRES
   185   94   95 1    
   186   94  215 1    
   187   95   96 1    
   188   95   97 1    
   189   95  216 1    
   190   96  217 1    
   191   96  218 1    
   192   96  219 1    
   193   97   98 2    
   194   97   99 am   BACKBONE|DICT|INTERRES
   195   99  100 1    
   196   99  220 1    
   197  100  101 1    
   198  100  102 1    
   199  100  221 1    
   200  101  222 1    
   201  101  223 1    
   202  101  224 1    
   203  102  103 2    
   204  102  104 am   BACKBONE|DICT|INTERRES
   205  104  105 1    
   206  104  225 1    
   207  105  106 1    
   208  105  107 1    
   209  105  226 1    
   210  106  227 1    
   211  106  228 1    
   212  106  229 1    
   213  107  108 2    
   214  107  109 am   BACKBONE|DICT|INTERRES
   215  109  110 1    
   216  109  230 1    
   217  110  111 1    
   218  110  112 1    
   219  110  231 1    
   220  111  232 1    
   221  111  233 1    
   222  111  234 1    
   223  112  113 2    
   224  112  114 am   BACKBONE|DICT|INTERRES
   225  114  115 1    
   226  114  235 1    
   227  115  116 1    
   228  115  117 1    
   229  115  236 1    
   230  116  237 1    
   231  116  238 1    
   232  116  239 1    
   233  117  118 2    
   234  117  119 am   BACKBONE|DICT|INTERRES
   235  119  120 1    
   236  119  240 1    
   237  120  121 1    
   238  120  124 1    
   239  120  241 1    
   240  121  122 am   BACKBONE|DICT|INTERRES
   241  121  123 2    
   242  122  242 1    
   243  122  243 1    
   244  124  125 1    
   245  124  244 1    
   246  124  245 1    
   247  125  126 1    
   248  126  246 1    
   249  126  247 1    
@<TRIPOS>SUBSTRUCTURE
     1 UNK         1 GROUP             0       ****    0 ROOT    
