@<TRIPOS>MOLECULE
3R540
247   249    1
SMALL
USER_CHARGES


@<TRIPOS>ATOM
      1 CA         -1.9533  -17.8589  -48.7425 C.3       0 UNK        -0.1800 
      2 C          -2.1890  -16.3716  -48.9575 C.2       0 UNK         0.5000 
      3 O          -3.3317  -15.9499  -49.1317 O.2       0 UNK        -0.5000 
      4 N          -1.1100  -15.5814  -48.9581 N.am      1 UNK        -0.5000 
      5 CA         -1.1138  -14.1246  -49.1086 C.3       1 UNK         0.1400 
      6 C6          0.3124  -13.5487  -49.3326 C.3       23 UNK        -0.0398 
      7 S7          1.5986  -14.2203  -48.2159 S.3       23 UNK        -0.2404 
      8 C8          2.6902  -15.1282  -49.3636 C.3       23 UNK        -0.0205 
      9 C9          2.0617  -16.4098  -49.8987 C.ar      23 UNK        -0.0193 
     10 C10         1.2980  -16.3808  -51.0698 C.ar      23 UNK        -0.1150 
     11 C11         0.7109  -17.5451  -51.5679 C.ar      23 UNK        -0.0193 
     12 C12         0.9380  -18.7592  -50.9193 C.ar      23 UNK        -0.1150 
     13 C13         1.7203  -18.8119  -49.7617 C.ar      23 UNK        -0.0193 
     14 C14         2.2659  -17.6308  -49.2447 C.ar      23 UNK        -0.1150 
     15 C15         1.9767  -20.1529  -49.0911 C.3       23 UNK        -0.0205 
     16 S16         0.4540  -20.8153  -48.3593 S.3       23 UNK        -0.2404 
     17 C17         0.9123  -22.5528  -48.0608 C.3       23 UNK        -0.0398 
     18 CA          0.0569  -23.2896  -46.9986 C.3       11 UNK         0.1400 
     19 N           0.3686  -22.9003  -45.6204 N.am      11 UNK        -0.5000 
     20 C           0.0182  -23.6382  -44.5553 C.2       10 UNK         0.5000 
     21 O          -0.6094  -24.6944  -44.6375 O.2       10 UNK        -0.5000 
     22 CA          0.3981  -23.1059  -43.1643 C.3       10 UNK         0.1400 
     23 CB          1.8952  -23.3119  -42.8906 C.3       10 UNK        -0.1800 
     24 N           0.0407  -21.7019  -42.9729 N.am      10 UNK        -0.5000 
     25 C          -1.2128  -21.2257  -43.0022 C.2       9 UNK         0.5000 
     26 O          -2.2090  -21.9246  -43.1884 O.2       9 UNK        -0.5000 
     27 CA         -1.3778  -19.7045  -42.8399 C.3       9 UNK         0.1400 
     28 CB         -1.2302  -19.2844  -41.3698 C.3       9 UNK        -0.1800 
     29 N          -0.4250  -18.9583  -43.6571 N.am      9 UNK        -0.5000 
     30 C          -0.3811  -18.9928  -44.9953 C.2       8 UNK         0.5000 
     31 O          -1.1869  -19.6091  -45.6903 O.2       8 UNK        -0.5000 
     32 CA          0.7910  -18.2497  -45.6555 C.3       8 UNK         0.1400 
     33 CB          0.5200  -16.7399  -45.7189 C.3       8 UNK        -0.1800 
     34 N           2.0555  -18.4985  -44.9616 N.am      8 UNK        -0.5000 
     35 C           2.6829  -19.6833  -44.9153 C.2       7 UNK         0.5000 
     36 O           2.2760  -20.7020  -45.4720 O.2       7 UNK        -0.5000 
     37 CA          3.9716  -19.7477  -44.0758 C.3       7 UNK         0.1400 
     38 CB          5.1723  -19.2517  -44.8952 C.3       7 UNK        -0.1800 
     39 N           3.8766  -18.9752  -42.8365 N.am      7 UNK        -0.5000 
     40 C           3.0685  -19.2826  -41.8116 C.2       6 UNK         0.5000 
     41 O           2.3439  -20.2766  -41.7841 O.2       6 UNK        -0.5000 
     42 CA          3.0160  -18.2702  -40.6506 C.3       6 UNK         0.1400 
     43 CB          4.1711  -18.5104  -39.6673 C.3       6 UNK        -0.1800 
     44 N           3.0369  -16.8734  -41.1007 N.am      6 UNK        -0.5000 
     45 C           2.1210  -16.3328  -41.9150 C.2       5 UNK         0.5000 
     46 O           1.1720  -16.9688  -42.3787 O.2       5 UNK        -0.5000 
     47 CA          2.3366  -14.8630  -42.3257 C.3       5 UNK         0.1400 
     48 CB          3.4511  -14.7624  -43.3802 C.3       5 UNK        -0.1800 
     49 N           1.1231  -14.2698  -42.8864 N.am      5 UNK        -0.5000 
     50 C          -0.0087  -14.0378  -42.2088 C.2       4 UNK         0.5000 
     51 O          -0.1186  -14.1820  -40.9891 O.2       4 UNK        -0.5000 
     52 CA         -1.2109  -13.5695  -43.0552 C.3       4 UNK         0.1400 
     53 CB         -2.3741  -13.0173  -42.2052 C.3       4 UNK        -0.1800 
     54 N          -0.8440  -12.6161  -44.1083 N.am      4 UNK        -0.5000 
     55 C          -0.2805  -11.4060  -43.9453 C.2       3 UNK         0.5000 
     56 O           0.0756  -10.9501  -42.8581 O.2       3 UNK        -0.5000 
     57 CA         -0.0957  -10.5435  -45.2120 C.3       3 UNK         0.1400 
     58 CB          1.3359  -10.6891  -45.7512 C.3       3 UNK        -0.1800 
     59 N          -1.0371  -10.8754  -46.2823 N.am      3 UNK        -0.5000 
     60 C          -2.3713  -10.7605  -46.2126 C.2       2 UNK         0.5000 
     61 O          -2.9589  -10.2139  -45.2785 O.2       2 UNK        -0.5000 
     62 CA         -3.1942  -11.3832  -47.3608 C.3       2 UNK         0.1400 
     63 CB         -3.8775  -10.2859  -48.1924 C.3       2 UNK        -0.1800 
     64 N          -2.4343  -12.2524  -48.2678 N.am      2 UNK        -0.5000 
     65 C          -1.8322  -13.4069  -47.9451 C.2       1 UNK         0.5000 
     66 O          -1.7865  -13.8609  -46.7977 O.2       1 UNK        -0.5000 
     67 C          -1.4587  -23.2503  -47.2913 C.2       11 UNK         0.5000 
     68 O          -1.9467  -24.1106  -48.0249 O.2       11 UNK        -0.5000 
     69 N          -2.1849  -22.2948  -46.6915 N.am      12 UNK        -0.5000 
     70 CA         -3.6428  -22.2093  -46.7633 C.3       12 UNK         0.1400 
     71 CB         -4.1215  -20.8662  -46.1944 C.3       12 UNK        -0.1800 
     72 C          -4.3285  -23.3865  -46.0488 C.2       12 UNK         0.5000 
     73 O          -5.2322  -23.9937  -46.6231 O.2       12 UNK        -0.5000 
     74 N          -3.8614  -23.7174  -44.8356 N.am      13 UNK        -0.5000 
     75 CA         -4.3487  -24.8435  -44.0336 C.3       13 UNK         0.1400 
     76 CB         -3.7223  -24.7866  -42.6323 C.3       13 UNK        -0.1800 
     77 C          -4.0861  -26.2118  -44.6902 C.2       13 UNK         0.5000 
     78 O          -4.9452  -27.0920  -44.6281 O.2       13 UNK        -0.5000 
     79 N          -2.9195  -26.3544  -45.3327 N.am      14 UNK        -0.5000 
     80 CA         -2.5247  -27.5394  -46.0965 C.3       14 UNK         0.1400 
     81 CB         -1.0007  -27.5069  -46.2956 C.3       14 UNK        -0.1800 
     82 C          -3.2304  -27.6610  -47.4631 C.2       14 UNK         0.5000 
     83 O          -3.1535  -28.7248  -48.0786 O.2       14 UNK        -0.5000 
     84 N          -3.8608  -26.5706  -47.9289 N.am      15 UNK        -0.5000 
     85 CA         -4.4357  -26.3726  -49.2663 C.3       15 UNK         0.1400 
     86 CB         -5.6274  -27.3202  -49.5123 C.3       15 UNK        -0.1800 
     87 C          -3.3716  -26.4300  -50.3860 C.2       15 UNK         0.5000 
     88 O          -3.6760  -26.8003  -51.5204 O.2       15 UNK        -0.5000 
     89 N          -2.1392  -26.0429  -50.0379 N.am      16 UNK        -0.5000 
     90 CA         -0.9776  -25.9626  -50.9191 C.3       16 UNK         0.1400 
     91 CB          0.2757  -26.3087  -50.0995 C.3       16 UNK        -0.1800 
     92 C          -0.8349  -24.5695  -51.5594 C.2       16 UNK         0.5000 
     93 O          -0.1055  -24.4381  -52.5421 O.2       16 UNK        -0.5000 
     94 N          -1.5230  -23.5654  -50.9921 N.am      17 UNK        -0.5000 
     95 CA         -1.5904  -22.1798  -51.4615 C.3       17 UNK         0.1400 
     96 CB         -2.5195  -21.3559  -50.5519 C.3       17 UNK        -0.1800 
     97 C          -1.9359  -22.0068  -52.9616 C.2       17 UNK         0.5000 
     98 O          -1.1824  -21.3250  -53.6522 O.2       17 UNK        -0.5000 
     99 N          -3.0016  -22.6130  -53.5143 N.am      18 UNK        -0.5000 
    100 CA        -4.1434  -23.2730  -52.8652 C.3       18 UNK         0.1400 
    101 CB        -4.6918  -24.3426  -53.8214 C.3       18 UNK        -0.1800 
    102 C         -5.2556  -22.2774  -52.4734 C.2       18 UNK         0.5000 
    103 O         -6.2041  -22.6633  -51.7906 O.2       18 UNK        -0.5000 
    104 N         -5.1042  -21.0163  -52.8869 N.am      19 UNK        -0.5000 
    105 CA        -5.9422  -19.8737  -52.5532 C.3       19 UNK         0.1400 
    106 CB        -7.1283  -19.8023  -53.5323 C.3       19 UNK        -0.1800 
    107 C         -5.0659  -18.6141  -52.6363 C.2       19 UNK         0.5000 
    108 O         -3.9211  -18.6937  -53.0930 O.2       19 UNK        -0.5000 
    109 N         -5.6247  -17.4631  -52.2402 N.am      20 UNK        -0.5000 
    110 CA        -4.9605  -16.1521  -52.2655 C.3       20 UNK         0.1400 
    111 CB        -5.8631  -15.1183  -51.5750 C.3       20 UNK        -0.1800 
    112 C         -4.5557  -15.6662  -53.6741 C.2       20 UNK         0.5000 
    113 O         -3.6671  -14.8218  -53.7903 O.2       20 UNK        -0.5000 
    114 N         -5.1845  -16.2308  -54.7159 N.am      21 UNK        -0.5000 
    115 CA        -4.8158  -16.0602  -56.1238 C.3       21 UNK         0.1400 
    116 CB        -5.9168  -16.6767  -57.0005 C.3       21 UNK        -0.1800 
    117 C         -3.4403  -16.6683  -56.4776 C.2       21 UNK         0.5000 
    118 O         -2.8282  -16.2383  -57.4563 O.2       21 UNK        -0.5000 
    119 N         -2.9705  -17.6240  -55.6631 N.am      22 UNK        -0.5000 
    120 CA        -1.6642  -18.2892  -55.7496 C.3       22 UNK         0.1400 
    121 C         -1.4916  -19.2264  -56.9833 C.2       22 UNK         0.5000 
    122 N         -0.2939  -19.7464  -57.2167 N.am      22 UNK        -0.7600 
    123 O         -2.4351  -19.5242  -57.7132 O.2       22 UNK        -0.5000 
    124 C124       -0.4905  -17.2817  -55.5471 C.3       23 UNK        -0.0398 
    125 S125        0.7281  -17.8530  -54.3190 S.3       23 UNK        -0.2404 
    126 C126       -0.1874  -17.4829  -52.7906 C.3       23 UNK        -0.0205 
    127 H127       -2.5586  -18.2218  -47.9128 H         1 UNK         0.0600 
    128 H128       -2.2260  -18.4145  -49.6387 H         1 UNK         0.0600 
    129 H129       -0.9094  -18.0724  -48.5146 H         1 UNK         0.0600 
    130 H130       -0.1972  -15.9857  -48.8016 H         1 UNK         0.3000 
    131 H131       -1.6916  -13.9148  -50.0116 H         1 UNK         0.0600 
    132 H132        0.3167  -12.4617  -49.2343 H         1 UNK         0.0800 
    133 H133        0.6100  -13.7196  -50.3650 H         1 UNK         0.0800 
    134 H134        3.6164  -15.3690  -48.8396 H         1 UNK         0.0800 
    135 H135        2.9767  -14.4747  -50.1891 H         1 UNK         0.0800 
    136 H136        1.1473  -15.4506  -51.5965 H         1 UNK         0.1150 
    137 H137        0.5001  -19.6647  -51.3138 H         1 UNK         0.1150 
    138 H138        2.8637  -17.6634  -48.3445 H         1 UNK         0.1150 
    139 H139        2.3614  -20.8541  -49.8330 H         1 UNK         0.0800 
    140 H140        2.7383  -20.0649  -48.3147 H         1 UNK         0.0800 
    141 H141        0.8442  -23.0770  -49.0152 H         1 UNK         0.0800 
    142 H142        1.9637  -22.5952  -47.7730 H         1 UNK         0.0800 
    143 H143        0.3410  -24.3411  -47.0785 H         1 UNK         0.0600 
    144 H144        0.8986  -22.0409  -45.4954 H         1 UNK         0.3000 
    145 H145       -0.1592  -23.6884  -42.4278 H         1 UNK         0.0600 
    146 H146        2.1488  -23.0398  -41.8660 H         1 UNK         0.0600 
    147 H147        2.1778  -24.3563  -43.0279 H         1 UNK         0.0600 
    148 H148        2.5141  -22.7133  -43.5590 H         1 UNK         0.0600 
    149 H149        0.8053  -21.0635  -42.7767 H         1 UNK         0.3000 
    150 H150       -2.3836  -19.4396  -43.1723 H         1 UNK         0.0600 
    151 H151       -1.9483  -19.8102  -40.7395 H         1 UNK         0.0600 
    152 H152       -1.4076  -18.2157  -41.2466 H         1 UNK         0.0600 
    153 H153       -0.2330  -19.5019  -40.9860 H         1 UNK         0.0600 
    154 H154        0.2519  -18.3805  -43.1637 H         1 UNK         0.3000 
    155 H155        0.8956  -18.6090  -46.6780 H         1 UNK         0.0600 
    156 H156        1.3741  -16.2072  -46.1333 H         1 UNK         0.0600 
    157 H157        0.3069  -16.3191  -44.7377 H         1 UNK         0.0600 
    158 H158       -0.3413  -16.5260  -46.3515 H         1 UNK         0.0600 
    159 H159        2.4272  -17.7364  -44.4166 H         1 UNK         0.3000 
    160 H160        4.1466  -20.7929  -43.8124 H         1 UNK         0.0600 
    161 H161        5.0699  -18.2005  -45.1678 H         1 UNK         0.0600 
    162 H162        5.2751  -19.8218  -45.8196 H         1 UNK         0.0600 
    163 H163        6.1031  -19.3658  -44.3393 H         1 UNK         0.0600 
    164 H164        4.4368  -18.1383  -42.7738 H         1 UNK         0.3000 
    165 H165        2.0763  -18.4317  -40.1182 H         1 UNK         0.0600 
    166 H166        5.1413  -18.3285  -40.1311 H         1 UNK         0.0600 
    167 H167        4.0882  -17.8614  -38.7953 H         1 UNK         0.0600 
    168 H168        4.1676  -19.5397  -39.3057 H         1 UNK         0.0600 
    169 H169        3.7963  -16.3003  -40.7618 H         1 UNK         0.3000 
    170 H170        2.6250  -14.2923  -41.4408 H         1 UNK         0.0600 
    171 H171        4.3943  -15.1559  -42.9994 H         1 UNK         0.0600 
    172 H172        3.2033  -15.3200  -44.2846 H         1 UNK         0.0600 
    173 H173        3.6288  -13.7254  -43.6666 H         1 UNK         0.0600 
    174 H174        1.1145  -14.1218  -43.8840 H         1 UNK         0.3000 
    175 H175       -1.5775  -14.4590  -43.5700 H         1 UNK         0.0600 
    176 H176       -3.2124  -12.7167  -42.8339 H         1 UNK         0.0600 
    177 H177       -2.7443  -13.7724  -41.5108 H         1 UNK         0.0600 
    178 H178       -2.0702  -12.1516  -41.6160 H         1 UNK         0.0600 
    179 H179       -1.0909  -12.9022  -45.0504 H         1 UNK         0.3000 
    180 H180       -0.2577   -9.5010  -44.9307 H         1 UNK         0.0600 
    181 H181        1.5061  -10.0318  -46.6041 H         1 UNK         0.0600 
    182 H182        2.0697  -10.4258  -44.9881 H         1 UNK         0.0600 
    183 H183        1.5450  -11.7119  -46.0679 H         1 UNK         0.0600 
    184 H184       -0.6490  -11.3294  -47.0945 H         1 UNK         0.3000 
    185 H185       -3.9715  -11.9936  -46.8967 H         1 UNK         0.0600 
    186 H186       -4.5360  -10.7146  -48.9482 H         1 UNK         0.0600 
    187 H187       -4.4897   -9.6391  -47.5624 H         1 UNK         0.0600 
    188 H188       -3.1478   -9.6537  -48.6999 H         1 UNK         0.0600 
    189 H189       -2.4059  -11.9480  -49.2304 H         1 UNK         0.3000 
    190 H190       -1.7108  -21.5768  -46.1529 H         1 UNK         0.3000 
    191 H191       -3.9300  -22.2481  -47.8161 H         1 UNK         0.0600 
    192 H192       -5.2088  -20.7899  -46.2312 H         1 UNK         0.0600 
    193 H193       -3.7182  -20.0329  -46.7688 H         1 UNK         0.0600 
    194 H194       -3.8158  -20.7349  -45.1560 H         1 UNK         0.0600 
    195 H195       -3.1331  -23.1462  -44.4154 H         1 UNK         0.3000 
    196 H196       -5.4296  -24.7315  -43.9265 H         1 UNK         0.0600 
    197 H197       -4.0744  -25.6112  -42.0114 H         1 UNK         0.0600 
    198 H198       -3.9848  -23.8601  -42.1214 H         1 UNK         0.0600 
    199 H199       -2.6342  -24.8474  -42.6754 H         1 UNK         0.0600 
    200 H200       -2.2334  -25.6075  -45.2670 H         1 UNK         0.3000 
    201 H201       -2.7762  -28.4287  -45.5151 H         1 UNK         0.0600 
    202 H202       -0.4782  -27.4786  -45.3392 H         1 UNK         0.0600 
    203 H203       -0.6910  -26.6348  -46.8724 H         1 UNK         0.0600 
    204 H204       -0.6536  -28.3930  -46.8286 H         1 UNK         0.0600 
    205 H205       -3.8682  -25.7506  -47.3359 H         1 UNK         0.3000 
    206 H206       -4.8227  -25.3525  -49.2751 H         1 UNK         0.0600 
    207 H207       -6.3535  -27.2573  -48.7018 H         1 UNK         0.0600 
    208 H208       -6.1481  -27.0596  -50.4344 H         1 UNK         0.0600 
    209 H209       -5.3103  -28.3595  -49.6005 H         1 UNK         0.0600 
    210 H210       -2.0143  -25.6703  -49.1010 H         1 UNK         0.3000 
    211 H211       -1.0767  -26.6932  -51.7246 H         1 UNK         0.0600 
    212 H212        0.4262  -25.6086  -49.2777 H         1 UNK         0.0600 
    213 H213        1.1708  -26.2837  -50.7222 H         1 UNK         0.0600 
    214 H214        0.2030  -27.3104  -49.6751 H         1 UNK         0.0600 
    215 H215       -2.0345  -23.7765  -50.1452 H         1 UNK         0.3000 
    216 H216       -0.5849  -21.7745  -51.3357 H         1 UNK         0.0600 
    217 H217       -2.7248  -20.3746  -50.9815 H         1 UNK         0.0600 
    218 H218       -2.0706  -21.1883  -49.5755 H         1 UNK         0.0600 
    219 H219       -3.4729  -21.8498  -50.3757 H         1 UNK         0.0600 
    220 H220       -3.1041  -22.5125  -54.5131 H         1 UNK         0.3000 
    221 H221       -3.8373  -23.7812  -51.9542 H         1 UNK         0.0600 
    222 H222       -5.0505  -23.9065  -54.7546 H         1 UNK         0.0600 
    223 H223       -3.9262  -25.0796  -54.0651 H         1 UNK         0.0600 
    224 H224       -5.5239  -24.8835  -53.3686 H         1 UNK         0.0600 
    225 H225       -4.2605  -20.7624  -53.3863 H         1 UNK         0.3000 
    226 H226       -6.3064  -19.9714  -51.5285 H         1 UNK         0.0600 
    227 H227       -7.7905  -18.9691  -53.2955 H         1 UNK         0.0600 
    228 H228       -6.7915  -19.6751  -54.5620 H         1 UNK         0.0600 
    229 H229       -7.7293  -20.7108  -53.4893 H         1 UNK         0.0600 
    230 H230       -6.5697  -17.4751  -51.8843 H         1 UNK         0.3000 
    231 H231       -4.0383  -16.2413  -51.6889 H         1 UNK         0.0600 
    232 H232       -5.3865  -14.1373  -51.5507 H         1 UNK         0.0600 
    233 H233       -6.0659  -15.4017  -50.5419 H         1 UNK         0.0600 
    234 H234       -6.8179  -15.0087  -52.0904 H         1 UNK         0.0600 
    235 H235       -5.9147  -16.8987  -54.5203 H         1 UNK         0.3000 
    236 H236       -4.7664  -14.9898  -56.3337 H         1 UNK         0.0600 
    237 H237       -6.0218  -17.7474  -56.8198 H         1 UNK         0.0600 
    238 H238       -6.8821  -16.2065  -56.8122 H         1 UNK         0.0600 
    239 H239       -5.6927  -16.5435  -58.0597 H         1 UNK         0.0600 
    240 H240       -3.5366  -17.9124  -54.8727 H         1 UNK         0.3000 
    241 H241       -1.6866  -18.9746  -54.9028 H         1 UNK         0.0600 
    242 H242       -0.1704  -20.3673  -58.0012 H         1 UNK         0.3800 
    243 H243        0.4862  -19.5516  -56.6074 H         1 UNK         0.3800 
    244 H244       -0.8578  -16.3116  -55.2088 H         1 UNK         0.0800 
    245 H245        0.0224  -17.0682  -56.4865 H         1 UNK         0.0800 
    246 H246       -0.6438  -16.4940  -52.8599 H         1 UNK         0.0800 
    247 H247       -1.0116  -18.1901  -52.6802 H         1 UNK         0.0800 
@<TRIPOS>BOND
     1    1    2 1    
     2    1  127 1    
     3    1  128 1    
     4    1  129 1    
     5    2    3 2    
     6    2    4 am   BACKBONE|DICT|INTERRES
     7    4    5 1    
     8    4  130 1    
     9    5    6 1    
    10    5   65 1    
    11    5  131 1    
    12    6    7 1    
    13    6  132 1    
    14    6  133 1    
    15    7    8 1    
    16    8    9 1    
    17    8  134 1    
    18    8  135 1    
    19    9   10 ar   
    20    9   14 ar   
    21   10   11 ar   
    22   10  136 1    
    23   11   12 ar   
    24   11  126 1    
    25   12   13 ar   
    26   12  137 1    
    27   13   14 ar   
    28   13   15 1    
    29   14  138 1    
    30   15   16 1    
    31   15  139 1    
    32   15  140 1    
    33   16   17 1    
    34   17   18 1    
    35   17  141 1    
    36   17  142 1    
    37   18   19 1    
    38   18   67 1    
    39   18  143 1    
    40   19   20 am   BACKBONE|DICT|INTERRES
    41   19  144 1    
    42   20   21 2    
    43   20   22 1    
    44   22   23 1    
    45   22   24 1    
    46   22  145 1    
    47   23  146 1    
    48   23  147 1    
    49   23  148 1    
    50   24   25 am   BACKBONE|DICT|INTERRES
    51   24  149 1    
    52   25   26 2    
    53   25   27 1    
    54   27   28 1    
    55   27   29 1    
    56   27  150 1    
    57   28  151 1    
    58   28  152 1    
    59   28  153 1    
    60   29   30 am   BACKBONE|DICT|INTERRES
    61   29  154 1    
    62   30   31 2    
    63   30   32 1    
    64   32   33 1    
    65   32   34 1    
    66   32  155 1    
    67   33  156 1    
    68   33  157 1    
    69   33  158 1    
    70   34   35 am   BACKBONE|DICT|INTERRES
    71   34  159 1    
    72   35   36 2    
    73   35   37 1    
    74   37   38 1    
    75   37   39 1    
    76   37  160 1    
    77   38  161 1    
    78   38  162 1    
    79   38  163 1    
    80   39   40 am   BACKBONE|DICT|INTERRES
    81   39  164 1    
    82   40   41 2    
    83   40   42 1    
    84   42   43 1    
    85   42   44 1    
    86   42  165 1    
    87   43  166 1    
    88   43  167 1    
    89   43  168 1    
    90   44   45 am   BACKBONE|DICT|INTERRES
    91   44  169 1    
    92   45   46 2    
    93   45   47 1    
    94   47   48 1    
    95   47   49 1    
    96   47  170 1    
    97   48  171 1    
    98   48  172 1    
    99   48  173 1    
   100   49   50 am   BACKBONE|DICT|INTERRES
   101   49  174 1    
   102   50   51 2    
   103   50   52 1    
   104   52   53 1    
   105   52   54 1    
   106   52  175 1    
   107   53  176 1    
   108   53  177 1    
   109   53  178 1    
   110   54   55 am   BACKBONE|DICT|INTERRES
   111   54  179 1    
   112   55   56 2    
   113   55   57 1    
   114   57   58 1    
   115   57   59 1    
   116   57  180 1    
   117   58  181 1    
   118   58  182 1    
   119   58  183 1    
   120   59   60 am   BACKBONE|DICT|INTERRES
   121   59  184 1    
   122   60   61 2    
   123   60   62 1    
   124   62   63 1    
   125   62   64 1    
   126   62  185 1    
   127   63  186 1    
   128   63  187 1    
   129   63  188 1    
   130   64   65 am   BACKBONE|DICT|INTERRES
   131   64  189 1    
   132   65   66 2    
   133   67   68 2    
   134   67   69 am   BACKBONE|DICT|INTERRES
   135   69   70 1    
   136   69  190 1    
   137   70   71 1    
   138   70   72 1    
   139   70  191 1    
   140   71  192 1    
   141   71  193 1    
   142   71  194 1    
   143   72   73 2    
   144   72   74 am   BACKBONE|DICT|INTERRES
   145   74   75 1    
   146   74  195 1    
   147   75   76 1    
   148   75   77 1    
   149   75  196 1    
   150   76  197 1    
   151   76  198 1    
   152   76  199 1    
   153   77   78 2    
   154   77   79 am   BACKBONE|DICT|INTERRES
   155   79   80 1    
   156   79  200 1    
   157   80   81 1    
   158   80   82 1    
   159   80  201 1    
   160   81  202 1    
   161   81  203 1    
   162   81  204 1    
   163   82   83 2    
   164   82   84 am   BACKBONE|DICT|INTERRES
   165   84   85 1    
   166   84  205 1    
   167   85   86 1    
   168   85   87 1    
   169   85  206 1    
   170   86  207 1    
   171   86  208 1    
   172   86  209 1    
   173   87   88 2    
   174   87   89 am   BACKBONE|DICT|INTERRES
   175   89   90 1    
   176   89  210 1    
   177   90   91 1    
   178   90   92 1    
   179   90  211 1    
   180   91  212 1    
   181   91  213 1    
   182   91  214 1    
   183   92   93 2    
   184   92   94 am   BACKBONE|DICT|INTERRES
   185   94   95 1    
   186   94  215 1    
   187   95   96 1    
   188   95   97 1    
   189   95  216 1    
   190   96  217 1    
   191   96  218 1    
   192   96  219 1    
   193   97   98 2    
   194   97   99 am   BACKBONE|DICT|INTERRES
   195   99  100 1    
   196   99  220 1    
   197  100  101 1    
   198  100  102 1    
   199  100  221 1    
   200  101  222 1    
   201  101  223 1    
   202  101  224 1    
   203  102  103 2    
   204  102  104 am   BACKBONE|DICT|INTERRES
   205  104  105 1    
   206  104  225 1    
   207  105  106 1    
   208  105  107 1    
   209  105  226 1    
   210  106  227 1    
   211  106  228 1    
   212  106  229 1    
   213  107  108 2    
   214  107  109 am   BACKBONE|DICT|INTERRES
   215  109  110 1    
   216  109  230 1    
   217  110  111 1    
   218  110  112 1    
   219  110  231 1    
   220  111  232 1    
   221  111  233 1    
   222  111  234 1    
   223  112  113 2    
   224  112  114 am   BACKBONE|DICT|INTERRES
   225  114  115 1    
   226  114  235 1    
   227  115  116 1    
   228  115  117 1    
   229  115  236 1    
   230  116  237 1    
   231  116  238 1    
   232  116  239 1    
   233  117  118 2    
   234  117  119 am   BACKBONE|DICT|INTERRES
   235  119  120 1    
   236  119  240 1    
   237  120  121 1    
   238  120  124 1    
   239  120  241 1    
   240  121  122 am   BACKBONE|DICT|INTERRES
   241  121  123 2    
   242  122  242 1    
   243  122  243 1    
   244  124  125 1    
   245  124  244 1    
   246  124  245 1    
   247  125  126 1    
   248  126  246 1    
   249  126  247 1    
@<TRIPOS>SUBSTRUCTURE
     1 UNK         1 GROUP             0       ****    0 ROOT    
