@<TRIPOS>MOLECULE
3R540
247   249    1
SMALL
USER_CHARGES


@<TRIPOS>ATOM
      1 CA          5.1290  -13.8178  -54.4021 C.3       0 UNK        -0.1800 
      2 C           5.4258  -13.0504  -53.1216 C.2       0 UNK         0.5000 
      3 O           5.7779  -11.8723  -53.1792 O.2       0 UNK        -0.5000 
      4 N           5.2827  -13.7135  -51.9672 N.am      1 UNK        -0.5000 
      5 CA          5.5032  -13.1394  -50.6327 C.3       1 UNK         0.1400 
      6 C6          5.8003  -14.2357  -49.5773 C.3       23 UNK        -0.0398 
      7 S7          4.4494  -15.4462  -49.3464 S.3       23 UNK        -0.2404 
      8 C8          5.0976  -16.8849  -50.2511 C.3       23 UNK        -0.0205 
      9 C9          4.0811  -18.0148  -50.2870 C.ar      23 UNK        -0.0193 
     10 C10         2.9160  -17.8825  -51.0478 C.ar      23 UNK        -0.1150 
     11 C11         1.9744  -18.9139  -51.0905 C.ar      23 UNK        -0.0193 
     12 C12         2.2098  -20.0924  -50.3792 C.ar      23 UNK        -0.1150 
     13 C13         3.3760  -20.2391  -49.6227 C.ar      23 UNK        -0.0193 
     14 C14         4.3051  -19.1956  -49.5731 C.ar      23 UNK        -0.1150 
     15 C15         3.6296  -21.5318  -48.8696 C.3       23 UNK        -0.0205 
     16 S16         2.7418  -21.5462  -47.2865 S.3       23 UNK        -0.2404 
     17 C17         2.9356  -23.3021  -46.8153 C.3       23 UNK        -0.0398 
     18 CA          1.8016  -23.8459  -45.9078 C.3       11 UNK         0.1400 
     19 N           1.5995  -23.0273  -44.7148 N.am      11 UNK        -0.5000 
     20 C           2.2120  -23.1840  -43.5366 C.2       10 UNK         0.5000 
     21 O           3.0518  -24.0581  -43.3189 O.2       10 UNK        -0.5000 
     22 CA          1.8201  -22.2117  -42.4013 C.3       10 UNK         0.1400 
     23 CB          2.9258  -21.1668  -42.1896 C.3       10 UNK        -0.1800 
     24 N           0.5486  -21.5184  -42.6310 N.am      10 UNK        -0.5000 
     25 C          -0.6521  -22.1174  -42.6659 C.2       9 UNK         0.5000 
     26 O          -0.8172  -23.3097  -42.4078 O.2       9 UNK        -0.5000 
     27 CA         -1.8681  -21.2721  -43.1016 C.3       9 UNK         0.1400 
     28 CB         -2.6953  -20.8630  -41.8736 C.3       9 UNK        -0.1800 
     29 N          -1.5331  -20.0720  -43.8712 N.am      9 UNK        -0.5000 
     30 C          -0.8489  -20.0362  -45.0240 C.2       8 UNK         0.5000 
     31 O          -0.5049  -21.0464  -45.6341 O.2       8 UNK        -0.5000 
     32 CA         -0.4155  -18.6499  -45.5444 C.3       8 UNK         0.1400 
     33 CB         -1.3197  -18.1781  -46.6927 C.3       8 UNK        -0.1800 
     34 N          -0.3963  -17.6152  -44.5085 N.am      8 UNK        -0.5000 
     35 C           0.3902  -17.5996  -43.4232 C.2       7 UNK         0.5000 
     36 O           1.2005  -18.4859  -43.1528 O.2       7 UNK        -0.5000 
     37 CA          0.1950  -16.4205  -42.4568 C.3       7 UNK         0.1400 
     38 CB          0.9126  -15.1620  -42.9699 C.3       7 UNK        -0.1800 
     39 N          -1.2265  -16.1278  -42.2728 N.am      7 UNK        -0.5000 
     40 C          -2.0053  -16.7009  -41.3458 C.2       6 UNK         0.5000 
     41 O          -1.5895  -17.4961  -40.5029 O.2       6 UNK        -0.5000 
     42 CA         -3.5025  -16.3300  -41.3558 C.3       6 UNK         0.1400 
     43 CB         -3.7702  -15.1597  -40.3973 C.3       6 UNK        -0.1800 
     44 N          -4.0183  -15.9846  -42.6823 N.am      6 UNK        -0.5000 
     45 C          -4.1552  -16.8513  -43.6954 C.2       5 UNK         0.5000 
     46 O          -3.8525  -18.0412  -43.6189 O.2       5 UNK        -0.5000 
     47 CA         -4.6639  -16.2744  -45.0335 C.3       5 UNK         0.1400 
     48 CB         -6.1985  -16.2006  -45.0388 C.3       5 UNK        -0.1800 
     49 N          -4.1283  -14.9494  -45.3780 N.am      5 UNK        -0.5000 
     50 C          -2.8341  -14.6043  -45.3897 C.2       4 UNK         0.5000 
     51 O          -1.9254  -15.3565  -45.0340 O.2       4 UNK        -0.5000 
     52 CA         -2.5007  -13.1622  -45.8107 C.3       4 UNK         0.1400 
     53 CB         -2.8061  -12.1882  -44.6618 C.3       4 UNK        -0.1800 
     54 N          -1.0842  -13.0448  -46.1562 N.am      4 UNK        -0.5000 
     55 C          -0.5430  -13.4905  -47.2955 C.2       3 UNK         0.5000 
     56 O          -1.1973  -13.9060  -48.2550 O.2       3 UNK        -0.5000 
     57 CA          0.9956  -13.5131  -47.3494 C.3       3 UNK         0.1400 
     58 CB          1.5152  -14.9325  -47.0653 C.3       3 UNK        -0.1800 
     59 N           1.5099  -13.0653  -48.6426 N.am      3 UNK        -0.5000 
     60 C           1.3829  -11.8241  -49.1326 C.2       2 UNK         0.5000 
     61 O           0.8616  -10.8964  -48.5100 O.2       2 UNK        -0.5000 
     62 CA          1.9399  -11.5914  -50.5545 C.3       2 UNK         0.1400 
     63 CB          2.1072  -10.0977  -50.9053 C.3       2 UNK        -0.1800 
     64 N           3.1807  -12.3311  -50.8155 N.am      2 UNK        -0.5000 
     65 C           4.3578  -12.2034  -50.1799 C.2       1 UNK         0.5000 
     66 O           4.5659  -11.3996  -49.2699 O.2       1 UNK        -0.5000 
     67 C           0.4385  -24.0341  -46.6040 C.2       11 UNK         0.5000 
     68 O           0.3199  -23.8551  -47.8180 O.2       11 UNK        -0.5000 
     69 N          -0.5762  -24.3763  -45.7914 N.am      12 UNK        -0.5000 
     70 CA         -2.0052  -24.3884  -46.1162 C.3       12 UNK         0.1400 
     71 CB         -2.7908  -24.9974  -44.9458 C.3       12 UNK        -0.1800 
     72 C          -2.3936  -25.0956  -47.4251 C.2       12 UNK         0.5000 
     73 O          -3.2950  -24.6158  -48.1107 O.2       12 UNK        -0.5000 
     74 N          -1.7116  -26.2003  -47.7550 N.am      13 UNK        -0.5000 
     75 CA         -1.9373  -26.9829  -48.9717 C.3       13 UNK         0.1400 
     76 CB         -1.1380  -28.2919  -48.8896 C.3       13 UNK        -0.1800 
     77 C          -1.5922  -26.2149  -50.2619 C.2       13 UNK         0.5000 
     78 O          -2.3465  -26.2902  -51.2321 O.2       13 UNK        -0.5000 
     79 N          -0.4834  -25.4619  -50.2398 N.am      14 UNK        -0.5000 
     80 CA         -0.0431  -24.6057  -51.3458 C.3       14 UNK         0.1400 
     81 CB          1.4346  -24.2414  -51.1459 C.3       14 UNK        -0.1800 
     82 C          -0.8982  -23.3321  -51.4622 C.2       14 UNK         0.5000 
     83 O          -1.0968  -22.8221  -52.5648 O.2       14 UNK        -0.5000 
     84 N          -1.4129  -22.8708  -50.3170 N.am      15 UNK        -0.5000 
     85 CA         -2.3167  -21.7335  -50.1713 C.3       15 UNK         0.1400 
     86 CB         -2.1405  -21.1837  -48.7498 C.3       15 UNK        -0.1800 
     87 C          -3.7970  -22.0697  -50.4563 C.2       15 UNK         0.5000 
     88 O          -4.6460  -21.2022  -50.2454 O.2       15 UNK        -0.5000 
     89 N          -4.0813  -23.3032  -50.9028 N.am      16 UNK        -0.5000 
     90 CA         -5.3948  -23.8534  -51.2526 C.3       16 UNK         0.1400 
     91 CB         -5.9866  -23.1305  -52.4772 C.3       16 UNK        -0.1800 
     92 C          -6.3575  -23.8834  -50.0508 C.2       16 UNK         0.5000 
     93 O          -7.3819  -23.2000  -50.0494 O.2       16 UNK        -0.5000 
     94 N          -5.9773  -24.6698  -49.0360 N.am      17 UNK        -0.5000 
     95 CA         -6.6478  -24.8463  -47.7438 C.3       17 UNK         0.1400 
     96 CB         -8.0600  -25.4455  -47.9141 C.3       17 UNK        -0.1800 
     97 C          -6.6211  -23.5554  -46.9023 C.2       17 UNK         0.5000 
     98 O          -7.6213  -23.1961  -46.2795 O.2       17 UNK        -0.5000 
     99 N          -5.4575  -22.8862  -46.9152 N.am      18 UNK        -0.5000 
    100 CA        -5.1395  -21.6405  -46.2048 C.3       18 UNK         0.1400 
    101 CB        -5.2202  -21.8423  -44.6776 C.3       18 UNK        -0.1800 
    102 C         -5.9556  -20.4159  -46.6736 C.2       18 UNK         0.5000 
    103 O         -6.0574  -19.4368  -45.9363 O.2       18 UNK        -0.5000 
    104 N         -6.5058  -20.4669  -47.8941 N.am      19 UNK        -0.5000 
    105 CA        -7.2604  -19.3699  -48.5050 C.3       19 UNK         0.1400 
    106 CB        -8.0837  -19.9301  -49.6751 C.3       19 UNK        -0.1800 
    107 C         -6.3621  -18.2171  -48.9945 C.2       19 UNK         0.5000 
    108 O         -6.8588  -17.1077  -49.1880 O.2       19 UNK        -0.5000 
    109 N         -5.0753  -18.5225  -49.2212 N.am      20 UNK        -0.5000 
    110 CA        -4.0468  -17.6990  -49.8685 C.3       20 UNK         0.1400 
    111 CB        -3.8397  -16.3476  -49.1537 C.3       20 UNK        -0.1800 
    112 C         -4.2669  -17.5604  -51.3904 C.2       20 UNK         0.5000 
    113 O         -3.6416  -16.7128  -52.0293 O.2       20 UNK        -0.5000 
    114 N         -5.1060  -18.4361  -51.9609 N.am      21 UNK        -0.5000 
    115 CA        -5.3317  -18.5952  -53.3947 C.3       21 UNK         0.1400 
    116 CB        -6.7681  -19.1001  -53.6189 C.3       21 UNK        -0.1800 
    117 C         -4.2602  -19.5511  -53.9469 C.2       21 UNK         0.5000 
    118 O         -4.5463  -20.7178  -54.2118 O.2       21 UNK        -0.5000 
    119 N         -3.0281  -19.0340  -54.0118 N.am      22 UNK        -0.5000 
    120 CA        -1.7695  -19.7473  -54.2687 C.3       22 UNK         0.1400 
    121 C         -1.7924  -20.7138  -55.4870 C.2       22 UNK         0.5000 
    122 N         -1.4765  -21.9850  -55.2820 N.am      22 UNK        -0.7600 
    123 O         -2.0588  -20.3065  -56.6156 O.2       22 UNK        -0.5000 
    124 C124       -0.5962  -18.7360  -54.3694 C.3       23 UNK        -0.0398 
    125 S125        0.9294  -19.3636  -53.5992 S.3       23 UNK        -0.2404 
    126 C126        0.7038  -18.7489  -51.9029 C.3       23 UNK        -0.0205 
    127 H127        4.3244  -13.3311  -54.9532 H         1 UNK         0.0600 
    128 H128        6.0136  -13.8419  -55.0385 H         1 UNK         0.0600 
    129 H129        4.8285  -14.8461  -54.1990 H         1 UNK         0.0600 
    130 H130        4.9861  -14.6780  -51.9821 H         1 UNK         0.3000 
    131 H131        6.3957  -12.5125  -50.6919 H         1 UNK         0.0600 
    132 H132        6.0117  -13.7777  -48.6093 H         1 UNK         0.0800 
    133 H133        6.7152  -14.7640  -49.8487 H         1 UNK         0.0800 
    134 H134        6.0250  -17.2158  -49.7808 H         1 UNK         0.0800 
    135 H135        5.3521  -16.6007  -51.2726 H         1 UNK         0.0800 
    136 H136        2.7396  -16.9711  -51.6017 H         1 UNK         0.1150 
    137 H137        1.4866  -20.8958  -50.4127 H         1 UNK         0.1150 
    138 H138        5.2042  -19.3063  -48.9832 H         1 UNK         0.1150 
    139 H139        3.3143  -22.3737  -49.4849 H         1 UNK         0.0800 
    140 H140        4.6965  -21.6676  -48.6859 H         1 UNK         0.0800 
    141 H141        3.0230  -23.9193  -47.7108 H         1 UNK         0.0800 
    142 H142        3.8897  -23.4003  -46.2963 H         1 UNK         0.0800 
    143 H143        2.0951  -24.8504  -45.5960 H         1 UNK         0.0600 
    144 H144        0.9214  -22.2797  -44.8293 H         1 UNK         0.3000 
    145 H145        1.7237  -22.7989  -41.4859 H         1 UNK         0.0600 
    146 H146        2.6847  -20.4969  -41.3639 H         1 UNK         0.0600 
    147 H147        3.8772  -21.6450  -41.9537 H         1 UNK         0.0600 
    148 H148        3.0767  -20.5580  -43.0822 H         1 UNK         0.0600 
    149 H149        0.6106  -20.5307  -42.8525 H         1 UNK         0.3000 
    150 H150       -2.4815  -21.9059  -43.7420 H         1 UNK         0.0600 
    151 H151       -3.0000  -21.7373  -41.2971 H         1 UNK         0.0600 
    152 H152       -3.6035  -20.3343  -42.1615 H         1 UNK         0.0600 
    153 H153       -2.1273  -20.2114  -41.2085 H         1 UNK         0.0600 
    154 H154       -1.8379  -19.1903  -43.4799 H         1 UNK         0.3000 
    155 H155        0.6023  -18.7473  -45.9279 H         1 UNK         0.0600 
    156 H156       -2.3725  -18.1945  -46.4097 H         1 UNK         0.0600 
    157 H157       -1.1971  -18.8144  -47.5661 H         1 UNK         0.0600 
    158 H158       -1.0710  -17.1635  -47.0056 H         1 UNK         0.0600 
    159 H159       -1.0212  -16.8249  -44.6603 H         1 UNK         0.3000 
    160 H160        0.6434  -16.6941  -41.4993 H         1 UNK         0.0600 
    161 H161        0.8585  -14.3561  -42.2379 H         1 UNK         0.0600 
    162 H162        0.4770  -14.7954  -43.8989 H         1 UNK         0.0600 
    163 H163        1.9685  -15.3618  -43.1567 H         1 UNK         0.0600 
    164 H164       -1.6597  -15.5466  -42.9797 H         1 UNK         0.3000 
    165 H165       -4.0566  -17.1995  -40.9956 H         1 UNK         0.0600 
    166 H166       -4.8361  -14.9415  -40.3285 H         1 UNK         0.0600 
    167 H167       -3.4219  -15.3920  -39.3900 H         1 UNK         0.0600 
    168 H168       -3.2603  -14.2509  -40.7196 H         1 UNK         0.0600 
    169 H169       -4.2770  -15.0212  -42.8352 H         1 UNK         0.3000 
    170 H170       -4.3581  -16.9687  -45.8176 H         1 UNK         0.0600 
    171 H171       -6.6406  -17.1485  -44.7303 H         1 UNK         0.0600 
    172 H172       -6.5680  -15.4334  -44.3575 H         1 UNK         0.0600 
    173 H173       -6.5774  -15.9787  -46.0368 H         1 UNK         0.0600 
    174 H174       -4.8106  -14.2621  -45.6633 H         1 UNK         0.3000 
    175 H175       -3.1078  -12.8970  -46.6788 H         1 UNK         0.0600 
    176 H176       -2.2365  -12.4318  -43.7636 H         1 UNK         0.0600 
    177 H177       -2.5666  -11.1621  -44.9418 H         1 UNK         0.0600 
    178 H178       -3.8636  -12.2105  -44.3957 H         1 UNK         0.0600 
    179 H179       -0.4719  -12.7485  -45.4110 H         1 UNK         0.3000 
    180 H180        1.3860  -12.8426  -46.5809 H         1 UNK         0.0600 
    181 H181        1.2472  -15.6270  -47.8628 H         1 UNK         0.0600 
    182 H182        1.0988  -15.3291  -46.1390 H         1 UNK         0.0600 
    183 H183        2.6000  -14.9415  -46.9614 H         1 UNK         0.0600 
    184 H184        1.9488  -13.7680  -49.2188 H         1 UNK         0.3000 
    185 H185        1.1939  -12.0023  -51.2361 H         1 UNK         0.0600 
    186 H186        1.1517   -9.5746  -50.8536 H         1 UNK         0.0600 
    187 H187        2.7920   -9.5939  -50.2226 H         1 UNK         0.0600 
    188 H188        2.4903   -9.9714  -51.9180 H         1 UNK         0.0600 
    189 H189        3.1284  -13.0257  -51.5467 H         1 UNK         0.3000 
    190 H190       -0.3565  -24.4983  -44.8126 H         1 UNK         0.3000 
    191 H191       -2.3084  -23.3452  -46.2094 H         1 UNK         0.0600 
    192 H192       -2.4765  -26.0215  -44.7411 H         1 UNK         0.0600 
    193 H193       -3.8607  -25.0191  -45.1583 H         1 UNK         0.0600 
    194 H194       -2.6581  -24.4189  -44.0326 H         1 UNK         0.0600 
    195 H195       -0.9802  -26.5161  -47.1353 H         1 UNK         0.3000 
    196 H196       -2.9988  -27.2364  -49.0136 H         1 UNK         0.0600 
    197 H197       -1.3011  -28.9054  -49.7768 H         1 UNK         0.0600 
    198 H198       -1.4404  -28.8849  -48.0263 H         1 UNK         0.0600 
    199 H199       -0.0660  -28.1063  -48.8111 H         1 UNK         0.0600 
    200 H200        0.0324  -25.3781  -49.3725 H         1 UNK         0.3000 
    201 H201       -0.1376  -25.1607  -52.2815 H         1 UNK         0.0600 
    202 H202        2.0628  -25.1320  -51.1299 H         1 UNK         0.0600 
    203 H203        1.5861  -23.7066  -50.2089 H         1 UNK         0.0600 
    204 H204        1.7942  -23.6012  -51.9526 H         1 UNK         0.0600 
    205 H205       -1.1552  -23.3488  -49.4620 H         1 UNK         0.3000 
    206 H206       -2.0238  -20.9554  -50.8787 H         1 UNK         0.0600 
    207 H207       -2.7590  -20.3047  -48.5753 H         1 UNK         0.0600 
    208 H208       -1.1027  -20.9024  -48.5684 H         1 UNK         0.0600 
    209 H209       -2.4100  -21.9272  -48.0031 H         1 UNK         0.0600 
    210 H210       -3.3073  -23.9457  -50.9970 H         1 UNK         0.3000 
    211 H211       -5.2255  -24.8920  -51.5411 H         1 UNK         0.0600 
    212 H212       -6.1768  -22.0778  -52.2719 H         1 UNK         0.0600 
    213 H213       -6.9327  -23.5809  -52.7787 H         1 UNK         0.0600 
    214 H214       -5.3115  -23.1895  -53.3307 H         1 UNK         0.0600 
    215 H215       -5.0528  -25.0826  -49.0901 H         1 UNK         0.3000 
    216 H216       -6.0511  -25.5749  -47.1928 H         1 UNK         0.0600 
    217 H217       -8.4885  -25.7104  -46.9469 H         1 UNK         0.0600 
    218 H218       -8.0330  -26.3538  -48.5160 H         1 UNK         0.0600 
    219 H219       -8.7465  -24.7460  -48.3917 H         1 UNK         0.0600 
    220 H220       -4.7107  -23.2839  -47.4753 H         1 UNK         0.3000 
    221 H221       -4.1010  -21.4111  -46.4425 H         1 UNK         0.0600 
    222 H222       -6.2482  -21.9721  -44.3390 H         1 UNK         0.0600 
    223 H223       -4.6518  -22.7149  -44.3591 H         1 UNK         0.0600 
    224 H224       -4.8154  -20.9772  -44.1517 H         1 UNK         0.0600 
    225 H225       -6.3760  -21.2960  -48.4593 H         1 UNK         0.3000 
    226 H226       -7.9503  -18.9623  -47.7630 H         1 UNK         0.0600 
    227 H227       -8.7726  -20.7043  -49.3365 H         1 UNK         0.0600 
    228 H228       -8.6794  -19.1482  -50.1479 H         1 UNK         0.0600 
    229 H229       -7.4445  -20.3672  -50.4437 H         1 UNK         0.0600 
    230 H230       -4.8325  -19.5012  -49.1142 H         1 UNK         0.3000 
    231 H231       -3.1155  -18.2561  -49.7640 H         1 UNK         0.0600 
    232 H232       -3.6810  -16.4858  -48.0850 H         1 UNK         0.0600 
    233 H233       -4.6885  -15.6771  -49.2861 H         1 UNK         0.0600 
    234 H234       -2.9601  -15.8331  -49.5426 H         1 UNK         0.0600 
    235 H235       -5.5029  -19.1535  -51.3699 H         1 UNK         0.3000 
    236 H236       -5.2301  -17.6327  -53.9007 H         1 UNK         0.0600 
    237 H237       -6.9641  -19.2590  -54.6799 H         1 UNK         0.0600 
    238 H238       -6.9551  -20.0424  -53.1045 H         1 UNK         0.0600 
    239 H239       -7.4980  -18.3755  -53.2577 H         1 UNK         0.0600 
    240 H240       -2.9308  -18.0642  -53.7418 H         1 UNK         0.3000 
    241 H241       -1.6244  -20.3497  -53.3709 H         1 UNK         0.0600 
    242 H242       -1.4742  -22.6288  -56.0566 H         1 UNK         0.3800 
    243 H243       -1.2843  -22.3253  -54.3412 H         1 UNK         0.3800 
    244 H244       -0.3824  -18.4670  -55.4057 H         1 UNK         0.0800 
    245 H245       -0.8488  -17.7916  -53.8853 H         1 UNK         0.0800 
    246 H246       -0.1196  -19.2845  -51.4279 H         1 UNK         0.0800 
    247 H247        0.4184  -17.6959  -51.9217 H         1 UNK         0.0800 
@<TRIPOS>BOND
     1    1    2 1    
     2    1  127 1    
     3    1  128 1    
     4    1  129 1    
     5    2    3 2    
     6    2    4 am   BACKBONE|DICT|INTERRES
     7    4    5 1    
     8    4  130 1    
     9    5    6 1    
    10    5   65 1    
    11    5  131 1    
    12    6    7 1    
    13    6  132 1    
    14    6  133 1    
    15    7    8 1    
    16    8    9 1    
    17    8  134 1    
    18    8  135 1    
    19    9   10 ar   
    20    9   14 ar   
    21   10   11 ar   
    22   10  136 1    
    23   11   12 ar   
    24   11  126 1    
    25   12   13 ar   
    26   12  137 1    
    27   13   14 ar   
    28   13   15 1    
    29   14  138 1    
    30   15   16 1    
    31   15  139 1    
    32   15  140 1    
    33   16   17 1    
    34   17   18 1    
    35   17  141 1    
    36   17  142 1    
    37   18   19 1    
    38   18   67 1    
    39   18  143 1    
    40   19   20 am   BACKBONE|DICT|INTERRES
    41   19  144 1    
    42   20   21 2    
    43   20   22 1    
    44   22   23 1    
    45   22   24 1    
    46   22  145 1    
    47   23  146 1    
    48   23  147 1    
    49   23  148 1    
    50   24   25 am   BACKBONE|DICT|INTERRES
    51   24  149 1    
    52   25   26 2    
    53   25   27 1    
    54   27   28 1    
    55   27   29 1    
    56   27  150 1    
    57   28  151 1    
    58   28  152 1    
    59   28  153 1    
    60   29   30 am   BACKBONE|DICT|INTERRES
    61   29  154 1    
    62   30   31 2    
    63   30   32 1    
    64   32   33 1    
    65   32   34 1    
    66   32  155 1    
    67   33  156 1    
    68   33  157 1    
    69   33  158 1    
    70   34   35 am   BACKBONE|DICT|INTERRES
    71   34  159 1    
    72   35   36 2    
    73   35   37 1    
    74   37   38 1    
    75   37   39 1    
    76   37  160 1    
    77   38  161 1    
    78   38  162 1    
    79   38  163 1    
    80   39   40 am   BACKBONE|DICT|INTERRES
    81   39  164 1    
    82   40   41 2    
    83   40   42 1    
    84   42   43 1    
    85   42   44 1    
    86   42  165 1    
    87   43  166 1    
    88   43  167 1    
    89   43  168 1    
    90   44   45 am   BACKBONE|DICT|INTERRES
    91   44  169 1    
    92   45   46 2    
    93   45   47 1    
    94   47   48 1    
    95   47   49 1    
    96   47  170 1    
    97   48  171 1    
    98   48  172 1    
    99   48  173 1    
   100   49   50 am   BACKBONE|DICT|INTERRES
   101   49  174 1    
   102   50   51 2    
   103   50   52 1    
   104   52   53 1    
   105   52   54 1    
   106   52  175 1    
   107   53  176 1    
   108   53  177 1    
   109   53  178 1    
   110   54   55 am   BACKBONE|DICT|INTERRES
   111   54  179 1    
   112   55   56 2    
   113   55   57 1    
   114   57   58 1    
   115   57   59 1    
   116   57  180 1    
   117   58  181 1    
   118   58  182 1    
   119   58  183 1    
   120   59   60 am   BACKBONE|DICT|INTERRES
   121   59  184 1    
   122   60   61 2    
   123   60   62 1    
   124   62   63 1    
   125   62   64 1    
   126   62  185 1    
   127   63  186 1    
   128   63  187 1    
   129   63  188 1    
   130   64   65 am   BACKBONE|DICT|INTERRES
   131   64  189 1    
   132   65   66 2    
   133   67   68 2    
   134   67   69 am   BACKBONE|DICT|INTERRES
   135   69   70 1    
   136   69  190 1    
   137   70   71 1    
   138   70   72 1    
   139   70  191 1    
   140   71  192 1    
   141   71  193 1    
   142   71  194 1    
   143   72   73 2    
   144   72   74 am   BACKBONE|DICT|INTERRES
   145   74   75 1    
   146   74  195 1    
   147   75   76 1    
   148   75   77 1    
   149   75  196 1    
   150   76  197 1    
   151   76  198 1    
   152   76  199 1    
   153   77   78 2    
   154   77   79 am   BACKBONE|DICT|INTERRES
   155   79   80 1    
   156   79  200 1    
   157   80   81 1    
   158   80   82 1    
   159   80  201 1    
   160   81  202 1    
   161   81  203 1    
   162   81  204 1    
   163   82   83 2    
   164   82   84 am   BACKBONE|DICT|INTERRES
   165   84   85 1    
   166   84  205 1    
   167   85   86 1    
   168   85   87 1    
   169   85  206 1    
   170   86  207 1    
   171   86  208 1    
   172   86  209 1    
   173   87   88 2    
   174   87   89 am   BACKBONE|DICT|INTERRES
   175   89   90 1    
   176   89  210 1    
   177   90   91 1    
   178   90   92 1    
   179   90  211 1    
   180   91  212 1    
   181   91  213 1    
   182   91  214 1    
   183   92   93 2    
   184   92   94 am   BACKBONE|DICT|INTERRES
   185   94   95 1    
   186   94  215 1    
   187   95   96 1    
   188   95   97 1    
   189   95  216 1    
   190   96  217 1    
   191   96  218 1    
   192   96  219 1    
   193   97   98 2    
   194   97   99 am   BACKBONE|DICT|INTERRES
   195   99  100 1    
   196   99  220 1    
   197  100  101 1    
   198  100  102 1    
   199  100  221 1    
   200  101  222 1    
   201  101  223 1    
   202  101  224 1    
   203  102  103 2    
   204  102  104 am   BACKBONE|DICT|INTERRES
   205  104  105 1    
   206  104  225 1    
   207  105  106 1    
   208  105  107 1    
   209  105  226 1    
   210  106  227 1    
   211  106  228 1    
   212  106  229 1    
   213  107  108 2    
   214  107  109 am   BACKBONE|DICT|INTERRES
   215  109  110 1    
   216  109  230 1    
   217  110  111 1    
   218  110  112 1    
   219  110  231 1    
   220  111  232 1    
   221  111  233 1    
   222  111  234 1    
   223  112  113 2    
   224  112  114 am   BACKBONE|DICT|INTERRES
   225  114  115 1    
   226  114  235 1    
   227  115  116 1    
   228  115  117 1    
   229  115  236 1    
   230  116  237 1    
   231  116  238 1    
   232  116  239 1    
   233  117  118 2    
   234  117  119 am   BACKBONE|DICT|INTERRES
   235  119  120 1    
   236  119  240 1    
   237  120  121 1    
   238  120  124 1    
   239  120  241 1    
   240  121  122 am   BACKBONE|DICT|INTERRES
   241  121  123 2    
   242  122  242 1    
   243  122  243 1    
   244  124  125 1    
   245  124  244 1    
   246  124  245 1    
   247  125  126 1    
   248  126  246 1    
   249  126  247 1    
@<TRIPOS>SUBSTRUCTURE
     1 UNK         1 GROUP             0       ****    0 ROOT    
