@<TRIPOS>MOLECULE
3R540
247   249    1
SMALL
USER_CHARGES


@<TRIPOS>ATOM
      1 CA         -2.3971   -7.6086  -43.3349 C.3       0 UNK        -0.1800 
      2 C          -1.6502   -8.7041  -44.0813 C.2       0 UNK         0.5000 
      3 O          -0.4335   -8.6143  -44.2462 O.2       0 UNK        -0.5000 
      4 N          -2.3672   -9.7503  -44.5174 N.am      1 UNK        -0.5000 
      5 CA         -1.8304  -10.8857  -45.2844 C.3       1 UNK         0.1400 
      6 C6         -2.9616  -11.7819  -45.8497 C.3       23 UNK        -0.0398 
      7 S7         -2.5283  -12.5317  -47.4569 S.3       23 UNK        -0.2404 
      8 C8         -1.9658  -14.1946  -46.9735 C.3       23 UNK        -0.0205 
      9 C9         -2.6215  -15.2553  -47.8406 C.ar      23 UNK        -0.0193 
     10 C10        -2.0633  -15.5980  -49.0744 C.ar      23 UNK        -0.1150 
     11 C11        -2.6617  -16.5723  -49.8783 C.ar      23 UNK        -0.0193 
     12 C12        -3.8401  -17.1884  -49.4492 C.ar      23 UNK        -0.1150 
     13 C13        -4.4019  -16.8630  -48.2104 C.ar      23 UNK        -0.0193 
     14 C14        -3.7878  -15.8940  -47.4113 C.ar      23 UNK        -0.1150 
     15 C15        -5.6616  -17.5673  -47.7219 C.3       23 UNK        -0.0205 
     16 S16        -5.4888  -19.3818  -47.6681 S.3       23 UNK        -0.2404 
     17 C17        -3.9660  -19.5804  -46.6840 C.3       23 UNK        -0.0398 
     18 CA         -3.5555  -21.0667  -46.5363 C.3       11 UNK         0.1400 
     19 N          -2.0991  -21.2108  -46.5678 N.am      11 UNK        -0.5000 
     20 C          -1.4196  -22.2114  -47.1415 C.2       10 UNK         0.5000 
     21 O          -1.9462  -23.1022  -47.8078 O.2       10 UNK        -0.5000 
     22 CA          0.1102  -22.2375  -46.9397 C.3       10 UNK         0.1400 
     23 CB          0.8307  -21.8478  -48.2383 C.3       10 UNK        -0.1800 
     24 N           0.5841  -21.3861  -45.8435 N.am      10 UNK        -0.5000 
     25 C           0.2991  -21.5859  -44.5493 C.2       9 UNK         0.5000 
     26 O          -0.3750  -22.5324  -44.1454 O.2       9 UNK        -0.5000 
     27 CA          0.7661  -20.5141  -43.5503 C.3       9 UNK         0.1400 
     28 CB          2.2377  -20.7322  -43.1709 C.3       9 UNK        -0.1800 
     29 N           0.5716  -19.1509  -44.0498 N.am      9 UNK        -0.5000 
     30 C          -0.6193  -18.6043  -44.3409 C.2       8 UNK         0.5000 
     31 O          -1.6926  -19.1856  -44.1818 O.2       8 UNK        -0.5000 
     32 CA         -0.6081  -17.2013  -44.9787 C.3       8 UNK         0.1400 
     33 CB         -0.3620  -16.1096  -43.9258 C.3       8 UNK        -0.1800 
     34 N           0.3848  -17.0864  -46.0455 N.am      8 UNK        -0.5000 
     35 C           0.3818  -17.8152  -47.1712 C.2       7 UNK         0.5000 
     36 O          -0.4959  -18.6274  -47.4569 O.2       7 UNK        -0.5000 
     37 CA          1.6034  -17.6593  -48.0930 C.3       7 UNK         0.1400 
     38 CB          1.4805  -16.4174  -48.9881 C.3       7 UNK        -0.1800 
     39 N           2.8446  -17.5799  -47.3237 N.am      7 UNK        -0.5000 
     40 C           3.4082  -18.6157  -46.6880 C.2       6 UNK         0.5000 
     41 O           2.9514  -19.7582  -46.7037 O.2       6 UNK        -0.5000 
     42 CA          4.6778  -18.3155  -45.8697 C.3       6 UNK         0.1400 
     43 CB          5.9197  -18.3216  -46.7734 C.3       6 UNK        -0.1800 
     44 N           4.6028  -17.0398  -45.1552 N.am      6 UNK        -0.5000 
     45 C           3.7631  -16.7975  -44.1396 C.2       5 UNK         0.5000 
     46 O           2.9802  -17.6312  -43.6881 O.2       5 UNK        -0.5000 
     47 CA          3.7657  -15.3752  -43.5536 C.3       5 UNK         0.1400 
     48 CB          4.8626  -15.2340  -42.4881 C.3       5 UNK        -0.1800 
     49 N           3.9129  -14.3041  -44.5422 N.am      5 UNK        -0.5000 
     50 C           3.1314  -14.1117  -45.6138 C.2       4 UNK         0.5000 
     51 O           2.2703  -14.9100  -45.9853 O.2       4 UNK        -0.5000 
     52 CA          3.3207  -12.7716  -46.3445 C.3       4 UNK         0.1400 
     53 CB          2.4838  -12.6713  -47.6329 C.3       4 UNK        -0.1800 
     54 N           2.9199  -11.7062  -45.4305 N.am      4 UNK        -0.5000 
     55 C           3.7467  -11.0094  -44.6385 C.2       3 UNK         0.5000 
     56 O           4.9738  -11.0951  -44.6944 O.2       3 UNK        -0.5000 
     57 CA          3.0990  -10.1049  -43.5689 C.3       3 UNK         0.1400 
     58 CB          2.9422   -8.6725  -44.0993 C.3       3 UNK        -0.1800 
     59 N           1.7958  -10.6003  -43.1190 N.am      3 UNK        -0.5000 
     60 C           1.6086  -11.7451  -42.4415 C.2       2 UNK         0.5000 
     61 O           2.5322  -12.4276  -41.9984 O.2       2 UNK        -0.5000 
     62 CA          0.1571  -12.2367  -42.2473 C.3       2 UNK         0.1400 
     63 CB         -0.3059  -11.9922  -40.8033 C.3       2 UNK        -0.1800 
     64 N          -0.8156  -11.6337  -43.1630 N.am      2 UNK        -0.5000 
     65 C          -0.7876  -11.7165  -44.5016 C.2       1 UNK         0.5000 
     66 O           0.0553  -12.3666  -45.1166 O.2       1 UNK        -0.5000 
     67 C          -4.1761  -21.7084  -45.2744 C.2       11 UNK         0.5000 
     68 O          -5.3943  -21.8824  -45.2242 O.2       11 UNK        -0.5000 
     69 N          -3.3461  -22.0510  -44.2798 N.am      12 UNK        -0.5000 
     70 CA         -3.7484  -22.7675  -43.0712 C.3       12 UNK         0.1400 
     71 CB         -3.0175  -22.1690  -41.8586 C.3       12 UNK        -0.1800 
     72 C          -3.4431  -24.2675  -43.2099 C.2       12 UNK         0.5000 
     73 O          -4.2805  -25.0969  -42.8536 O.2       12 UNK        -0.5000 
     74 N          -2.2521  -24.5882  -43.7334 N.am      13 UNK        -0.5000 
     75 CA         -1.7585  -25.9508  -43.9326 C.3       13 UNK         0.1400 
     76 CB         -0.2317  -25.8967  -44.0997 C.3       13 UNK        -0.1800 
     77 C          -2.3984  -26.6733  -45.1332 C.2       13 UNK         0.5000 
     78 O          -2.3695  -27.9041  -45.1773 O.2       13 UNK        -0.5000 
     79 N          -2.9470  -25.9132  -46.0863 N.am      14 UNK        -0.5000 
     80 CA         -3.5668  -26.4039  -47.3113 C.3       14 UNK         0.1400 
     81 CB         -2.4751  -26.6706  -48.3653 C.3       14 UNK        -0.1800 
     82 C          -4.5875  -25.3722  -47.8120 C.2       14 UNK         0.5000 
     83 O          -4.6883  -24.2775  -47.2547 O.2       14 UNK        -0.5000 
     84 N          -5.3171  -25.7223  -48.8774 N.am      15 UNK        -0.5000 
     85 CA         -6.2641  -24.8455  -49.5685 C.3       15 UNK         0.1400 
     86 CB         -7.2621  -25.7184  -50.3510 C.3       15 UNK        -0.1800 
     87 C          -5.5219  -23.8403  -50.4735 C.2       15 UNK         0.5000 
     88 O          -5.5573  -23.9758  -51.6972 O.2       15 UNK        -0.5000 
     89 N          -4.8120  -22.8922  -49.8431 N.am      16 UNK        -0.5000 
     90 CA         -3.9597  -21.8600  -50.4478 C.3       16 UNK         0.1400 
     91 CB         -4.8126  -20.8143  -51.1918 C.3       16 UNK        -0.1800 
     92 C          -2.8638  -22.4915  -51.3261 C.2       16 UNK         0.5000 
     93 O          -2.8780  -22.3413  -52.5499 O.2       16 UNK        -0.5000 
     94 N          -1.9805  -23.2511  -50.6620 N.am      17 UNK        -0.5000 
     95 CA         -0.8908  -24.0629  -51.2194 C.3       17 UNK         0.1400 
     96 CB          0.1168  -23.1911  -51.9977 C.3       17 UNK        -0.1800 
     97 C          -1.3777  -25.2686  -52.0516 C.2       17 UNK         0.5000 
     98 O          -0.6171  -25.7885  -52.8683 O.2       17 UNK        -0.5000 
     99 N          -2.6394  -25.6798  -51.8505 N.am      18 UNK        -0.5000 
    100 CA        -3.3831  -26.7729  -52.5000 C.3       18 UNK         0.1400 
    101 CB        -2.6872  -28.1324  -52.2951 C.3       18 UNK        -0.1800 
    102 C         -3.7071  -26.5400  -53.9906 C.2       18 UNK         0.5000 
    103 O         -4.7515  -26.9934  -54.4588 O.2       18 UNK        -0.5000 
    104 N         -2.8323  -25.8209  -54.7027 N.am      19 UNK        -0.5000 
    105 CA        -2.9915  -25.3912  -56.0927 C.3       19 UNK         0.1400 
    106 CB        -1.6232  -24.9184  -56.6098 C.3       19 UNK        -0.1800 
    107 C         -4.0471  -24.2810  -56.2796 C.2       19 UNK         0.5000 
    108 O         -4.4448  -24.0265  -57.4174 O.2       19 UNK        -0.5000 
    109 N         -4.4645  -23.6567  -55.1680 N.am      20 UNK        -0.5000 
    110 CA        -5.3429  -22.4952  -55.0252 C.3       20 UNK         0.1400 
    111 CB        -6.6576  -22.6373  -55.8172 C.3       20 UNK        -0.1800 
    112 C         -4.6142  -21.1796  -55.3486 C.2       20 UNK         0.5000 
    113 O         -3.6995  -21.1468  -56.1767 O.2       20 UNK        -0.5000 
    114 N         -5.0252  -20.1116  -54.6491 N.am      21 UNK        -0.5000 
    115 CA        -4.5063  -18.7385  -54.7324 C.3       21 UNK         0.1400 
    116 CB        -4.9315  -18.0947  -56.0683 C.3       21 UNK        -0.1800 
    117 C         -2.9859  -18.6082  -54.4769 C.2       21 UNK         0.5000 
    118 O         -2.3790  -17.6282  -54.9118 O.2       21 UNK        -0.5000 
    119 N         -2.3999  -19.5949  -53.7837 N.am      22 UNK        -0.5000 
    120 CA        -0.9555  -19.7622  -53.5585 C.3       22 UNK         0.1400 
    121 C         -0.1461  -20.0915  -54.8513 C.2       22 UNK         0.5000 
    122 N         -0.7727  -20.5694  -55.9217 N.am      22 UNK        -0.7600 
    123 O          1.0725  -19.9428  -54.8823 O.2       22 UNK        -0.5000 
    124 C124       -0.3230  -18.6328  -52.6991 C.3       23 UNK        -0.0398 
    125 S125       -1.0875  -18.5123  -51.0457 S.3       23 UNK        -0.2404 
    126 C126       -2.0343  -16.9664  -51.2048 C.3       23 UNK        -0.0205 
    127 H127       -1.9949   -7.5004  -42.3276 H         1 UNK         0.0600 
    128 H128       -2.2815   -6.6569  -43.8533 H         1 UNK         0.0600 
    129 H129       -3.4626   -7.8256  -43.2550 H         1 UNK         0.0600 
    130 H130       -3.3617   -9.7692  -44.3398 H         1 UNK         0.3000 
    131 H131       -1.2957  -10.4417  -46.1273 H         1 UNK         0.0600 
    132 H132       -3.2831  -12.5401  -45.1336 H         1 UNK         0.0800 
    133 H133       -3.8491  -11.1774  -46.0418 H         1 UNK         0.0800 
    134 H134       -2.1841  -14.3896  -45.9234 H         1 UNK         0.0800 
    135 H135       -0.8796  -14.2488  -47.0683 H         1 UNK         0.0800 
    136 H136       -1.1625  -15.1025  -49.4059 H         1 UNK         0.1150 
    137 H137       -4.3048  -17.9438  -50.0666 H         1 UNK         0.1150 
    138 H138       -4.2173  -15.6332  -46.4543 H         1 UNK         0.1150 
    139 H139       -5.9409  -17.2159  -46.7275 H         1 UNK         0.0800 
    140 H140       -6.4898  -17.3105  -48.3834 H         1 UNK         0.0800 
    141 H141       -4.0787  -19.0839  -45.7182 H         1 UNK         0.0800 
    142 H142       -3.1774  -19.0348  -47.2040 H         1 UNK         0.0800 
    143 H143       -3.9616  -21.6217  -47.3817 H         1 UNK         0.0600 
    144 H144       -1.5752  -20.4903  -46.0869 H         1 UNK         0.3000 
    145 H145        0.3824  -23.2672  -46.6994 H         1 UNK         0.0600 
    146 H146        1.9131  -21.9046  -48.1236 H         1 UNK         0.0600 
    147 H147        0.5578  -22.5212  -49.0497 H         1 UNK         0.0600 
    148 H148        0.5776  -20.8355  -48.5535 H         1 UNK         0.0600 
    149 H149        1.1760  -20.6034  -46.1027 H         1 UNK         0.3000 
    150 H150        0.1642  -20.6234  -42.6459 H         1 UNK         0.0600 
    151 H151        2.3998  -21.7441  -42.7974 H         1 UNK         0.0600 
    152 H152        2.5474  -20.0433  -42.3850 H         1 UNK         0.0600 
    153 H153        2.9002  -20.5861  -44.0244 H         1 UNK         0.0600 
    154 H154        1.4114  -18.5881  -44.1589 H         1 UNK         0.3000 
    155 H155       -1.5900  -17.0302  -45.4247 H         1 UNK         0.0600 
    156 H156        0.5920  -16.2475  -43.4175 H         1 UNK         0.0600 
    157 H157       -1.1436  -16.1185  -43.1656 H         1 UNK         0.0600 
    158 H158       -0.3554  -15.1174  -44.3775 H         1 UNK         0.0600 
    159 H159        1.1302  -16.4070  -45.9124 H         1 UNK         0.3000 
    160 H160        1.6557  -18.5378  -48.7397 H         1 UNK         0.0600 
    161 H161        2.3838  -16.2613  -49.5776 H         1 UNK         0.0600 
    162 H162        1.2950  -15.5128  -48.4087 H         1 UNK         0.0600 
    163 H163        0.6570  -16.5320  -49.6905 H         1 UNK         0.0600 
    164 H164        3.2281  -16.6561  -47.1829 H         1 UNK         0.3000 
    165 H165        4.7916  -19.1117  -45.1309 H         1 UNK         0.0600 
    166 H166        6.8317  -18.1900  -46.1909 H         1 UNK         0.0600 
    167 H167        6.0094  -19.2695  -47.3058 H         1 UNK         0.0600 
    168 H168        5.8801  -17.5278  -47.5203 H         1 UNK         0.0600 
    169 H169        5.2078  -16.2961  -45.4709 H         1 UNK         0.3000 
    170 H170        2.8014  -15.2243  -43.0648 H         1 UNK         0.0600 
    171 H171        4.7668  -16.0060  -41.7234 H         1 UNK         0.0600 
    172 H172        5.8595  -15.3213  -42.9217 H         1 UNK         0.0600 
    173 H173        4.7984  -14.2698  -41.9832 H         1 UNK         0.0600 
    174 H174        4.5768  -13.5783  -44.3108 H         1 UNK         0.3000 
    175 H175        4.3741  -12.6760  -46.6153 H         1 UNK         0.0600 
    176 H176        1.4173  -12.7886  -47.4366 H         1 UNK         0.0600 
    177 H177        2.6285  -11.7076  -48.1210 H         1 UNK         0.0600 
    178 H178        2.7738  -13.4439  -48.3458 H         1 UNK         0.0600 
    179 H179        1.9205  -11.6495  -45.2606 H         1 UNK         0.3000 
    180 H180        3.7674  -10.0794  -42.7057 H         1 UNK         0.0600 
    181 H181        2.2859   -8.6364  -44.9698 H         1 UNK         0.0600 
    182 H182        3.9063   -8.2584  -44.3971 H         1 UNK         0.0600 
    183 H183        2.5252   -8.0126  -43.3382 H         1 UNK         0.0600 
    184 H184        0.9847  -10.0829  -43.4379 H         1 UNK         0.3000 
    185 H185        0.1576  -13.3131  -42.4305 H         1 UNK         0.0600 
    186 H186        0.3767  -12.4554  -40.0894 H         1 UNK         0.0600 
    187 H187       -0.3510  -10.9274  -40.5712 H         1 UNK         0.0600 
    188 H188       -1.2940  -12.4179  -40.6275 H         1 UNK         0.0600 
    189 H189       -1.5313  -11.0597  -42.7417 H         1 UNK         0.3000 
    190 H190       -2.3549  -21.8800  -44.3919 H         1 UNK         0.3000 
    191 H191       -4.8213  -22.6555  -42.9015 H         1 UNK         0.0600 
    192 H192       -1.9350  -22.2691  -41.9425 H         1 UNK         0.0600 
    193 H193       -3.3220  -22.6661  -40.9368 H         1 UNK         0.0600 
    194 H194       -3.2453  -21.1086  -41.7481 H         1 UNK         0.0600 
    195 H195       -1.5972  -23.8407  -43.9540 H         1 UNK         0.3000 
    196 H196       -1.9841  -26.5343  -43.0376 H         1 UNK         0.0600 
    197 H197        0.0550  -25.3192  -44.9796 H         1 UNK         0.0600 
    198 H198        0.1869  -26.8976  -44.2117 H         1 UNK         0.0600 
    199 H199        0.2443  -25.4404  -43.2314 H         1 UNK         0.0600 
    200 H200       -2.9912  -24.9087  -45.9687 H         1 UNK         0.3000 
    201 H201       -4.1075  -27.3287  -47.0997 H         1 UNK         0.0600 
    202 H202       -2.9028  -27.0663  -49.2853 H         1 UNK         0.0600 
    203 H203       -1.7507  -27.4034  -48.0101 H         1 UNK         0.0600 
    204 H204       -1.9306  -25.7601  -48.6171 H         1 UNK         0.0600 
    205 H205       -5.1862  -26.6393  -49.2787 H         1 UNK         0.3000 
    206 H206       -6.8302  -24.2727  -48.8306 H         1 UNK         0.0600 
    207 H207       -7.8183  -26.3757  -49.6825 H         1 UNK         0.0600 
    208 H208       -7.9908  -25.1006  -50.8774 H         1 UNK         0.0600 
    209 H209       -6.7625  -26.3414  -51.0940 H         1 UNK         0.0600 
    210 H210       -4.7824  -22.9525  -48.8303 H         1 UNK         0.3000 
    211 H211       -3.4479  -21.3409  -49.6368 H         1 UNK         0.0600 
    212 H212       -5.3678  -21.2557  -52.0168 H         1 UNK         0.0600 
    213 H213       -4.1877  -20.0169  -51.5939 H         1 UNK         0.0600 
    214 H214       -5.5355  -20.3502  -50.5220 H         1 UNK         0.0600 
    215 H215       -2.0681  -23.2933  -49.6475 H         1 UNK         0.3000 
    216 H216       -0.3673  -24.4831  -50.3598 H         1 UNK         0.0600 
    217 H217       -0.2699  -22.9092  -52.9772 H         1 UNK         0.0600 
    218 H218        1.0482  -23.7326  -52.1657 H         1 UNK         0.0600 
    219 H219        0.3652  -22.2790  -51.4554 H         1 UNK         0.0600 
    220 H220       -3.1880  -25.1186  -51.2158 H         1 UNK         0.3000 
    221 H221       -4.3430  -26.8162  -51.9832 H         1 UNK         0.0600 
    222 H222       -1.7359  -28.1883  -52.8247 H         1 UNK         0.0600 
    223 H223       -2.4950  -28.3297  -51.2413 H         1 UNK         0.0600 
    224 H224       -3.3110  -28.9458  -52.6677 H         1 UNK         0.0600 
    225 H225       -1.9711  -25.5531  -54.2369 H         1 UNK         0.3000 
    226 H226       -3.3085  -26.2520  -56.6848 H         1 UNK         0.0600 
    227 H227       -0.8772  -25.7100  -56.5360 H         1 UNK         0.0600 
    228 H228       -1.6807  -24.6232  -57.6583 H         1 UNK         0.0600 
    229 H229       -1.2581  -24.0582  -56.0464 H         1 UNK         0.0600 
    230 H230       -4.0259  -23.9424  -54.3029 H         1 UNK         0.3000 
    231 H231       -5.6034  -22.4767  -53.9674 H         1 UNK         0.0600 
    232 H232       -7.1342  -23.5984  -55.6237 H         1 UNK         0.0600 
    233 H233       -6.5015  -22.5462  -56.8923 H         1 UNK         0.0600 
    234 H234       -7.3662  -21.8597  -55.5307 H         1 UNK         0.0600 
    235 H235       -5.7791  -20.2404  -53.9893 H         1 UNK         0.3000 
    236 H236       -4.9903  -18.1819  -53.9287 H         1 UNK         0.0600 
    237 H237       -4.6842  -17.0327  -56.0912 H         1 UNK         0.0600 
    238 H238       -4.4352  -18.5650  -56.9178 H         1 UNK         0.0600 
    239 H239       -6.0076  -18.1772  -56.2211 H         1 UNK         0.0600 
    240 H240       -2.9618  -20.3840  -53.4899 H         1 UNK         0.3000 
    241 H241       -0.8709  -20.6703  -52.9666 H         1 UNK         0.0600 
    242 H242       -1.7782  -20.7142  -55.9226 H         1 UNK         0.3800 
    243 H243       -0.2398  -20.7860  -56.7483 H         1 UNK         0.3800 
    244 H244        0.7378  -18.8293  -52.5369 H         1 UNK         0.0800 
    245 H245       -0.3716  -17.6730  -53.2141 H         1 UNK         0.0800 
    246 H246       -1.3780  -16.1716  -51.5626 H         1 UNK         0.0800 
    247 H247       -2.8137  -17.0886  -51.9569 H         1 UNK         0.0800 
@<TRIPOS>BOND
     1    1    2 1    
     2    1  127 1    
     3    1  128 1    
     4    1  129 1    
     5    2    3 2    
     6    2    4 am   BACKBONE|DICT|INTERRES
     7    4    5 1    
     8    4  130 1    
     9    5    6 1    
    10    5   65 1    
    11    5  131 1    
    12    6    7 1    
    13    6  132 1    
    14    6  133 1    
    15    7    8 1    
    16    8    9 1    
    17    8  134 1    
    18    8  135 1    
    19    9   10 ar   
    20    9   14 ar   
    21   10   11 ar   
    22   10  136 1    
    23   11   12 ar   
    24   11  126 1    
    25   12   13 ar   
    26   12  137 1    
    27   13   14 ar   
    28   13   15 1    
    29   14  138 1    
    30   15   16 1    
    31   15  139 1    
    32   15  140 1    
    33   16   17 1    
    34   17   18 1    
    35   17  141 1    
    36   17  142 1    
    37   18   19 1    
    38   18   67 1    
    39   18  143 1    
    40   19   20 am   BACKBONE|DICT|INTERRES
    41   19  144 1    
    42   20   21 2    
    43   20   22 1    
    44   22   23 1    
    45   22   24 1    
    46   22  145 1    
    47   23  146 1    
    48   23  147 1    
    49   23  148 1    
    50   24   25 am   BACKBONE|DICT|INTERRES
    51   24  149 1    
    52   25   26 2    
    53   25   27 1    
    54   27   28 1    
    55   27   29 1    
    56   27  150 1    
    57   28  151 1    
    58   28  152 1    
    59   28  153 1    
    60   29   30 am   BACKBONE|DICT|INTERRES
    61   29  154 1    
    62   30   31 2    
    63   30   32 1    
    64   32   33 1    
    65   32   34 1    
    66   32  155 1    
    67   33  156 1    
    68   33  157 1    
    69   33  158 1    
    70   34   35 am   BACKBONE|DICT|INTERRES
    71   34  159 1    
    72   35   36 2    
    73   35   37 1    
    74   37   38 1    
    75   37   39 1    
    76   37  160 1    
    77   38  161 1    
    78   38  162 1    
    79   38  163 1    
    80   39   40 am   BACKBONE|DICT|INTERRES
    81   39  164 1    
    82   40   41 2    
    83   40   42 1    
    84   42   43 1    
    85   42   44 1    
    86   42  165 1    
    87   43  166 1    
    88   43  167 1    
    89   43  168 1    
    90   44   45 am   BACKBONE|DICT|INTERRES
    91   44  169 1    
    92   45   46 2    
    93   45   47 1    
    94   47   48 1    
    95   47   49 1    
    96   47  170 1    
    97   48  171 1    
    98   48  172 1    
    99   48  173 1    
   100   49   50 am   BACKBONE|DICT|INTERRES
   101   49  174 1    
   102   50   51 2    
   103   50   52 1    
   104   52   53 1    
   105   52   54 1    
   106   52  175 1    
   107   53  176 1    
   108   53  177 1    
   109   53  178 1    
   110   54   55 am   BACKBONE|DICT|INTERRES
   111   54  179 1    
   112   55   56 2    
   113   55   57 1    
   114   57   58 1    
   115   57   59 1    
   116   57  180 1    
   117   58  181 1    
   118   58  182 1    
   119   58  183 1    
   120   59   60 am   BACKBONE|DICT|INTERRES
   121   59  184 1    
   122   60   61 2    
   123   60   62 1    
   124   62   63 1    
   125   62   64 1    
   126   62  185 1    
   127   63  186 1    
   128   63  187 1    
   129   63  188 1    
   130   64   65 am   BACKBONE|DICT|INTERRES
   131   64  189 1    
   132   65   66 2    
   133   67   68 2    
   134   67   69 am   BACKBONE|DICT|INTERRES
   135   69   70 1    
   136   69  190 1    
   137   70   71 1    
   138   70   72 1    
   139   70  191 1    
   140   71  192 1    
   141   71  193 1    
   142   71  194 1    
   143   72   73 2    
   144   72   74 am   BACKBONE|DICT|INTERRES
   145   74   75 1    
   146   74  195 1    
   147   75   76 1    
   148   75   77 1    
   149   75  196 1    
   150   76  197 1    
   151   76  198 1    
   152   76  199 1    
   153   77   78 2    
   154   77   79 am   BACKBONE|DICT|INTERRES
   155   79   80 1    
   156   79  200 1    
   157   80   81 1    
   158   80   82 1    
   159   80  201 1    
   160   81  202 1    
   161   81  203 1    
   162   81  204 1    
   163   82   83 2    
   164   82   84 am   BACKBONE|DICT|INTERRES
   165   84   85 1    
   166   84  205 1    
   167   85   86 1    
   168   85   87 1    
   169   85  206 1    
   170   86  207 1    
   171   86  208 1    
   172   86  209 1    
   173   87   88 2    
   174   87   89 am   BACKBONE|DICT|INTERRES
   175   89   90 1    
   176   89  210 1    
   177   90   91 1    
   178   90   92 1    
   179   90  211 1    
   180   91  212 1    
   181   91  213 1    
   182   91  214 1    
   183   92   93 2    
   184   92   94 am   BACKBONE|DICT|INTERRES
   185   94   95 1    
   186   94  215 1    
   187   95   96 1    
   188   95   97 1    
   189   95  216 1    
   190   96  217 1    
   191   96  218 1    
   192   96  219 1    
   193   97   98 2    
   194   97   99 am   BACKBONE|DICT|INTERRES
   195   99  100 1    
   196   99  220 1    
   197  100  101 1    
   198  100  102 1    
   199  100  221 1    
   200  101  222 1    
   201  101  223 1    
   202  101  224 1    
   203  102  103 2    
   204  102  104 am   BACKBONE|DICT|INTERRES
   205  104  105 1    
   206  104  225 1    
   207  105  106 1    
   208  105  107 1    
   209  105  226 1    
   210  106  227 1    
   211  106  228 1    
   212  106  229 1    
   213  107  108 2    
   214  107  109 am   BACKBONE|DICT|INTERRES
   215  109  110 1    
   216  109  230 1    
   217  110  111 1    
   218  110  112 1    
   219  110  231 1    
   220  111  232 1    
   221  111  233 1    
   222  111  234 1    
   223  112  113 2    
   224  112  114 am   BACKBONE|DICT|INTERRES
   225  114  115 1    
   226  114  235 1    
   227  115  116 1    
   228  115  117 1    
   229  115  236 1    
   230  116  237 1    
   231  116  238 1    
   232  116  239 1    
   233  117  118 2    
   234  117  119 am   BACKBONE|DICT|INTERRES
   235  119  120 1    
   236  119  240 1    
   237  120  121 1    
   238  120  124 1    
   239  120  241 1    
   240  121  122 am   BACKBONE|DICT|INTERRES
   241  121  123 2    
   242  122  242 1    
   243  122  243 1    
   244  124  125 1    
   245  124  244 1    
   246  124  245 1    
   247  125  126 1    
   248  126  246 1    
   249  126  247 1    
@<TRIPOS>SUBSTRUCTURE
     1 UNK         1 GROUP             0       ****    0 ROOT    
