@<TRIPOS>MOLECULE
3R540
247   249    1
SMALL
USER_CHARGES


@<TRIPOS>ATOM
      1 CA         -0.9142  -16.3400  -48.2852 C.3       0 UNK        -0.1800 
      2 C          -0.5226  -14.8688  -48.2723 C.2       0 UNK         0.5000 
      3 O          -1.0159  -14.0995  -47.4478 O.2       0 UNK        -0.5000 
      4 N           0.3826  -14.4750  -49.1759 N.am      1 UNK        -0.5000 
      5 CA          0.8325  -13.0939  -49.3930 C.3       1 UNK         0.1400 
      6 C6          1.4941  -12.8803  -50.7803 C.3       23 UNK        -0.0398 
      7 S7          3.0983  -13.6842  -51.1852 S.3       23 UNK        -0.2404 
      8 C8          3.2268  -15.2436  -50.2344 C.3       23 UNK        -0.0205 
      9 C9          2.3715  -16.4212  -50.7154 C.ar      23 UNK        -0.0193 
     10 C10         1.3221  -16.2865  -51.6349 C.ar      23 UNK        -0.1150 
     11 C11         0.5387  -17.3856  -51.9965 C.ar      23 UNK        -0.0193 
     12 C12         0.8230  -18.6414  -51.4550 C.ar      23 UNK        -0.1150 
     13 C13         1.8766  -18.8009  -50.5516 C.ar      23 UNK        -0.0193 
     14 C14         2.6404  -17.6878  -50.1865 C.ar      23 UNK        -0.1150 
     15 C15         2.2034  -20.1769  -49.9852 C.3       23 UNK        -0.0205 
     16 S16         2.0209  -20.2471  -48.1744 S.3       23 UNK        -0.2404 
     17 C17         0.2150  -20.1222  -47.9629 C.3       23 UNK        -0.0398 
     18 CA         -0.3854  -21.3761  -47.2839 C.3       11 UNK         0.1400 
     19 N           0.0239  -21.5394  -45.8835 N.am      11 UNK        -0.5000 
     20 C          -0.2808  -22.6021  -45.1220 C.2       10 UNK         0.5000 
     21 O          -0.8865  -23.5888  -45.5405 O.2       10 UNK        -0.5000 
     22 CA          0.0985  -22.5346  -43.6309 C.3       10 UNK         0.1400 
     23 CB          1.5830  -22.8650  -43.4170 C.3       10 UNK        -0.1800 
     24 N          -0.2182  -21.2387  -43.0297 N.am      10 UNK        -0.5000 
     25 C          -1.4601  -20.7512  -42.8903 C.2       9 UNK         0.5000 
     26 O          -2.4770  -21.3730  -43.1996 O.2       9 UNK        -0.5000 
     27 CA         -1.5848  -19.3030  -42.3774 C.3       9 UNK         0.1400 
     28 CB         -1.4555  -19.2399  -40.8486 C.3       9 UNK        -0.1800 
     29 N          -0.6060  -18.4082  -42.9976 N.am      9 UNK        -0.5000 
     30 C          -0.5630  -18.1439  -44.3108 C.2       8 UNK         0.5000 
     31 O          -1.3861  -18.5647  -45.1217 O.2       8 UNK        -0.5000 
     32 CA          0.6266  -17.3193  -44.8212 C.3       8 UNK         0.1400 
     33 CB          0.3338  -15.8198  -44.7255 C.3       8 UNK        -0.1800 
     34 N           1.8770  -17.6403  -44.1342 N.am      8 UNK        -0.5000 
     35 C           2.5071  -18.8180  -44.2488 C.2       7 UNK         0.5000 
     36 O           2.1038  -19.7380  -44.9559 O.2       7 UNK        -0.5000 
     37 CA          3.7612  -19.0232  -43.3817 C.3       7 UNK         0.1400 
     38 CB          4.9684  -18.2956  -43.9927 C.3       7 UNK        -0.1800 
     39 N           3.5614  -18.5667  -42.0072 N.am      7 UNK        -0.5000 
     40 C           2.6667  -19.0841  -41.1522 C.2       6 UNK         0.5000 
     41 O           1.9688  -20.0658  -41.4044 O.2       6 UNK        -0.5000 
     42 CA          2.4845  -18.3432  -39.8126 C.3       6 UNK         0.1400 
     43 CB          3.4055  -18.9383  -38.7375 C.3       6 UNK        -0.1800 
     44 N           2.7275  -16.9001  -39.9169 N.am      6 UNK        -0.5000 
     45 C           2.0054  -16.0611  -40.6719 C.2       5 UNK         0.5000 
     46 O           1.0376  -16.4161  -41.3492 O.2       5 UNK        -0.5000 
     47 CA          2.5188  -14.6104  -40.7490 C.3       5 UNK         0.1400 
     48 CB          3.5870  -14.5005  -41.8461 C.3       5 UNK        -0.1800 
     49 N           1.4638  -13.6366  -41.0294 N.am      5 UNK        -0.5000 
     50 C           0.4384  -13.3614  -40.2117 C.2       4 UNK         0.5000 
     51 O           0.2808  -13.8986  -39.1138 O.2       4 UNK        -0.5000 
     52 CA         -0.5636  -12.2804  -40.6636 C.3       4 UNK         0.1400 
     53 CB         -0.4060  -11.0113  -39.8104 C.3       4 UNK        -0.1800 
     54 N          -0.4404  -11.9070  -42.0737 N.am      4 UNK        -0.5000 
     55 C          -0.9253  -12.6140  -43.1017 C.2       3 UNK         0.5000 
     56 O          -1.5037  -13.6926  -42.9732 O.2       3 UNK        -0.5000 
     57 CA         -0.7796  -11.9958  -44.5065 C.3       3 UNK         0.1400 
     58 CB         -0.7851  -10.4510  -44.5005 C.3       3 UNK        -0.1800 
     59 N           0.3748  -12.4962  -45.2559 N.am      3 UNK        -0.5000 
     60 C           1.6770  -12.4141  -44.9353 C.2       2 UNK         0.5000 
     61 O           2.0849  -12.0038  -43.8479 O.2       2 UNK        -0.5000 
     62 CA          2.7037  -12.8386  -46.0149 C.3       2 UNK         0.1400 
     63 CB          3.6710  -13.9252  -45.5154 C.3       2 UNK        -0.1800 
     64 N           2.0767  -13.2874  -47.2627 N.am      2 UNK        -0.5000 
     65 C           1.6473  -12.4706  -48.2358 C.2       1 UNK         0.5000 
     66 O           1.8327  -11.2530  -48.2241 O.2       1 UNK        -0.5000 
     67 C          -1.9178  -21.3791  -47.4315 C.2       11 UNK         0.5000 
     68 O          -2.4271  -22.0919  -48.2927 O.2       11 UNK        -0.5000 
     69 N          -2.6283  -20.6256  -46.5814 N.am      12 UNK        -0.5000 
     70 CA         -4.0903  -20.5640  -46.5529 C.3       12 UNK         0.1400 
     71 CB         -4.5474  -19.4914  -45.5534 C.3       12 UNK        -0.1800 
     72 C          -4.7392  -21.9244  -46.2401 C.2       12 UNK         0.5000 
     73 O          -5.6802  -22.3152  -46.9312 O.2       12 UNK        -0.5000 
     74 N          -4.1914  -22.6457  -45.2510 N.am      13 UNK        -0.5000 
     75 CA         -4.6107  -23.9994  -44.8761 C.3       13 UNK         0.1400 
     76 CB         -3.8800  -24.4233  -43.5932 C.3       13 UNK        -0.1800 
     77 C          -4.3918  -25.0365  -45.9962 C.2       13 UNK         0.5000 
     78 O          -5.2221  -25.9287  -46.1706 O.2       13 UNK        -0.5000 
     79 N          -3.2995  -24.8791  -46.7548 N.am      14 UNK        -0.5000 
     80 CA         -2.9558  -25.6936  -47.9220 C.3       14 UNK         0.1400 
     81 CB         -1.4310  -25.6426  -48.1151 C.3       14 UNK        -0.1800 
     82 C          -3.6743  -25.2541  -49.2159 C.2       14 UNK         0.5000 
     83 O          -3.4477  -25.8672  -50.2606 O.2       14 UNK        -0.5000 
     84 N          -4.4736  -24.1779  -49.1549 N.am      15 UNK        -0.5000 
     85 CA         -5.1507  -23.5107  -50.2723 C.3       15 UNK         0.1400 
     86 CB         -6.2776  -24.3974  -50.8398 C.3       15 UNK        -0.1800 
     87 C          -4.1650  -23.0291  -51.3576 C.2       15 UNK         0.5000 
     88 O          -4.4375  -23.1762  -52.5499 O.2       15 UNK        -0.5000 
     89 N          -3.0321  -22.4672  -50.9148 N.am      16 UNK        -0.5000 
     90 CA         -1.8716  -22.0306  -51.6980 C.3       16 UNK         0.1400 
     91 CB         -2.2445  -20.8779  -52.6503 C.3       16 UNK        -0.1800 
     92 C          -1.1496  -23.2023  -52.3942 C.2       16 UNK         0.5000 
     93 O          -0.6227  -23.0366  -53.4933 O.2       16 UNK        -0.5000 
     94 N          -1.1485  -24.3667  -51.7266 N.am      17 UNK        -0.5000 
     95 CA         -0.6985  -25.6735  -52.2168 C.3       17 UNK         0.1400 
     96 CB          0.8141  -25.6762  -52.5239 C.3       17 UNK        -0.1800 
     97 C          -1.5755  -26.1507  -53.3913 C.2       17 UNK         0.5000 
     98 O          -1.0609  -26.5030  -54.4542 O.2       17 UNK        -0.5000 
     99 N          -2.8969  -26.1254  -53.1577 N.am      18 UNK        -0.5000 
    100 CA        -3.9769  -26.4361  -54.0988 C.3       18 UNK         0.1400 
    101 CB        -3.9863  -27.9412  -54.4380 C.3       18 UNK        -0.1800 
    102 C         -3.9550  -25.5282  -55.3479 C.2       18 UNK         0.5000 
    103 O         -3.9826  -26.0197  -56.4781 O.2       18 UNK        -0.5000 
    104 N         -3.9091  -24.2123  -55.1116 N.am      19 UNK        -0.5000 
    105 CA        -3.9063  -23.1623  -56.1299 C.3       19 UNK         0.1400 
    106 CB        -2.4836  -22.6036  -56.3048 C.3       19 UNK        -0.1800 
    107 C         -4.9439  -22.0822  -55.7757 C.2       19 UNK         0.5000 
    108 O         -4.6716  -20.8875  -55.9081 O.2       19 UNK        -0.5000 
    109 N         -6.1220  -22.5379  -55.3224 N.am      20 UNK        -0.5000 
    110 CA        -7.3386  -21.7623  -55.0534 C.3       20 UNK         0.1400 
    111 CB        -7.9527  -21.2713  -56.3813 C.3       20 UNK        -0.1800 
    112 C         -7.1567  -20.6218  -54.0291 C.2       20 UNK         0.5000 
    113 O         -7.7818  -19.5687  -54.1704 O.2       20 UNK        -0.5000 
    114 N         -6.2916  -20.8420  -53.0261 N.am      21 UNK        -0.5000 
    115 CA        -5.9668  -19.9123  -51.9335 C.3       21 UNK         0.1400 
    116 CB        -7.1464  -19.8109  -50.9453 C.3       21 UNK        -0.1800 
    117 C         -5.4697  -18.5394  -52.4353 C.2       21 UNK         0.5000 
    118 O         -5.8670  -17.4999  -51.9069 O.2       21 UNK        -0.5000 
    119 N         -4.6211  -18.5851  -53.4699 N.am      22 UNK        -0.5000 
    120 CA        -4.0427  -17.4456  -54.2012 C.3       22 UNK         0.1400 
    121 C         -5.0226  -16.7680  -55.2078 C.2       22 UNK         0.5000 
    122 N         -6.2422  -17.2577  -55.4020 N.am      22 UNK        -0.7600 
    123 O         -4.6602  -15.7876  -55.8527 O.2       22 UNK        -0.5000 
    124 C124       -3.3179  -16.3916  -53.3092 C.3       23 UNK        -0.0398 
    125 S125       -2.1900  -17.0768  -52.0447 S.3       23 UNK        -0.2404 
    126 C126       -0.6249  -17.2064  -52.9591 C.3       23 UNK        -0.0205 
    127 H127       -0.1196  -16.9614  -48.6992 H         1 UNK         0.0600 
    128 H128       -1.8094  -16.4819  -48.8903 H         1 UNK         0.0600 
    129 H129       -1.1304  -16.6897  -47.2766 H         1 UNK         0.0600 
    130 H130        0.7574  -15.1584  -49.8208 H         1 UNK         0.3000 
    131 H131       -0.0840  -12.4997  -49.4185 H         1 UNK         0.0600 
    132 H132        0.7802  -13.1664  -51.5528 H         1 UNK         0.0800 
    133 H133        1.6387  -11.8104  -50.9404 H         1 UNK         0.0800 
    134 H134        4.2719  -15.5517  -50.2915 H         1 UNK         0.0800 
    135 H135        3.0412  -15.0574  -49.1781 H         1 UNK         0.0800 
    136 H136        1.0917  -15.3291  -52.0737 H         1 UNK         0.1150 
    137 H137        0.2210  -19.4923  -51.7372 H         1 UNK         0.1150 
    138 H138        3.4491  -17.8119  -49.4794 H         1 UNK         0.1150 
    139 H139        1.5825  -20.9499  -50.4408 H         1 UNK         0.0800 
    140 H140        3.2345  -20.4237  -50.2415 H         1 UNK         0.0800 
    141 H141       -0.2403  -19.9584  -48.9413 H         1 UNK         0.0800 
    142 H142       -0.0036  -19.2282  -47.3797 H         1 UNK         0.0800 
    143 H143       -0.0204  -22.2522  -47.8243 H         1 UNK         0.0600 
    144 H144        0.5937  -20.7970  -45.4863 H         1 UNK         0.3000 
    145 H145       -0.4897  -23.2917  -43.1081 H         1 UNK         0.0600 
    146 H146        1.8246  -23.8486  -43.8216 H         1 UNK         0.0600 
    147 H147        2.2359  -22.1416  -43.9043 H         1 UNK         0.0600 
    148 H148        1.8340  -22.8782  -42.3562 H         1 UNK         0.0600 
    149 H149        0.5665  -20.6801  -42.7094 H         1 UNK         0.3000 
    150 H150       -2.5789  -18.9400  -42.6463 H         1 UNK         0.0600 
    151 H151       -1.5496  -18.2161  -40.4856 H         1 UNK         0.0600 
    152 H152       -0.4983  -19.6306  -40.5056 H         1 UNK         0.0600 
    153 H153       -2.2380  -19.8296  -40.3697 H         1 UNK         0.0600 
    154 H154        0.0809  -17.9733  -42.3918 H         1 UNK         0.3000 
    155 H155        0.7553  -17.5621  -45.8775 H         1 UNK         0.0600 
    156 H156       -0.6948  -15.5935  -45.0105 H         1 UNK         0.0600 
    157 H157        0.9737  -15.2659  -45.4050 H         1 UNK         0.0600 
    158 H158        0.4845  -15.4328  -43.7185 H         1 UNK         0.0600 
    159 H159        2.2176  -16.9647  -43.4674 H         1 UNK         0.3000 
    160 H160        3.9799  -20.0929  -43.3557 H         1 UNK         0.0600 
    161 H161        5.1433  -18.6253  -45.0178 H         1 UNK         0.0600 
    162 H162        5.8783  -18.4988  -43.4276 H         1 UNK         0.0600 
    163 H163        4.8221  -17.2148  -44.0162 H         1 UNK         0.0600 
    164 H164        4.1024  -17.7697  -41.7081 H         1 UNK         0.3000 
    165 H165        1.4500  -18.4858  -39.4942 H         1 UNK         0.0600 
    166 H166        3.2288  -18.4757  -37.7663 H         1 UNK         0.0600 
    167 H167        3.2297  -20.0088  -38.6227 H         1 UNK         0.0600 
    168 H168        4.4584  -18.8035  -38.9884 H         1 UNK         0.0600 
    169 H169        3.5141  -16.5392  -39.3961 H         1 UNK         0.3000 
    170 H170        2.9699  -14.3471  -39.7901 H         1 UNK         0.0600 
    171 H171        3.9664  -13.4818  -41.9312 H         1 UNK         0.0600 
    172 H172        4.4396  -15.1475  -41.6368 H         1 UNK         0.0600 
    173 H173        3.1834  -14.7906  -42.8155 H         1 UNK         0.0600 
    174 H174        1.5161  -13.1475  -41.9139 H         1 UNK         0.3000 
    175 H175       -1.5663  -12.6792  -40.4954 H         1 UNK         0.0600 
    176 H176        0.5796  -10.5616  -39.9375 H         1 UNK         0.0600 
    177 H177       -1.1538  -10.2630  -40.0740 H         1 UNK         0.0600 
    178 H178       -0.5315  -11.2328  -38.7498 H         1 UNK         0.0600 
    179 H179        0.0567  -11.0510  -42.2744 H         1 UNK         0.3000 
    180 H180       -1.6594  -12.3164  -45.0670 H         1 UNK         0.0600 
    181 H181       -0.8448  -10.0610  -45.5167 H         1 UNK         0.0600 
    182 H182        0.1113  -10.0324  -44.0422 H         1 UNK         0.0600 
    183 H183       -1.6478  -10.0635  -43.9568 H         1 UNK         0.0600 
    184 H184        0.1343  -12.9251  -46.1426 H         1 UNK         0.3000 
    185 H185        3.3052  -11.9523  -46.2269 H         1 UNK         0.0600 
    186 H186        3.1624  -14.8505  -45.2510 H         1 UNK         0.0600 
    187 H187        4.4148  -14.1636  -46.2759 H         1 UNK         0.0600 
    188 H188        4.2168  -13.5831  -44.6357 H         1 UNK         0.0600 
    189 H189        1.8685  -14.2712  -47.3405 H         1 UNK         0.3000 
    190 H190       -2.1370  -20.0238  -45.9229 H         1 UNK         0.3000 
    191 H191       -4.4248  -20.2612  -47.5473 H         1 UNK         0.0600 
    192 H192       -4.2118  -19.7143  -44.5405 H         1 UNK         0.0600 
    193 H193       -5.6351  -19.4156  -45.5310 H         1 UNK         0.0600 
    194 H194       -4.1581  -18.5099  -45.8249 H         1 UNK         0.0600 
    195 H195       -3.4391  -22.2353  -44.7049 H         1 UNK         0.3000 
    196 H196       -5.6810  -23.9671  -44.6621 H         1 UNK         0.0600 
    197 H197       -4.1913  -25.4194  -43.2762 H         1 UNK         0.0600 
    198 H198       -4.0952  -23.7384  -42.7728 H         1 UNK         0.0600 
    199 H199       -2.7991  -24.4455  -43.7344 H         1 UNK         0.0600 
    200 H200       -2.6382  -24.1507  -46.5052 H         1 UNK         0.3000 
    201 H201       -3.2399  -26.7299  -47.7288 H         1 UNK         0.0600 
    202 H202       -0.9100  -25.9724  -47.2161 H         1 UNK         0.0600 
    203 H203       -1.0883  -24.6333  -48.3460 H         1 UNK         0.0600 
    204 H204       -1.1123  -26.2956  -48.9280 H         1 UNK         0.0600 
    205 H205       -4.5754  -23.7213  -48.2568 H         1 UNK         0.3000 
    206 H206       -5.6117  -22.6128  -49.8588 H         1 UNK         0.0600 
    207 H207       -6.8597  -23.8591  -51.5887 H         1 UNK         0.0600 
    208 H208       -5.8869  -25.2980  -51.3141 H         1 UNK         0.0600 
    209 H209       -6.9675  -24.7052  -50.0542 H         1 UNK         0.0600 
    210 H210       -2.9110  -22.3867  -49.9033 H         1 UNK         0.3000 
    211 H211       -1.1548  -21.6336  -50.9778 H         1 UNK         0.0600 
    212 H212       -2.9924  -21.1750  -53.3837 H         1 UNK         0.0600 
    213 H213       -1.3754  -20.5189  -53.2019 H         1 UNK         0.0600 
    214 H214       -2.6388  -20.0334  -52.0879 H         1 UNK         0.0600 
    215 H215       -1.6487  -24.3921  -50.8499 H         1 UNK         0.3000 
    216 H216       -0.8645  -26.3824  -51.4047 H         1 UNK         0.0600 
    217 H217        1.1579  -26.6835  -52.7613 H         1 UNK         0.0600 
    218 H218        1.3904  -25.3299  -51.6661 H         1 UNK         0.0600 
    219 H219        1.0628  -25.0412  -53.3743 H         1 UNK         0.0600 
    220 H220       -3.1975  -25.8517  -52.2265 H         1 UNK         0.3000 
    221 H221       -4.9084  -26.2128  -53.5767 H         1 UNK         0.0600 
    222 H222       -3.0949  -28.2398  -54.9905 H         1 UNK         0.0600 
    223 H223       -4.0389  -28.5476  -53.5338 H         1 UNK         0.0600 
    224 H224       -4.8514  -28.1974  -55.0506 H         1 UNK         0.0600 
    225 H225       -3.9433  -23.8857  -54.1466 H         1 UNK         0.3000 
    226 H226       -4.2222  -23.5747  -57.0900 H         1 UNK         0.0600 
    227 H227       -1.7682  -23.4002  -56.5096 H         1 UNK         0.0600 
    228 H228       -2.4394  -21.9023  -57.1386 H         1 UNK         0.0600 
    229 H229       -2.1474  -22.0737  -55.4151 H         1 UNK         0.0600 
    230 H230       -6.2126  -23.5373  -55.2069 H         1 UNK         0.3000 
    231 H231       -8.0478  -22.4565  -54.6007 H         1 UNK         0.0600 
    232 H232       -7.3182  -20.5296  -56.8681 H         1 UNK         0.0600 
    233 H233       -8.0983  -22.0968  -57.0779 H         1 UNK         0.0600 
    234 H234       -8.9285  -20.8121  -56.2187 H         1 UNK         0.0600 
    235 H235       -5.7805  -21.7187  -53.0309 H         1 UNK         0.3000 
    236 H236       -5.1266  -20.3425  -51.3898 H         1 UNK         0.0600 
    237 H237       -8.0177  -19.3417  -51.4033 H         1 UNK         0.0600 
    238 H238       -7.4457  -20.7956  -50.5865 H         1 UNK         0.0600 
    239 H239       -6.8753  -19.2172  -50.0716 H         1 UNK         0.0600 
    240 H240       -4.4237  -19.4892  -53.8769 H         1 UNK         0.3000 
    241 H241       -3.2766  -17.8965  -54.8326 H         1 UNK         0.0600 
    242 H242       -6.5806  -18.0576  -54.8795 H         1 UNK         0.3800 
    243 H243       -6.8513  -16.8078  -56.0663 H         1 UNK         0.3800 
    244 H244       -2.7564  -15.6937  -53.9320 H         1 UNK         0.0800 
    245 H245       -4.0540  -15.7809  -52.7847 H         1 UNK         0.0800 
    246 H246       -0.4746  -16.3130  -53.5670 H         1 UNK         0.0800 
    247 H247       -0.6756  -18.0486  -53.6505 H         1 UNK         0.0800 
@<TRIPOS>BOND
     1    1    2 1    
     2    1  127 1    
     3    1  128 1    
     4    1  129 1    
     5    2    3 2    
     6    2    4 am   BACKBONE|DICT|INTERRES
     7    4    5 1    
     8    4  130 1    
     9    5    6 1    
    10    5   65 1    
    11    5  131 1    
    12    6    7 1    
    13    6  132 1    
    14    6  133 1    
    15    7    8 1    
    16    8    9 1    
    17    8  134 1    
    18    8  135 1    
    19    9   10 ar   
    20    9   14 ar   
    21   10   11 ar   
    22   10  136 1    
    23   11   12 ar   
    24   11  126 1    
    25   12   13 ar   
    26   12  137 1    
    27   13   14 ar   
    28   13   15 1    
    29   14  138 1    
    30   15   16 1    
    31   15  139 1    
    32   15  140 1    
    33   16   17 1    
    34   17   18 1    
    35   17  141 1    
    36   17  142 1    
    37   18   19 1    
    38   18   67 1    
    39   18  143 1    
    40   19   20 am   BACKBONE|DICT|INTERRES
    41   19  144 1    
    42   20   21 2    
    43   20   22 1    
    44   22   23 1    
    45   22   24 1    
    46   22  145 1    
    47   23  146 1    
    48   23  147 1    
    49   23  148 1    
    50   24   25 am   BACKBONE|DICT|INTERRES
    51   24  149 1    
    52   25   26 2    
    53   25   27 1    
    54   27   28 1    
    55   27   29 1    
    56   27  150 1    
    57   28  151 1    
    58   28  152 1    
    59   28  153 1    
    60   29   30 am   BACKBONE|DICT|INTERRES
    61   29  154 1    
    62   30   31 2    
    63   30   32 1    
    64   32   33 1    
    65   32   34 1    
    66   32  155 1    
    67   33  156 1    
    68   33  157 1    
    69   33  158 1    
    70   34   35 am   BACKBONE|DICT|INTERRES
    71   34  159 1    
    72   35   36 2    
    73   35   37 1    
    74   37   38 1    
    75   37   39 1    
    76   37  160 1    
    77   38  161 1    
    78   38  162 1    
    79   38  163 1    
    80   39   40 am   BACKBONE|DICT|INTERRES
    81   39  164 1    
    82   40   41 2    
    83   40   42 1    
    84   42   43 1    
    85   42   44 1    
    86   42  165 1    
    87   43  166 1    
    88   43  167 1    
    89   43  168 1    
    90   44   45 am   BACKBONE|DICT|INTERRES
    91   44  169 1    
    92   45   46 2    
    93   45   47 1    
    94   47   48 1    
    95   47   49 1    
    96   47  170 1    
    97   48  171 1    
    98   48  172 1    
    99   48  173 1    
   100   49   50 am   BACKBONE|DICT|INTERRES
   101   49  174 1    
   102   50   51 2    
   103   50   52 1    
   104   52   53 1    
   105   52   54 1    
   106   52  175 1    
   107   53  176 1    
   108   53  177 1    
   109   53  178 1    
   110   54   55 am   BACKBONE|DICT|INTERRES
   111   54  179 1    
   112   55   56 2    
   113   55   57 1    
   114   57   58 1    
   115   57   59 1    
   116   57  180 1    
   117   58  181 1    
   118   58  182 1    
   119   58  183 1    
   120   59   60 am   BACKBONE|DICT|INTERRES
   121   59  184 1    
   122   60   61 2    
   123   60   62 1    
   124   62   63 1    
   125   62   64 1    
   126   62  185 1    
   127   63  186 1    
   128   63  187 1    
   129   63  188 1    
   130   64   65 am   BACKBONE|DICT|INTERRES
   131   64  189 1    
   132   65   66 2    
   133   67   68 2    
   134   67   69 am   BACKBONE|DICT|INTERRES
   135   69   70 1    
   136   69  190 1    
   137   70   71 1    
   138   70   72 1    
   139   70  191 1    
   140   71  192 1    
   141   71  193 1    
   142   71  194 1    
   143   72   73 2    
   144   72   74 am   BACKBONE|DICT|INTERRES
   145   74   75 1    
   146   74  195 1    
   147   75   76 1    
   148   75   77 1    
   149   75  196 1    
   150   76  197 1    
   151   76  198 1    
   152   76  199 1    
   153   77   78 2    
   154   77   79 am   BACKBONE|DICT|INTERRES
   155   79   80 1    
   156   79  200 1    
   157   80   81 1    
   158   80   82 1    
   159   80  201 1    
   160   81  202 1    
   161   81  203 1    
   162   81  204 1    
   163   82   83 2    
   164   82   84 am   BACKBONE|DICT|INTERRES
   165   84   85 1    
   166   84  205 1    
   167   85   86 1    
   168   85   87 1    
   169   85  206 1    
   170   86  207 1    
   171   86  208 1    
   172   86  209 1    
   173   87   88 2    
   174   87   89 am   BACKBONE|DICT|INTERRES
   175   89   90 1    
   176   89  210 1    
   177   90   91 1    
   178   90   92 1    
   179   90  211 1    
   180   91  212 1    
   181   91  213 1    
   182   91  214 1    
   183   92   93 2    
   184   92   94 am   BACKBONE|DICT|INTERRES
   185   94   95 1    
   186   94  215 1    
   187   95   96 1    
   188   95   97 1    
   189   95  216 1    
   190   96  217 1    
   191   96  218 1    
   192   96  219 1    
   193   97   98 2    
   194   97   99 am   BACKBONE|DICT|INTERRES
   195   99  100 1    
   196   99  220 1    
   197  100  101 1    
   198  100  102 1    
   199  100  221 1    
   200  101  222 1    
   201  101  223 1    
   202  101  224 1    
   203  102  103 2    
   204  102  104 am   BACKBONE|DICT|INTERRES
   205  104  105 1    
   206  104  225 1    
   207  105  106 1    
   208  105  107 1    
   209  105  226 1    
   210  106  227 1    
   211  106  228 1    
   212  106  229 1    
   213  107  108 2    
   214  107  109 am   BACKBONE|DICT|INTERRES
   215  109  110 1    
   216  109  230 1    
   217  110  111 1    
   218  110  112 1    
   219  110  231 1    
   220  111  232 1    
   221  111  233 1    
   222  111  234 1    
   223  112  113 2    
   224  112  114 am   BACKBONE|DICT|INTERRES
   225  114  115 1    
   226  114  235 1    
   227  115  116 1    
   228  115  117 1    
   229  115  236 1    
   230  116  237 1    
   231  116  238 1    
   232  116  239 1    
   233  117  118 2    
   234  117  119 am   BACKBONE|DICT|INTERRES
   235  119  120 1    
   236  119  240 1    
   237  120  121 1    
   238  120  124 1    
   239  120  241 1    
   240  121  122 am   BACKBONE|DICT|INTERRES
   241  121  123 2    
   242  122  242 1    
   243  122  243 1    
   244  124  125 1    
   245  124  244 1    
   246  124  245 1    
   247  125  126 1    
   248  126  246 1    
   249  126  247 1    
@<TRIPOS>SUBSTRUCTURE
     1 UNK         1 GROUP             0       ****    0 ROOT    
