@<TRIPOS>MOLECULE
3R540
247   249    1
SMALL
USER_CHARGES


@<TRIPOS>ATOM
      1 CA          6.1902  -15.2712  -43.6038 C.3       0 UNK        -0.1800 
      2 C           5.0019  -14.3920  -43.9605 C.2       0 UNK         0.5000 
      3 O           4.1747  -14.0959  -43.0999 O.2       0 UNK        -0.5000 
      4 N           4.9065  -13.9563  -45.2243 N.am      1 UNK        -0.5000 
      5 CA          3.8419  -13.0653  -45.7081 C.3       1 UNK         0.1400 
      6 C6          3.7626  -13.0169  -47.2532 C.3       23 UNK        -0.0398 
      7 S7          2.8171  -14.4316  -47.9018 S.3       23 UNK        -0.2404 
      8 C8          4.0236  -15.2829  -48.9685 C.3       23 UNK        -0.0205 
      9 C9          3.3501  -16.3414  -49.8350 C.ar      23 UNK        -0.0193 
     10 C10         2.4251  -15.9458  -50.8047 C.ar      23 UNK        -0.1150 
     11 C11         1.8111  -16.8876  -51.6317 C.ar      23 UNK        -0.0193 
     12 C12         2.1313  -18.2402  -51.4927 C.ar      23 UNK        -0.1150 
     13 C13         3.0694  -18.6532  -50.5423 C.ar      23 UNK        -0.0193 
     14 C14         3.6685  -17.6997  -49.7076 C.ar      23 UNK        -0.1150 
     15 C15         3.4910  -20.1169  -50.4814 C.3       23 UNK        -0.0205 
     16 S16         2.7889  -21.0170  -49.0652 S.3       23 UNK        -0.2404 
     17 C17         1.0353  -21.2178  -49.5370 C.3       23 UNK        -0.0398 
     18 CA          0.3002  -22.1889  -48.5770 C.3       11 UNK         0.1400 
     19 N           0.1959  -21.6600  -47.2121 N.am      11 UNK        -0.5000 
     20 C          -0.1876  -22.3641  -46.1391 C.2       10 UNK         0.5000 
     21 O          -0.4701  -23.5594  -46.1798 O.2       10 UNK        -0.5000 
     22 CA         -0.3250  -21.6069  -44.8043 C.3       10 UNK         0.1400 
     23 CB          1.0356  -21.4621  -44.1073 C.3       10 UNK        -0.1800 
     24 N          -0.9560  -20.2949  -44.9580 N.am      10 UNK        -0.5000 
     25 C          -2.2226  -20.1112  -45.3587 C.2       9 UNK         0.5000 
     26 O          -3.0016  -21.0341  -45.5942 O.2       9 UNK        -0.5000 
     27 CA         -2.6844  -18.6598  -45.5877 C.3       9 UNK         0.1400 
     28 CB         -3.0705  -17.9835  -44.2641 C.3       9 UNK        -0.1800 
     29 N          -1.6758  -17.8554  -46.2749 N.am      9 UNK        -0.5000 
     30 C          -1.2290  -18.0985  -47.5158 C.2       8 UNK         0.5000 
     31 O          -1.6711  -18.9861  -48.2466 O.2       8 UNK        -0.5000 
     32 CA         -0.0430  -17.2412  -47.9883 C.3       8 UNK         0.1400 
     33 CB         -0.5349  -15.8721  -48.4805 C.3       8 UNK        -0.1800 
     34 N           0.9693  -17.0729  -46.9397 N.am      8 UNK        -0.5000 
     35 C           1.6650  -18.0862  -46.4040 C.2       7 UNK         0.5000 
     36 O           1.5275  -19.2531  -46.7518 O.2       7 UNK        -0.5000 
     37 CA          2.6196  -17.7774  -45.2390 C.3       7 UNK         0.1400 
     38 CB          4.0107  -17.3766  -45.7416 C.3       7 UNK        -0.1800 
     39 N           2.0842  -16.7724  -44.3202 N.am      7 UNK        -0.5000 
     40 C           1.0317  -17.0034  -43.5221 C.2       6 UNK         0.5000 
     41 O           0.4453  -18.0848  -43.4644 O.2       6 UNK        -0.5000 
     42 CA          0.5217  -15.8220  -42.6785 C.3       6 UNK         0.1400 
     43 CB          1.3323  -15.6978  -41.3805 C.3       6 UNK        -0.1800 
     44 N           0.5262  -14.5433  -43.3957 N.am      6 UNK        -0.5000 
     45 C          -0.1836  -14.2948  -44.5073 C.2       5 UNK         0.5000 
     46 O          -0.8801  -15.1466  -45.0629 O.2       5 UNK        -0.5000 
     47 CA         -0.0791  -12.8770  -45.1136 C.3       5 UNK         0.1400 
     48 CB         -1.3291  -12.4823  -45.9286 C.3       5 UNK        -0.1800 
     49 N           0.2648  -11.8292  -44.1422 N.am      5 UNK        -0.5000 
     50 C          -0.4869  -11.4093  -43.1128 C.2       4 UNK         0.5000 
     51 O          -1.5708  -11.9088  -42.8053 O.2       4 UNK        -0.5000 
     52 CA          0.0800  -10.2239  -42.3016 C.3       4 UNK         0.1400 
     53 CB         -0.8116   -9.8290  -41.1053 C.3       4 UNK        -0.1800 
     54 N           1.4633  -10.4299  -41.8592 N.am      4 UNK        -0.5000 
     55 C           1.9340  -11.4211  -41.0884 C.2       3 UNK         0.5000 
     56 O           1.2421  -12.3519  -40.6765 O.2       3 UNK        -0.5000 
     57 CA          3.4344  -11.3546  -40.7329 C.3       3 UNK         0.1400 
     58 CB          3.9250  -12.5999  -39.9717 C.3       3 UNK        -0.1800 
     59 N           4.2504  -11.1786  -41.9340 N.am      3 UNK        -0.5000 
     60 C           4.5563  -10.0002  -42.4971 C.2       2 UNK         0.5000 
     61 O           4.2119   -8.9164  -42.0252 O.2       2 UNK        -0.5000 
     62 CA          5.3261  -10.0305  -43.8340 C.3       2 UNK         0.1400 
     63 CB          6.8331   -9.8618  -43.5900 C.3       2 UNK        -0.1800 
     64 N           5.1018  -11.2552  -44.6045 N.am      2 UNK        -0.5000 
     65 C           3.9187  -11.6486  -45.0987 C.2       1 UNK         0.5000 
     66 O           2.8931  -10.9686  -45.0341 O.2       1 UNK        -0.5000 
     67 C          -1.0742  -22.6182  -49.1359 C.2       11 UNK         0.5000 
     68 O          -1.1574  -23.6552  -49.7949 O.2       11 UNK        -0.5000 
     69 N          -2.1344  -21.8573  -48.8251 N.am      12 UNK        -0.5000 
     70 CA         -3.5203  -22.2197  -49.1291 C.3       12 UNK         0.1400 
     71 CB         -4.4374  -21.0117  -48.8916 C.3       12 UNK        -0.1800 
     72 C          -3.9964  -23.4404  -48.3182 C.2       12 UNK         0.5000 
     73 O          -4.6048  -24.3471  -48.8874 O.2       12 UNK        -0.5000 
     74 N          -3.6840  -23.4662  -47.0142 N.am      13 UNK        -0.5000 
     75 CA         -4.0039  -24.5673  -46.1014 C.3       13 UNK         0.1400 
     76 CB         -3.6925  -24.1539  -44.6560 C.3       13 UNK        -0.1800 
     77 C          -3.2850  -25.8810  -46.4602 C.2       13 UNK         0.5000 
     78 O          -3.8921  -26.9469  -46.3626 O.2       13 UNK        -0.5000 
     79 N          -2.0308  -25.7871  -46.9231 N.am      14 UNK        -0.5000 
     80 CA         -1.2378  -26.9050  -47.4442 C.3       14 UNK         0.1400 
     81 CB          0.2033  -26.4351  -47.6924 C.3       14 UNK        -0.1800 
     82 C          -1.8326  -27.5248  -48.7247 C.2       14 UNK         0.5000 
     83 O          -1.6584  -28.7208  -48.9584 O.2       14 UNK        -0.5000 
     84 N          -2.5604  -26.7123  -49.5017 N.am      15 UNK        -0.5000 
     85 CA         -3.3482  -27.1248  -50.6629 C.3       15 UNK         0.1400 
     86 CB         -3.3189  -25.9919  -51.7022 C.3       15 UNK        -0.1800 
     87 C          -4.7982  -27.5022  -50.2867 C.2       15 UNK         0.5000 
     88 O          -5.6360  -27.6293  -51.1803 O.2       15 UNK        -0.5000 
     89 N          -5.0915  -27.6369  -48.9825 N.am      16 UNK        -0.5000 
     90 CA         -6.3857  -27.9839  -48.3800 C.3       16 UNK         0.1400 
     91 CB         -6.7652  -29.4378  -48.7304 C.3       16 UNK        -0.1800 
     92 C          -7.5157  -26.9841  -48.7081 C.2       16 UNK         0.5000 
     93 O          -8.6892  -27.3582  -48.6790 O.2       16 UNK        -0.5000 
     94 N          -7.1388  -25.7413  -49.0473 N.am      17 UNK        -0.5000 
     95 CA         -7.9805  -24.6589  -49.5658 C.3       17 UNK         0.1400 
     96 CB         -8.9893  -24.1848  -48.4996 C.3       17 UNK        -0.1800 
     97 C          -8.6494  -24.9758  -50.9242 C.2       17 UNK         0.5000 
     98 O          -9.5807  -24.2709  -51.3171 O.2       17 UNK        -0.5000 
     99 N          -8.1633  -26.0068  -51.6352 N.am      18 UNK        -0.5000 
    100 CA        -8.6020  -26.3538  -52.9889 C.3       18 UNK         0.1400 
    101 CB        -8.2431  -27.8172  -53.2875 C.3       18 UNK        -0.1800 
    102 C         -7.9821  -25.4136  -54.0379 C.2       18 UNK         0.5000 
    103 O         -8.6050  -25.1551  -55.0686 O.2       18 UNK        -0.5000 
    104 N         -6.7849  -24.8980  -53.7342 N.am      19 UNK        -0.5000 
    105 CA        -6.1419  -23.7946  -54.4366 C.3       19 UNK         0.1400 
    106 CB        -4.6516  -24.1193  -54.6271 C.3       19 UNK        -0.1800 
    107 C         -6.3074  -22.5141  -53.6024 C.2       19 UNK         0.5000 
    108 O         -6.4770  -22.5877  -52.3824 O.2       19 UNK        -0.5000 
    109 N         -6.2245  -21.3672  -54.2855 N.am      20 UNK        -0.5000 
    110 CA        -6.3107  -20.0188  -53.7232 C.3       20 UNK         0.1400 
    111 CB        -6.1821  -18.9852  -54.8520 C.3       20 UNK        -0.1800 
    112 C         -5.3647  -19.6953  -52.5388 C.2       20 UNK         0.5000 
    113 O         -5.8506  -19.1300  -51.5616 O.2       20 UNK        -0.5000 
    114 N         -4.0601  -20.0204  -52.5470 N.am      21 UNK        -0.5000 
    115 CA        -3.2125  -20.5369  -53.6285 C.3       21 UNK         0.1400 
    116 CB        -2.1275  -21.4226  -52.9928 C.3       21 UNK        -0.1800 
    117 C         -2.5654  -19.4209  -54.4729 C.2       21 UNK         0.5000 
    118 O         -1.9627  -19.7210  -55.5033 O.2       21 UNK        -0.5000 
    119 N         -2.6885  -18.1648  -54.0279 N.am      22 UNK        -0.5000 
    120 CA        -2.0195  -16.9912  -54.6164 C.3       22 UNK         0.1400 
    121 C         -2.6985  -16.3992  -55.8862 C.2       22 UNK         0.5000 
    122 N         -3.8650  -16.8715  -56.3042 N.am      22 UNK        -0.7600 
    123 O         -2.1492  -15.4969  -56.5124 O.2       22 UNK        -0.5000 
    124 C124       -1.7715  -15.8888  -53.5552 C.3       23 UNK        -0.0398 
    125 S125       -0.8797  -16.5065  -52.0881 S.3       23 UNK        -0.2404 
    126 C126        0.8289  -16.4364  -52.6971 C.3       23 UNK        -0.0205 
    127 H127        6.7392  -15.5879  -44.4908 H         1 UNK         0.0600 
    128 H128        6.8739  -14.7277  -42.9519 H         1 UNK         0.0600 
    129 H129        5.8524  -16.1625  -43.0753 H         1 UNK         0.0600 
    130 H130        5.6084  -14.2232  -45.8999 H         1 UNK         0.3000 
    131 H131        2.9036  -13.4769  -45.3342 H         1 UNK         0.0600 
    132 H132        4.7571  -12.9742  -47.6995 H         1 UNK         0.0800 
    133 H133        3.2407  -12.1218  -47.5978 H         1 UNK         0.0800 
    134 H134        4.8099  -15.7231  -48.3544 H         1 UNK         0.0800 
    135 H135        4.5079  -14.5546  -49.6204 H         1 UNK         0.0800 
    136 H136        2.1827  -14.8979  -50.9138 H         1 UNK         0.1150 
    137 H137        1.6680  -18.9677  -52.1445 H         1 UNK         0.1150 
    138 H138        4.3992  -18.0163  -48.9773 H         1 UNK         0.1150 
    139 H139        3.2273  -20.6352  -51.4046 H         1 UNK         0.0800 
    140 H140        4.5786  -20.1653  -50.4134 H         1 UNK         0.0800 
    141 H141        1.0024  -21.5915  -50.5620 H         1 UNK         0.0800 
    142 H142        0.5526  -20.2391  -49.5443 H         1 UNK         0.0800 
    143 H143        0.8977  -23.1012  -48.5154 H         1 UNK         0.0600 
    144 H144        0.5029  -20.6974  -47.0789 H         1 UNK         0.3000 
    145 H145       -0.9670  -22.2018  -44.1521 H         1 UNK         0.0600 
    146 H146        0.9389  -20.9419  -43.1542 H         1 UNK         0.0600 
    147 H147        1.4708  -22.4408  -43.9022 H         1 UNK         0.0600 
    148 H148        1.7492  -20.9122  -44.7191 H         1 UNK         0.0600 
    149 H149       -0.3850  -19.4837  -44.7470 H         1 UNK         0.3000 
    150 H150       -3.5717  -18.6915  -46.2234 H         1 UNK         0.0600 
    151 H151       -3.8514  -18.5473  -43.7522 H         1 UNK         0.0600 
    152 H152       -3.4524  -16.9765  -44.4334 H         1 UNK         0.0600 
    153 H153       -2.2218  -17.9075  -43.5847 H         1 UNK         0.0600 
    154 H154       -1.2704  -17.0828  -45.7569 H         1 UNK         0.3000 
    155 H155        0.4256  -17.7558  -48.8300 H         1 UNK         0.0600 
    156 H156       -1.3549  -15.9846  -49.1900 H         1 UNK         0.0600 
    157 H157        0.2555  -15.3254  -48.9915 H         1 UNK         0.0600 
    158 H158       -0.9001  -15.2539  -47.6633 H         1 UNK         0.0600 
    159 H159        1.1177  -16.1370  -46.5951 H         1 UNK         0.3000 
    160 H160        2.7436  -18.7052  -44.6765 H         1 UNK         0.0600 
    161 H161        4.0059  -16.3896  -46.1950 H         1 UNK         0.0600 
    162 H162        4.3751  -18.0822  -46.4892 H         1 UNK         0.0600 
    163 H163        4.7326  -17.3740  -44.9267 H         1 UNK         0.0600 
    164 H164        2.5225  -15.8635  -44.3029 H         1 UNK         0.3000 
    165 H165       -0.5134  -16.0414  -42.4085 H         1 UNK         0.0600 
    166 H166        2.3586  -15.3847  -41.5723 H         1 UNK         0.0600 
    167 H167        0.8800  -14.9743  -40.7030 H         1 UNK         0.0600 
    168 H168        1.3730  -16.6504  -40.8507 H         1 UNK         0.0600 
    169 H169        1.0528  -13.7907  -42.9750 H         1 UNK         0.3000 
    170 H170        0.7490  -12.9150  -45.8202 H         1 UNK         0.0600 
    171 H171       -1.4790  -13.1566  -46.7715 H         1 UNK         0.0600 
    172 H172       -2.2359  -12.5144  -45.3242 H         1 UNK         0.0600 
    173 H173       -1.2324  -11.4765  -46.3372 H         1 UNK         0.0600 
    174 H174        1.1529  -11.3624  -44.3102 H         1 UNK         0.3000 
    175 H175        0.1015   -9.3740  -42.9853 H         1 UNK         0.0600 
    176 H176       -0.4084   -8.9616  -40.5827 H         1 UNK         0.0600 
    177 H177       -1.8173   -9.5679  -41.4367 H         1 UNK         0.0600 
    178 H178       -0.9057  -10.6410  -40.3835 H         1 UNK         0.0600 
    179 H179        2.1273   -9.7245  -42.1540 H         1 UNK         0.3000 
    180 H180        3.5694  -10.4954  -40.0727 H         1 UNK         0.0600 
    181 H181        3.7779  -13.5125  -40.5492 H         1 UNK         0.0600 
    182 H182        3.3873  -12.7189  -39.0303 H         1 UNK         0.0600 
    183 H183        4.9854  -12.5231  -39.7313 H         1 UNK         0.0600 
    184 H184        4.5044  -12.0320  -42.4165 H         1 UNK         0.3000 
    185 H185        4.9774   -9.1873  -44.4339 H         1 UNK         0.0600 
    186 H186        7.0392   -8.9430  -43.0392 H         1 UNK         0.0600 
    187 H187        7.2425  -10.6905  -43.0109 H         1 UNK         0.0600 
    188 H188        7.3816   -9.8047  -44.5304 H         1 UNK         0.0600 
    189 H189        5.8891  -11.8800  -44.6979 H         1 UNK         0.3000 
    190 H190       -1.9853  -20.9866  -48.3245 H         1 UNK         0.3000 
    191 H191       -3.5782  -22.4811  -50.1878 H         1 UNK         0.0600 
    192 H192       -4.1105  -20.1478  -49.4700 H         1 UNK         0.0600 
    193 H193       -5.4612  -21.2365  -49.1937 H         1 UNK         0.0600 
    194 H194       -4.4598  -20.7174  -47.8424 H         1 UNK         0.0600 
    195 H195       -3.2277  -22.6560  -46.6033 H         1 UNK         0.3000 
    196 H196       -5.0777  -24.7519  -46.1746 H         1 UNK         0.0600 
    197 H197       -3.9646  -24.9453  -43.9565 H         1 UNK         0.0600 
    198 H198       -4.2513  -23.2622  -44.3715 H         1 UNK         0.0600 
    199 H199       -2.6324  -23.9439  -44.5171 H         1 UNK         0.0600 
    200 H200       -1.5672  -24.8819  -46.8844 H         1 UNK         0.3000 
    201 H201       -1.2168  -27.6843  -46.6799 H         1 UNK         0.0600 
    202 H202        0.6621  -26.0681  -46.7741 H         1 UNK         0.0600 
    203 H203        0.2424  -25.6331  -48.4300 H         1 UNK         0.0600 
    204 H204        0.8239  -27.2525  -48.0615 H         1 UNK         0.0600 
    205 H205       -2.6496  -25.7415  -49.2301 H         1 UNK         0.3000 
    206 H206       -2.8939  -28.0077  -51.1165 H         1 UNK         0.0600 
    207 H207       -2.2957  -25.7133  -51.9549 H         1 UNK         0.0600 
    208 H208       -3.8078  -26.3001  -52.6270 H         1 UNK         0.0600 
    209 H209       -3.8277  -25.0977  -51.3411 H         1 UNK         0.0600 
    210 H210       -4.3537  -27.4622  -48.3102 H         1 UNK         0.3000 
    211 H211       -6.2448  -27.9318  -47.3000 H         1 UNK         0.0600 
    212 H212       -6.9942  -29.5518  -49.7905 H         1 UNK         0.0600 
    213 H213       -7.6430  -29.7611  -48.1698 H         1 UNK         0.0600 
    214 H214       -5.9560  -30.1259  -48.4859 H         1 UNK         0.0600 
    215 H215       -6.1463  -25.5205  -49.0214 H         1 UNK         0.3000 
    216 H216       -7.3010  -23.8282  -49.7626 H         1 UNK         0.0600 
    217 H217       -8.4892  -23.9583  -47.5580 H         1 UNK         0.0600 
    218 H218       -9.7552  -24.9351  -48.3025 H         1 UNK         0.0600 
    219 H219       -9.4992  -23.2758  -48.8205 H         1 UNK         0.0600 
    220 H220       -7.3924  -26.5489  -51.2589 H         1 UNK         0.3000 
    221 H221       -9.6881  -26.2539  -53.0436 H         1 UNK         0.0600 
    222 H222       -7.1642  -27.9711  -53.3208 H         1 UNK         0.0600 
    223 H223       -8.6550  -28.4877  -52.5329 H         1 UNK         0.0600 
    224 H224       -8.6456  -28.1254  -54.2531 H         1 UNK         0.0600 
    225 H225       -6.3958  -25.1248  -52.8306 H         1 UNK         0.3000 
    226 H226       -6.5989  -23.6479  -55.4175 H         1 UNK         0.0600 
    227 H227       -4.5138  -25.1020  -55.0786 H         1 UNK         0.0600 
    228 H228       -4.1761  -23.3925  -55.2859 H         1 UNK         0.0600 
    229 H229       -4.1095  -24.1034  -53.6817 H         1 UNK         0.0600 
    230 H230       -6.0956  -21.4166  -55.2856 H         1 UNK         0.3000 
    231 H231       -7.3239  -19.9268  -53.3260 H         1 UNK         0.0600 
    232 H232       -6.1246  -17.9697  -54.4569 H         1 UNK         0.0600 
    233 H233       -7.0483  -19.0233  -55.5130 H         1 UNK         0.0600 
    234 H234       -5.2983  -19.1639  -55.4619 H         1 UNK         0.0600 
    235 H235       -3.5484  -19.8033  -51.7053 H         1 UNK         0.3000 
    236 H236       -3.7704  -21.1604  -54.3193 H         1 UNK         0.0600 
    237 H237       -1.4663  -21.8428  -53.7518 H         1 UNK         0.0600 
    238 H238       -1.5077  -20.8629  -52.2908 H         1 UNK         0.0600 
    239 H239       -2.5692  -22.2611  -52.4538 H         1 UNK         0.0600 
    240 H240       -3.1974  -18.0018  -53.1720 H         1 UNK         0.3000 
    241 H241       -1.0382  -17.3228  -54.9604 H         1 UNK         0.0600 
    242 H242       -4.3222  -17.6164  -55.8076 H         1 UNK         0.3800 
    243 H243       -4.2891  -16.4811  -57.1314 H         1 UNK         0.3800 
    244 H244       -1.2088  -15.0560  -53.9810 H         1 UNK         0.0800 
    245 H245       -2.7215  -15.4701  -53.2192 H         1 UNK         0.0800 
    246 H246        0.9302  -17.0678  -53.5808 H         1 UNK         0.0800 
    247 H247        1.0616  -15.4190  -53.0153 H         1 UNK         0.0800 
@<TRIPOS>BOND
     1    1    2 1    
     2    1  127 1    
     3    1  128 1    
     4    1  129 1    
     5    2    3 2    
     6    2    4 am   BACKBONE|DICT|INTERRES
     7    4    5 1    
     8    4  130 1    
     9    5    6 1    
    10    5   65 1    
    11    5  131 1    
    12    6    7 1    
    13    6  132 1    
    14    6  133 1    
    15    7    8 1    
    16    8    9 1    
    17    8  134 1    
    18    8  135 1    
    19    9   10 ar   
    20    9   14 ar   
    21   10   11 ar   
    22   10  136 1    
    23   11   12 ar   
    24   11  126 1    
    25   12   13 ar   
    26   12  137 1    
    27   13   14 ar   
    28   13   15 1    
    29   14  138 1    
    30   15   16 1    
    31   15  139 1    
    32   15  140 1    
    33   16   17 1    
    34   17   18 1    
    35   17  141 1    
    36   17  142 1    
    37   18   19 1    
    38   18   67 1    
    39   18  143 1    
    40   19   20 am   BACKBONE|DICT|INTERRES
    41   19  144 1    
    42   20   21 2    
    43   20   22 1    
    44   22   23 1    
    45   22   24 1    
    46   22  145 1    
    47   23  146 1    
    48   23  147 1    
    49   23  148 1    
    50   24   25 am   BACKBONE|DICT|INTERRES
    51   24  149 1    
    52   25   26 2    
    53   25   27 1    
    54   27   28 1    
    55   27   29 1    
    56   27  150 1    
    57   28  151 1    
    58   28  152 1    
    59   28  153 1    
    60   29   30 am   BACKBONE|DICT|INTERRES
    61   29  154 1    
    62   30   31 2    
    63   30   32 1    
    64   32   33 1    
    65   32   34 1    
    66   32  155 1    
    67   33  156 1    
    68   33  157 1    
    69   33  158 1    
    70   34   35 am   BACKBONE|DICT|INTERRES
    71   34  159 1    
    72   35   36 2    
    73   35   37 1    
    74   37   38 1    
    75   37   39 1    
    76   37  160 1    
    77   38  161 1    
    78   38  162 1    
    79   38  163 1    
    80   39   40 am   BACKBONE|DICT|INTERRES
    81   39  164 1    
    82   40   41 2    
    83   40   42 1    
    84   42   43 1    
    85   42   44 1    
    86   42  165 1    
    87   43  166 1    
    88   43  167 1    
    89   43  168 1    
    90   44   45 am   BACKBONE|DICT|INTERRES
    91   44  169 1    
    92   45   46 2    
    93   45   47 1    
    94   47   48 1    
    95   47   49 1    
    96   47  170 1    
    97   48  171 1    
    98   48  172 1    
    99   48  173 1    
   100   49   50 am   BACKBONE|DICT|INTERRES
   101   49  174 1    
   102   50   51 2    
   103   50   52 1    
   104   52   53 1    
   105   52   54 1    
   106   52  175 1    
   107   53  176 1    
   108   53  177 1    
   109   53  178 1    
   110   54   55 am   BACKBONE|DICT|INTERRES
   111   54  179 1    
   112   55   56 2    
   113   55   57 1    
   114   57   58 1    
   115   57   59 1    
   116   57  180 1    
   117   58  181 1    
   118   58  182 1    
   119   58  183 1    
   120   59   60 am   BACKBONE|DICT|INTERRES
   121   59  184 1    
   122   60   61 2    
   123   60   62 1    
   124   62   63 1    
   125   62   64 1    
   126   62  185 1    
   127   63  186 1    
   128   63  187 1    
   129   63  188 1    
   130   64   65 am   BACKBONE|DICT|INTERRES
   131   64  189 1    
   132   65   66 2    
   133   67   68 2    
   134   67   69 am   BACKBONE|DICT|INTERRES
   135   69   70 1    
   136   69  190 1    
   137   70   71 1    
   138   70   72 1    
   139   70  191 1    
   140   71  192 1    
   141   71  193 1    
   142   71  194 1    
   143   72   73 2    
   144   72   74 am   BACKBONE|DICT|INTERRES
   145   74   75 1    
   146   74  195 1    
   147   75   76 1    
   148   75   77 1    
   149   75  196 1    
   150   76  197 1    
   151   76  198 1    
   152   76  199 1    
   153   77   78 2    
   154   77   79 am   BACKBONE|DICT|INTERRES
   155   79   80 1    
   156   79  200 1    
   157   80   81 1    
   158   80   82 1    
   159   80  201 1    
   160   81  202 1    
   161   81  203 1    
   162   81  204 1    
   163   82   83 2    
   164   82   84 am   BACKBONE|DICT|INTERRES
   165   84   85 1    
   166   84  205 1    
   167   85   86 1    
   168   85   87 1    
   169   85  206 1    
   170   86  207 1    
   171   86  208 1    
   172   86  209 1    
   173   87   88 2    
   174   87   89 am   BACKBONE|DICT|INTERRES
   175   89   90 1    
   176   89  210 1    
   177   90   91 1    
   178   90   92 1    
   179   90  211 1    
   180   91  212 1    
   181   91  213 1    
   182   91  214 1    
   183   92   93 2    
   184   92   94 am   BACKBONE|DICT|INTERRES
   185   94   95 1    
   186   94  215 1    
   187   95   96 1    
   188   95   97 1    
   189   95  216 1    
   190   96  217 1    
   191   96  218 1    
   192   96  219 1    
   193   97   98 2    
   194   97   99 am   BACKBONE|DICT|INTERRES
   195   99  100 1    
   196   99  220 1    
   197  100  101 1    
   198  100  102 1    
   199  100  221 1    
   200  101  222 1    
   201  101  223 1    
   202  101  224 1    
   203  102  103 2    
   204  102  104 am   BACKBONE|DICT|INTERRES
   205  104  105 1    
   206  104  225 1    
   207  105  106 1    
   208  105  107 1    
   209  105  226 1    
   210  106  227 1    
   211  106  228 1    
   212  106  229 1    
   213  107  108 2    
   214  107  109 am   BACKBONE|DICT|INTERRES
   215  109  110 1    
   216  109  230 1    
   217  110  111 1    
   218  110  112 1    
   219  110  231 1    
   220  111  232 1    
   221  111  233 1    
   222  111  234 1    
   223  112  113 2    
   224  112  114 am   BACKBONE|DICT|INTERRES
   225  114  115 1    
   226  114  235 1    
   227  115  116 1    
   228  115  117 1    
   229  115  236 1    
   230  116  237 1    
   231  116  238 1    
   232  116  239 1    
   233  117  118 2    
   234  117  119 am   BACKBONE|DICT|INTERRES
   235  119  120 1    
   236  119  240 1    
   237  120  121 1    
   238  120  124 1    
   239  120  241 1    
   240  121  122 am   BACKBONE|DICT|INTERRES
   241  121  123 2    
   242  122  242 1    
   243  122  243 1    
   244  124  125 1    
   245  124  244 1    
   246  124  245 1    
   247  125  126 1    
   248  126  246 1    
   249  126  247 1    
@<TRIPOS>SUBSTRUCTURE
     1 UNK         1 GROUP             0       ****    0 ROOT    
