@<TRIPOS>MOLECULE
3R540
247   249    1
SMALL
USER_CHARGES


@<TRIPOS>ATOM
      1 CA         -0.7169   -5.6413  -49.2158 C.3       0 UNK        -0.1800 
      2 C          -0.4382   -7.1100  -49.5044 C.2       0 UNK         0.5000 
      3 O           0.2166   -7.4251  -50.4988 O.2       0 UNK        -0.5000 
      4 N          -0.9387   -8.0068  -48.6456 N.am      1 UNK        -0.5000 
      5 CA         -0.7141   -9.4539  -48.7200 C.3       1 UNK         0.1400 
      6 C6         -1.7688  -10.2239  -47.8864 C.3       23 UNK        -0.0398 
      7 S7         -1.9892  -11.9420  -48.4586 S.3       23 UNK        -0.2404 
      8 C8         -3.7554  -12.2199  -48.1135 C.3       23 UNK        -0.0205 
      9 C9         -4.0830  -13.7047  -48.0234 C.ar      23 UNK        -0.0193 
     10 C10        -3.9516  -14.5267  -49.1472 C.ar      23 UNK        -0.1150 
     11 C11        -4.2417  -15.8914  -49.0654 C.ar      23 UNK        -0.0193 
     12 C12        -4.6789  -16.4295  -47.8537 C.ar      23 UNK        -0.1150 
     13 C13        -4.8204  -15.6219  -46.7222 C.ar      23 UNK        -0.0193 
     14 C14        -4.5218  -14.2590  -46.8156 C.ar      23 UNK        -0.1150 
     15 C15        -5.3127  -16.2120  -45.4072 C.3       23 UNK        -0.0205 
     16 S16        -3.9392  -16.8850  -44.4163 S.3       23 UNK        -0.2404 
     17 C17        -4.3762  -18.6580  -44.3083 C.3       23 UNK        -0.0398 
     18 CA         -4.0863  -19.4319  -45.6161 C.3       11 UNK         0.1400 
     19 N          -2.7206  -19.2308  -46.1008 N.am      11 UNK        -0.5000 
     20 C          -2.3250  -19.3933  -47.3693 C.2       10 UNK         0.5000 
     21 O          -3.0756  -19.7194  -48.2870 O.2       10 UNK        -0.5000 
     22 CA         -0.8357  -19.1381  -47.6600 C.3       10 UNK         0.1400 
     23 CB         -0.6243  -17.6796  -48.0942 C.3       10 UNK        -0.1800 
     24 N           0.0199  -19.4413  -46.5089 N.am      10 UNK        -0.5000 
     25 C           0.2654  -20.6833  -46.0651 C.2       9 UNK         0.5000 
     26 O          -0.1502  -21.7016  -46.6133 O.2       9 UNK        -0.5000 
     27 CA          1.0764  -20.8052  -44.7645 C.3       9 UNK         0.1400 
     28 CB          2.5821  -20.7006  -45.0515 C.3       9 UNK        -0.1800 
     29 N           0.7061  -19.7909  -43.7803 N.am      9 UNK        -0.5000 
     30 C          -0.4730  -19.7020  -43.1538 C.2       8 UNK         0.5000 
     31 O          -1.3976  -20.4907  -43.3483 O.2       8 UNK        -0.5000 
     32 CA         -0.6861  -18.5080  -42.1997 C.3       8 UNK         0.1400 
     33 CB         -1.3699  -18.9283  -40.8838 C.3       8 UNK        -0.1800 
     34 N           0.5190  -17.7072  -41.9462 N.am      8 UNK        -0.5000 
     35 C           1.6334  -18.0471  -41.2799 C.2       7 UNK         0.5000 
     36 O           1.8002  -19.1368  -40.7324 O.2       7 UNK        -0.5000 
     37 CA          2.7768  -17.0081  -41.2493 C.3       7 UNK         0.1400 
     38 CB          3.9435  -17.4809  -42.1314 C.3       7 UNK        -0.1800 
     39 N           2.3671  -15.6773  -41.7031 N.am      7 UNK        -0.5000 
     40 C           1.6170  -14.8147  -41.0036 C.2       6 UNK         0.5000 
     41 O           1.2702  -14.9962  -39.8364 O.2       6 UNK        -0.5000 
     42 CA          1.1194  -13.5721  -41.7678 C.3       6 UNK         0.1400 
     43 CB          2.1538  -12.4370  -41.7199 C.3       6 UNK        -0.1800 
     44 N           0.7881  -13.8867  -43.1618 N.am      6 UNK        -0.5000 
     45 C          -0.2487  -14.6529  -43.5322 C.2       5 UNK         0.5000 
     46 O          -1.0690  -15.1104  -42.7386 O.2       5 UNK        -0.5000 
     47 CA         -0.3613  -15.0204  -45.0198 C.3       5 UNK         0.1400 
     48 CB         -1.2028  -13.9853  -45.7672 C.3       5 UNK        -0.1800 
     49 N           0.9504  -15.1467  -45.6570 N.am      5 UNK        -0.5000 
     50 C           1.7112  -16.2474  -45.5697 C.2       4 UNK         0.5000 
     51 O           1.3341  -17.2825  -45.0238 O.2       4 UNK        -0.5000 
     52 CA          3.1324  -16.2000  -46.1653 C.3       4 UNK         0.1400 
     53 CB          3.1419  -16.7895  -47.5825 C.3       4 UNK        -0.1800 
     54 N           3.7078  -14.8564  -46.1981 N.am      4 UNK        -0.5000 
     55 C           3.9569  -14.1029  -45.1184 C.2       3 UNK         0.5000 
     56 O           3.8064  -14.5051  -43.9651 O.2       3 UNK        -0.5000 
     57 CA          4.3825  -12.6405  -45.3637 C.3       3 UNK         0.1400 
     58 CB          5.9015  -12.4907  -45.1971 C.3       3 UNK        -0.1800 
     59 N           3.9870  -12.1088  -46.6746 N.am      3 UNK        -0.5000 
     60 C           2.7278  -12.0004  -47.1220 C.2       2 UNK         0.5000 
     61 O           1.7421  -12.3687  -46.4782 O.2       2 UNK        -0.5000 
     62 CA          2.5682  -11.4749  -48.5613 C.3       2 UNK         0.1400 
     63 CB          2.8429  -12.6059  -49.5661 C.3       2 UNK        -0.1800 
     64 N           1.2348  -10.9371  -48.8284 N.am      2 UNK        -0.5000 
     65 C           0.7319   -9.8142  -48.3021 C.2       1 UNK         0.5000 
     66 O           1.3557   -9.0824  -47.5274 O.2       1 UNK        -0.5000 
     67 C          -4.4036  -20.9322  -45.4880 C.2       11 UNK         0.5000 
     68 O          -5.4650  -21.3729  -45.9313 O.2       11 UNK        -0.5000 
     69 N          -3.4487  -21.7082  -44.9598 N.am      12 UNK        -0.5000 
     70 CA         -3.4614  -23.1701  -44.9222 C.3       12 UNK         0.1400 
     71 CB         -2.5703  -23.6363  -43.7568 C.3       12 UNK        -0.1800 
     72 C          -3.0282  -23.7673  -46.2798 C.2       12 UNK         0.5000 
     73 O          -2.0880  -24.5597  -46.3343 O.2       12 UNK        -0.5000 
     74 N          -3.7178  -23.3604  -47.3554 N.am      13 UNK        -0.5000 
     75 CA         -3.4189  -23.7085  -48.7467 C.3       13 UNK         0.1400 
     76 CB         -4.3126  -22.8709  -49.6737 C.3       13 UNK        -0.1800 
     77 C          -3.5814  -25.2027  -49.0737 C.2       13 UNK         0.5000 
     78 O          -2.8889  -25.7002  -49.9631 O.2       13 UNK        -0.5000 
     79 N          -4.4941  -25.8796  -48.3582 N.am      14 UNK        -0.5000 
     80 CA         -4.8295  -27.3048  -48.4662 C.3       14 UNK         0.1400 
     81 CB         -3.6578  -28.1728  -47.9631 C.3       14 UNK        -0.1800 
     82 C          -5.2894  -27.6904  -49.8867 C.2       14 UNK         0.5000 
     83 O          -4.7500  -28.6227  -50.4821 O.2       14 UNK        -0.5000 
     84 N          -6.2461  -26.9187  -50.4251 N.am      15 UNK        -0.5000 
     85 CA         -6.7781  -27.0185  -51.7922 C.3       15 UNK         0.1400 
     86 CB         -7.5798  -28.3244  -51.9775 C.3       15 UNK        -0.1800 
     87 C          -5.6844  -26.8189  -52.8656 C.2       15 UNK         0.5000 
     88 O          -5.6543  -27.5338  -53.8680 O.2       15 UNK        -0.5000 
     89 N          -4.7956  -25.8502  -52.6001 N.am      16 UNK        -0.5000 
     90 CA         -3.6239  -25.4397  -53.3818 C.3       16 UNK         0.1400 
     91 CB         -4.0047  -25.0952  -54.8386 C.3       16 UNK        -0.1800 
     92 C          -2.4264  -26.4127  -53.3148 C.2       16 UNK         0.5000 
     93 O          -1.4187  -26.1546  -53.9748 O.2       16 UNK        -0.5000 
     94 N          -2.5284  -27.5020  -52.5389 N.am      17 UNK        -0.5000 
     95 CA         -1.4903  -28.5288  -52.4386 C.3       17 UNK         0.1400 
     96 CB         -2.1093  -29.8431  -51.9403 C.3       17 UNK        -0.1800 
     97 C          -0.3117  -28.1210  -51.5371 C.2       17 UNK         0.5000 
     98 O           0.8222  -28.5027  -51.8307 O.2       17 UNK        -0.5000 
     99 N          -0.5875  -27.3779  -50.4566 N.am      18 UNK        -0.5000 
    100 CA         0.4227  -26.9429  -49.4887 C.3       18 UNK         0.1400 
    101 CB        -0.1760  -26.9430  -48.0757 C.3       18 UNK        -0.1800 
    102 C          0.9948  -25.5617  -49.8427 C.2       18 UNK         0.5000 
    103 O          2.1893  -25.3355  -49.6445 O.2       18 UNK        -0.5000 
    104 N          0.1521  -24.6771  -50.3862 N.am      19 UNK        -0.5000 
    105 CA         0.5370  -23.3719  -50.9077 C.3       19 UNK         0.1400 
    106 CB         0.5592  -22.3191  -49.7871 C.3       19 UNK        -0.1800 
    107 C         -0.4664  -23.0011  -51.9992 C.2       19 UNK         0.5000 
    108 O         -1.6693  -23.0132  -51.7401 O.2       19 UNK        -0.5000 
    109 N          0.0367  -22.6867  -53.1977 N.am      20 UNK        -0.5000 
    110 CA        -0.7770  -22.4223  -54.3863 C.3       20 UNK         0.1400 
    111 CB         0.1241  -22.4800  -55.6289 C.3       20 UNK        -0.1800 
    112 C         -1.5500  -21.0903  -54.3434 C.2       20 UNK         0.5000 
    113 O         -2.5352  -20.9541  -55.0695 O.2       20 UNK        -0.5000 
    114 N         -1.0974  -20.1492  -53.4993 N.am      21 UNK        -0.5000 
    115 CA        -1.5715  -18.7646  -53.3716 C.3       21 UNK         0.1400 
    116 CB        -0.8650  -18.1087  -52.1732 C.3       21 UNK        -0.1800 
    117 C         -3.0980  -18.5970  -53.2425 C.2       21 UNK         0.5000 
    118 O         -3.6550  -17.6686  -53.8292 O.2       21 UNK        -0.5000 
    119 N         -3.7327  -19.5109  -52.5024 N.am      22 UNK        -0.5000 
    120 CA        -5.1899  -19.6280  -52.3440 C.3       22 UNK         0.1400 
    121 C         -5.6668  -21.0875  -52.6026 C.2       22 UNK         0.5000 
    122 N         -4.9713  -21.8634  -53.4263 N.am      22 UNK        -0.7600 
    123 O         -6.6840  -21.5273  -52.0745 O.2       22 UNK        -0.5000 
    124 C124       -5.6765  -19.0352  -50.9914 C.3       23 UNK        -0.0398 
    125 S125       -5.6985  -17.2079  -51.0050 S.3       23 UNK        -0.2404 
    126 C126       -4.0827  -16.7909  -50.2796 C.3       23 UNK        -0.0205 
    127 H127       -1.2558   -5.1905  -50.0492 H         1 UNK         0.0600 
    128 H128       -1.3156   -5.5114  -48.3138 H         1 UNK         0.0600 
    129 H129        0.2204   -5.1011  -49.0821 H         1 UNK         0.0600 
    130 H130       -1.4360   -7.6808  -47.8293 H         1 UNK         0.3000 
    131 H131       -0.8385   -9.7366  -49.7681 H         1 UNK         0.0600 
    132 H132       -1.5197  -10.2247  -46.8234 H         1 UNK         0.0800 
    133 H133       -2.7351   -9.7240  -47.9693 H         1 UNK         0.0800 
    134 H134       -4.3557  -11.7596  -48.8994 H         1 UNK         0.0800 
    135 H135       -4.0232  -11.7188  -47.1819 H         1 UNK         0.0800 
    136 H136       -3.6140  -14.1020  -50.0822 H         1 UNK         0.1150 
    137 H137       -4.9179  -17.4798  -47.8088 H         1 UNK         0.1150 
    138 H138       -4.6284  -13.6301  -45.9430 H         1 UNK         0.1150 
    139 H139       -5.8219  -15.4448  -44.8219 H         1 UNK         0.0800 
    140 H140       -6.0600  -16.9814  -45.6052 H         1 UNK         0.0800 
    141 H141       -5.4286  -18.7474  -44.0335 H         1 UNK         0.0800 
    142 H142       -3.8114  -19.0862  -43.4786 H         1 UNK         0.0800 
    143 H143       -4.7723  -19.0511  -46.3708 H         1 UNK         0.0600 
    144 H144       -2.0324  -18.9702  -45.4124 H         1 UNK         0.3000 
    145 H145       -0.5440  -19.7857  -48.4890 H         1 UNK         0.0600 
    146 H146        0.4098  -17.4987  -48.3824 H         1 UNK         0.0600 
    147 H147       -1.2452  -17.4340  -48.9563 H         1 UNK         0.0600 
    148 H148       -0.8842  -16.9799  -47.3001 H         1 UNK         0.0600 
    149 H149        0.4111  -18.6582  -45.9927 H         1 UNK         0.3000 
    150 H150        0.8731  -21.7873  -44.3323 H         1 UNK         0.0600 
    151 H151        2.8480  -19.7259  -45.4629 H         1 UNK         0.0600 
    152 H152        2.8956  -21.4582  -45.7711 H         1 UNK         0.0600 
    153 H153        3.1672  -20.8517  -44.1441 H         1 UNK         0.0600 
    154 H154        1.3603  -19.0317  -43.6491 H         1 UNK         0.3000 
    155 H155       -1.3741  -17.8415  -42.7208 H         1 UNK         0.0600 
    156 H156       -0.7796  -19.6616  -40.3341 H         1 UNK         0.0600 
    157 H157       -2.3455  -19.3763  -41.0764 H         1 UNK         0.0600 
    158 H158       -1.5323  -18.0690  -40.2331 H         1 UNK         0.0600 
    159 H159        0.4947  -16.7802  -42.3475 H         1 UNK         0.3000 
    160 H160        3.1295  -16.9326  -40.2187 H         1 UNK         0.0600 
    161 H161        3.6391  -17.5931  -43.1724 H         1 UNK         0.0600 
    162 H162        4.3247  -18.4459  -41.7951 H         1 UNK         0.0600 
    163 H163        4.7738  -16.7749  -42.1002 H         1 UNK         0.0600 
    164 H164        2.6842  -15.3954  -42.6261 H         1 UNK         0.3000 
    165 H165        0.2103  -13.2198  -41.2755 H         1 UNK         0.0600 
    166 H166        1.7971  -11.5545  -42.2512 H         1 UNK         0.0600 
    167 H167        2.3515  -12.1383  -40.6898 H         1 UNK         0.0600 
    168 H168        3.1060  -12.7321  -42.1597 H         1 UNK         0.0600 
    169 H169        1.4318  -13.5652  -43.8699 H         1 UNK         0.3000 
    170 H170       -0.8860  -15.9764  -45.0816 H         1 UNK         0.0600 
    171 H171       -1.3715  -14.2996  -46.7968 H         1 UNK         0.0600 
    172 H172       -0.7281  -13.0043  -45.7822 H         1 UNK         0.0600 
    173 H173       -2.1790  -13.8678  -45.2968 H         1 UNK         0.0600 
    174 H174        1.3161  -14.3134  -46.1067 H         1 UNK         0.3000 
    175 H175        3.7709  -16.8210  -45.5341 H         1 UNK         0.0600 
    176 H176        2.7452  -17.8059  -47.5857 H         1 UNK         0.0600 
    177 H177        4.1550  -16.8385  -47.9820 H         1 UNK         0.0600 
    178 H178        2.5385  -16.1952  -48.2698 H         1 UNK         0.0600 
    179 H179        3.8612  -14.4496  -47.1083 H         1 UNK         0.3000 
    180 H180        3.8930  -12.0318  -44.6009 H         1 UNK         0.0600 
    181 H181        6.2064  -11.4467  -45.2722 H         1 UNK         0.0600 
    182 H182        6.4471  -13.0566  -45.9533 H         1 UNK         0.0600 
    183 H183        6.2251  -12.8518  -44.2197 H         1 UNK         0.0600 
    184 H184        4.7414  -11.8034  -47.2729 H         1 UNK         0.3000 
    185 H185        3.2954  -10.6759  -48.7205 H         1 UNK         0.0600 
    186 H186        2.7656  -12.2484  -50.5931 H         1 UNK         0.0600 
    187 H187        3.8483  -13.0105  -49.4427 H         1 UNK         0.0600 
    188 H188        2.1396  -13.4312  -49.4448 H         1 UNK         0.0600 
    189 H189        0.6336  -11.5084  -49.4044 H         1 UNK         0.3000 
    190 H190       -2.6086  -21.2676  -44.5943 H         1 UNK         0.3000 
    191 H191       -4.4781  -23.5149  -44.7229 H         1 UNK         0.0600 
    192 H192       -2.5875  -24.7223  -43.6586 H         1 UNK         0.0600 
    193 H193       -2.9103  -23.2185  -42.8090 H         1 UNK         0.0600 
    194 H194       -1.5322  -23.3330  -43.9008 H         1 UNK         0.0600 
    195 H195       -4.4665  -22.6941  -47.2040 H         1 UNK         0.3000 
    196 H196       -2.3779  -23.4457  -48.9403 H         1 UNK         0.0600 
    197 H197       -5.3721  -23.0312  -49.4712 H         1 UNK         0.0600 
    198 H198       -4.1076  -21.8068  -49.5635 H         1 UNK         0.0600 
    199 H199       -4.1388  -23.1218  -50.7206 H         1 UNK         0.0600 
    200 H200       -5.0064  -25.3617  -47.6587 H         1 UNK         0.3000 
    201 H201       -5.6791  -27.4789  -47.8045 H         1 UNK         0.0600 
    202 H202       -2.8011  -28.1221  -48.6344 H         1 UNK         0.0600 
    203 H203       -3.9521  -29.2204  -47.8925 H         1 UNK         0.0600 
    204 H204       -3.3275  -27.8583  -46.9731 H         1 UNK         0.0600 
    205 H205       -6.6186  -26.1661  -49.8631 H         1 UNK         0.3000 
    206 H206       -7.4748  -26.1877  -51.9132 H         1 UNK         0.0600 
    207 H207       -8.3480  -28.4272  -51.2112 H         1 UNK         0.0600 
    208 H208       -8.0836  -28.3389  -52.9446 H         1 UNK         0.0600 
    209 H209       -6.9394  -29.2058  -51.9309 H         1 UNK         0.0600 
    210 H210       -4.8913  -25.3768  -51.7135 H         1 UNK         0.3000 
    211 H211       -3.2860  -24.5172  -52.9148 H         1 UNK         0.0600 
    212 H212       -3.1855  -24.5922  -55.3518 H         1 UNK         0.0600 
    213 H213       -4.8683  -24.4327  -54.8819 H         1 UNK         0.0600 
    214 H214       -4.2395  -25.9879  -55.4186 H         1 UNK         0.0600 
    215 H215       -3.3707  -27.6483  -51.9963 H         1 UNK         0.3000 
    216 H216       -1.0942  -28.7121  -53.4399 H         1 UNK         0.0600 
    217 H217       -2.4381  -29.7664  -50.9036 H         1 UNK         0.0600 
    218 H218       -1.3842  -30.6562  -51.9902 H         1 UNK         0.0600 
    219 H219       -2.9681  -30.1336  -52.5459 H         1 UNK         0.0600 
    220 H220       -1.5346  -27.0375  -50.3147 H         1 UNK         0.3000 
    221 H221        1.2556  -27.6493  -49.4841 H         1 UNK         0.0600 
    222 H222       -0.4852  -27.9449  -47.7789 H         1 UNK         0.0600 
    223 H223       -1.0435  -26.2893  -48.0070 H         1 UNK         0.0600 
    224 H224        0.5519  -26.5968  -47.3409 H         1 UNK         0.0600 
    225 H225       -0.8189  -24.9326  -50.5283 H         1 UNK         0.3000 
    226 H226        1.5331  -23.4391  -51.3506 H         1 UNK         0.0600 
    227 H227        0.8578  -21.3438  -50.1729 H         1 UNK         0.0600 
    228 H228       -0.4209  -22.2020  -49.3246 H         1 UNK         0.0600 
    229 H229        1.2662  -22.5887  -49.0024 H         1 UNK         0.0600 
    230 H230        1.0375  -22.6982  -53.3328 H         1 UNK         0.3000 
    231 H231       -1.5157  -23.2206  -54.4688 H         1 UNK         0.0600 
    232 H232        0.9051  -21.7193  -55.5961 H         1 UNK         0.0600 
    233 H233       -0.4541  -22.3184  -56.5398 H         1 UNK         0.0600 
    234 H234        0.6051  -23.4541  -55.7215 H         1 UNK         0.0600 
    235 H235       -0.2903  -20.3887  -52.9434 H         1 UNK         0.3000 
    236 H236       -1.2649  -18.2393  -54.2780 H         1 UNK         0.0600 
    237 H237        0.2174  -18.1083  -52.3026 H         1 UNK         0.0600 
    238 H238       -1.1757  -17.0697  -52.0545 H         1 UNK         0.0600 
    239 H239       -1.0918  -18.6277  -51.2409 H         1 UNK         0.0600 
    240 H240       -3.1903  -20.2562  -52.0880 H         1 UNK         0.3000 
    241 H241       -5.6798  -19.0656  -53.1408 H         1 UNK         0.0600 
    242 H242       -5.3008  -22.7965  -53.6051 H         1 UNK         0.3800 
    243 H243       -4.1769  -21.4978  -53.9380 H         1 UNK         0.3800 
    244 H244       -5.0795  -19.4108  -50.1595 H         1 UNK         0.0800 
    245 H245       -6.7021  -19.3406  -50.7797 H         1 UNK         0.0800 
    246 H246       -3.5398  -17.6926  -49.9968 H         1 UNK         0.0800 
    247 H247       -3.4751  -16.3005  -51.0413 H         1 UNK         0.0800 
@<TRIPOS>BOND
     1    1    2 1    
     2    1  127 1    
     3    1  128 1    
     4    1  129 1    
     5    2    3 2    
     6    2    4 am   BACKBONE|DICT|INTERRES
     7    4    5 1    
     8    4  130 1    
     9    5    6 1    
    10    5   65 1    
    11    5  131 1    
    12    6    7 1    
    13    6  132 1    
    14    6  133 1    
    15    7    8 1    
    16    8    9 1    
    17    8  134 1    
    18    8  135 1    
    19    9   10 ar   
    20    9   14 ar   
    21   10   11 ar   
    22   10  136 1    
    23   11   12 ar   
    24   11  126 1    
    25   12   13 ar   
    26   12  137 1    
    27   13   14 ar   
    28   13   15 1    
    29   14  138 1    
    30   15   16 1    
    31   15  139 1    
    32   15  140 1    
    33   16   17 1    
    34   17   18 1    
    35   17  141 1    
    36   17  142 1    
    37   18   19 1    
    38   18   67 1    
    39   18  143 1    
    40   19   20 am   BACKBONE|DICT|INTERRES
    41   19  144 1    
    42   20   21 2    
    43   20   22 1    
    44   22   23 1    
    45   22   24 1    
    46   22  145 1    
    47   23  146 1    
    48   23  147 1    
    49   23  148 1    
    50   24   25 am   BACKBONE|DICT|INTERRES
    51   24  149 1    
    52   25   26 2    
    53   25   27 1    
    54   27   28 1    
    55   27   29 1    
    56   27  150 1    
    57   28  151 1    
    58   28  152 1    
    59   28  153 1    
    60   29   30 am   BACKBONE|DICT|INTERRES
    61   29  154 1    
    62   30   31 2    
    63   30   32 1    
    64   32   33 1    
    65   32   34 1    
    66   32  155 1    
    67   33  156 1    
    68   33  157 1    
    69   33  158 1    
    70   34   35 am   BACKBONE|DICT|INTERRES
    71   34  159 1    
    72   35   36 2    
    73   35   37 1    
    74   37   38 1    
    75   37   39 1    
    76   37  160 1    
    77   38  161 1    
    78   38  162 1    
    79   38  163 1    
    80   39   40 am   BACKBONE|DICT|INTERRES
    81   39  164 1    
    82   40   41 2    
    83   40   42 1    
    84   42   43 1    
    85   42   44 1    
    86   42  165 1    
    87   43  166 1    
    88   43  167 1    
    89   43  168 1    
    90   44   45 am   BACKBONE|DICT|INTERRES
    91   44  169 1    
    92   45   46 2    
    93   45   47 1    
    94   47   48 1    
    95   47   49 1    
    96   47  170 1    
    97   48  171 1    
    98   48  172 1    
    99   48  173 1    
   100   49   50 am   BACKBONE|DICT|INTERRES
   101   49  174 1    
   102   50   51 2    
   103   50   52 1    
   104   52   53 1    
   105   52   54 1    
   106   52  175 1    
   107   53  176 1    
   108   53  177 1    
   109   53  178 1    
   110   54   55 am   BACKBONE|DICT|INTERRES
   111   54  179 1    
   112   55   56 2    
   113   55   57 1    
   114   57   58 1    
   115   57   59 1    
   116   57  180 1    
   117   58  181 1    
   118   58  182 1    
   119   58  183 1    
   120   59   60 am   BACKBONE|DICT|INTERRES
   121   59  184 1    
   122   60   61 2    
   123   60   62 1    
   124   62   63 1    
   125   62   64 1    
   126   62  185 1    
   127   63  186 1    
   128   63  187 1    
   129   63  188 1    
   130   64   65 am   BACKBONE|DICT|INTERRES
   131   64  189 1    
   132   65   66 2    
   133   67   68 2    
   134   67   69 am   BACKBONE|DICT|INTERRES
   135   69   70 1    
   136   69  190 1    
   137   70   71 1    
   138   70   72 1    
   139   70  191 1    
   140   71  192 1    
   141   71  193 1    
   142   71  194 1    
   143   72   73 2    
   144   72   74 am   BACKBONE|DICT|INTERRES
   145   74   75 1    
   146   74  195 1    
   147   75   76 1    
   148   75   77 1    
   149   75  196 1    
   150   76  197 1    
   151   76  198 1    
   152   76  199 1    
   153   77   78 2    
   154   77   79 am   BACKBONE|DICT|INTERRES
   155   79   80 1    
   156   79  200 1    
   157   80   81 1    
   158   80   82 1    
   159   80  201 1    
   160   81  202 1    
   161   81  203 1    
   162   81  204 1    
   163   82   83 2    
   164   82   84 am   BACKBONE|DICT|INTERRES
   165   84   85 1    
   166   84  205 1    
   167   85   86 1    
   168   85   87 1    
   169   85  206 1    
   170   86  207 1    
   171   86  208 1    
   172   86  209 1    
   173   87   88 2    
   174   87   89 am   BACKBONE|DICT|INTERRES
   175   89   90 1    
   176   89  210 1    
   177   90   91 1    
   178   90   92 1    
   179   90  211 1    
   180   91  212 1    
   181   91  213 1    
   182   91  214 1    
   183   92   93 2    
   184   92   94 am   BACKBONE|DICT|INTERRES
   185   94   95 1    
   186   94  215 1    
   187   95   96 1    
   188   95   97 1    
   189   95  216 1    
   190   96  217 1    
   191   96  218 1    
   192   96  219 1    
   193   97   98 2    
   194   97   99 am   BACKBONE|DICT|INTERRES
   195   99  100 1    
   196   99  220 1    
   197  100  101 1    
   198  100  102 1    
   199  100  221 1    
   200  101  222 1    
   201  101  223 1    
   202  101  224 1    
   203  102  103 2    
   204  102  104 am   BACKBONE|DICT|INTERRES
   205  104  105 1    
   206  104  225 1    
   207  105  106 1    
   208  105  107 1    
   209  105  226 1    
   210  106  227 1    
   211  106  228 1    
   212  106  229 1    
   213  107  108 2    
   214  107  109 am   BACKBONE|DICT|INTERRES
   215  109  110 1    
   216  109  230 1    
   217  110  111 1    
   218  110  112 1    
   219  110  231 1    
   220  111  232 1    
   221  111  233 1    
   222  111  234 1    
   223  112  113 2    
   224  112  114 am   BACKBONE|DICT|INTERRES
   225  114  115 1    
   226  114  235 1    
   227  115  116 1    
   228  115  117 1    
   229  115  236 1    
   230  116  237 1    
   231  116  238 1    
   232  116  239 1    
   233  117  118 2    
   234  117  119 am   BACKBONE|DICT|INTERRES
   235  119  120 1    
   236  119  240 1    
   237  120  121 1    
   238  120  124 1    
   239  120  241 1    
   240  121  122 am   BACKBONE|DICT|INTERRES
   241  121  123 2    
   242  122  242 1    
   243  122  243 1    
   244  124  125 1    
   245  124  244 1    
   246  124  245 1    
   247  125  126 1    
   248  126  246 1    
   249  126  247 1    
@<TRIPOS>SUBSTRUCTURE
     1 UNK         1 GROUP             0       ****    0 ROOT    
