@<TRIPOS>MOLECULE
3R540
247   249    1
SMALL
USER_CHARGES


@<TRIPOS>ATOM
      1 CA         -0.8944   -9.4505  -51.0016 C.3       0 UNK        -0.1800 
      2 C          -0.0563  -10.3395  -50.0939 C.2       0 UNK         0.5000 
      3 O           0.9625   -9.8917  -49.5676 O.2       0 UNK        -0.5000 
      4 N          -0.4808  -11.5961  -49.9084 N.am      1 UNK        -0.5000 
      5 CA          0.1815  -12.5926  -49.0560 C.3       1 UNK         0.1400 
      6 C6         -0.2517  -14.0333  -49.4235 C.3       23 UNK        -0.0398 
      7 S7         -2.0454  -14.3419  -49.2260 S.3       23 UNK        -0.2404 
      8 C8         -2.0525  -15.8153  -48.1591 C.3       23 UNK        -0.0205 
      9 C9         -1.8069  -17.0813  -48.9654 C.ar      23 UNK        -0.0193 
     10 C10        -2.8828  -17.7498  -49.5579 C.ar      23 UNK        -0.1150 
     11 C11        -2.6734  -18.9239  -50.2858 C.ar      23 UNK        -0.0193 
     12 C12        -1.3746  -19.4139  -50.4393 C.ar      23 UNK        -0.1150 
     13 C13        -0.2893  -18.7499  -49.8637 C.ar      23 UNK        -0.0193 
     14 C14        -0.5129  -17.5901  -49.1157 C.ar      23 UNK        -0.1150 
     15 C15         1.1233  -19.2796  -50.0649 C.3       23 UNK        -0.0205 
     16 S16         1.3350  -20.9718  -49.4263 S.3       23 UNK        -0.2404 
     17 C17         1.1638  -20.6911  -47.6349 C.3       23 UNK        -0.0398 
     18 CA          0.1821  -21.6670  -46.9447 C.3       11 UNK         0.1400 
     19 N           0.4150  -21.6999  -45.4993 N.am      11 UNK        -0.5000 
     20 C          -0.1519  -22.5582  -44.6417 C.2       10 UNK         0.5000 
     21 O          -0.8997  -23.4737  -44.9823 O.2       10 UNK        -0.5000 
     22 CA          0.1241  -22.3184  -43.1461 C.3       10 UNK         0.1400 
     23 CB          1.4824  -22.9074  -42.7378 C.3       10 UNK        -0.1800 
     24 N           0.0715  -20.8988  -42.7894 N.am      10 UNK        -0.5000 
     25 C          -1.0319  -20.1410  -42.8739 C.2       9 UNK         0.5000 
     26 O          -2.1332  -20.5782  -43.2039 O.2       9 UNK        -0.5000 
     27 CA         -0.8741  -18.6371  -42.5900 C.3       9 UNK         0.1400 
     28 CB         -0.8382  -18.3684  -41.0786 C.3       9 UNK        -0.1800 
     29 N           0.3170  -18.0703  -43.2211 N.am      9 UNK        -0.5000 
     30 C           0.5286  -18.0048  -44.5426 C.2       8 UNK         0.5000 
     31 O          -0.2955  -18.3540  -45.3847 O.2       8 UNK        -0.5000 
     32 CA          1.9127  -17.5156  -45.0025 C.3       8 UNK         0.1400 
     33 CB          1.9776  -15.9819  -45.0563 C.3       8 UNK        -0.1800 
     34 N           2.9856  -18.0273  -44.1498 N.am      8 UNK        -0.5000 
     35 C           3.3601  -19.3134  -44.1016 C.2       7 UNK         0.5000 
     36 O           2.8511  -20.1987  -44.7881 O.2       7 UNK        -0.5000 
     37 CA          4.4580  -19.6750  -43.0857 C.3       7 UNK         0.1400 
     38 CB          5.8484  -19.3378  -43.6443 C.3       7 UNK        -0.1800 
     39 N           4.2714  -18.9997  -41.8011 N.am      7 UNK        -0.5000 
     40 C           3.2572  -19.2468  -40.9603 C.2       6 UNK         0.5000 
     41 O           2.3912  -20.0970  -41.1649 O.2       6 UNK        -0.5000 
     42 CA          3.1692  -18.3585  -39.7049 C.3       6 UNK         0.1400 
     43 CB          4.0537  -18.9204  -38.5821 C.3       6 UNK        -0.1800 
     44 N           3.5242  -16.9562  -39.9510 N.am      6 UNK        -0.5000 
     45 C           2.8822  -16.1517  -40.8077 C.2       5 UNK         0.5000 
     46 O           1.9593  -16.5249  -41.5339 O.2       5 UNK        -0.5000 
     47 CA          3.3860  -14.7046  -40.9164 C.3       5 UNK         0.1400 
     48 CB          4.4649  -14.5981  -42.0053 C.3       5 UNK        -0.1800 
     49 N           2.2815  -13.8093  -41.2549 N.am      5 UNK        -0.5000 
     50 C           1.3639  -13.3719  -40.3823 C.2       4 UNK         0.5000 
     51 O           1.4139  -13.5847  -39.1700 O.2       4 UNK        -0.5000 
     52 CA          0.1912  -12.5642  -40.9650 C.3       4 UNK         0.1400 
     53 CB          0.5638  -11.0784  -41.0876 C.3       4 UNK        -0.1800 
     54 N          -0.2253  -13.0599  -42.2769 N.am      4 UNK        -0.5000 
     55 C          -1.0306  -14.1135  -42.4778 C.2       3 UNK         0.5000 
     56 O          -1.5049  -14.7877  -41.5633 O.2       3 UNK        -0.5000 
     57 CA         -1.3631  -14.4614  -43.9475 C.3       3 UNK         0.1400 
     58 CB         -2.7440  -15.1291  -44.1151 C.3       3 UNK        -0.1800 
     59 N          -1.2082  -13.3226  -44.8637 N.am      3 UNK        -0.5000 
     60 C          -1.9017  -12.1750  -44.8687 C.2       2 UNK         0.5000 
     61 O          -2.8465  -11.9419  -44.1148 O.2       2 UNK        -0.5000 
     62 CA         -1.4554  -11.0805  -45.8598 C.3       2 UNK         0.1400 
     63 CB         -0.3697  -10.1880  -45.2282 C.3       2 UNK        -0.1800 
     64 N          -1.0422  -11.5523  -47.1890 N.am      2 UNK        -0.5000 
     65 C           0.0056  -12.3121  -47.5455 C.2       1 UNK         0.5000 
     66 O           0.8031  -12.8013  -46.7440 O.2       1 UNK        -0.5000 
     67 C          -1.2984  -21.3703  -47.2783 C.2       11 UNK         0.5000 
     68 O          -1.8908  -22.0770  -48.0930 O.2       11 UNK        -0.5000 
     69 N          -1.8908  -20.3834  -46.5897 N.am      12 UNK        -0.5000 
     70 CA         -3.3070  -20.0321  -46.6919 C.3       12 UNK         0.1400 
     71 CB         -3.5775  -18.7351  -45.9142 C.3       12 UNK        -0.1800 
     72 C          -4.2434  -21.1613  -46.2253 C.2       12 UNK         0.5000 
     73 O          -5.2454  -21.4237  -46.8902 O.2       12 UNK        -0.5000 
     74 N          -3.8890  -21.8300  -45.1185 N.am      13 UNK        -0.5000 
     75 CA         -4.6107  -22.9811  -44.5701 C.3       13 UNK         0.1400 
     76 CB         -4.0606  -23.3168  -43.1758 C.3       13 UNK        -0.1800 
     77 C          -4.5638  -24.2178  -45.4880 C.2       13 UNK         0.5000 
     78 O          -5.5612  -24.9328  -45.5922 O.2       13 UNK        -0.5000 
     79 N          -3.4227  -24.4316  -46.1579 N.am      14 UNK        -0.5000 
     80 CA         -3.2291  -25.4664  -47.1778 C.3       14 UNK         0.1400 
     81 CB         -1.7250  -25.6512  -47.4191 C.3       14 UNK        -0.1800 
     82 C          -3.9719  -25.1731  -48.4999 C.2       14 UNK         0.5000 
     83 O          -4.1933  -26.0970  -49.2844 O.2       14 UNK        -0.5000 
     84 N          -4.3690  -23.9092  -48.7005 N.am      15 UNK        -0.5000 
     85 CA         -5.1681  -23.3811  -49.8048 C.3       15 UNK         0.1400 
     86 CB         -6.5853  -23.9981  -49.7892 C.3       15 UNK        -0.1800 
     87 C          -4.4550  -23.4863  -51.1696 C.2       15 UNK         0.5000 
     88 O          -3.2236  -23.4784  -51.2311 O.2       15 UNK        -0.5000 
     89 N          -5.2425  -23.5622  -52.2509 N.am      16 UNK        -0.5000 
     90 CA         -4.7906  -23.5337  -53.6454 C.3       16 UNK         0.1400 
     91 CB         -6.0200  -23.4259  -54.5615 C.3       16 UNK        -0.1800 
     92 C          -3.8836  -24.7071  -54.0704 C.2       16 UNK         0.5000 
     93 O          -3.2720  -24.6416  -55.1350 O.2       16 UNK        -0.5000 
     94 N          -3.7835  -25.7497  -53.2359 N.am      17 UNK        -0.5000 
     95 CA         -2.8305  -26.8465  -53.3965 C.3       17 UNK         0.1400 
     96 CB         -3.2283  -27.9908  -52.4518 C.3       17 UNK        -0.1800 
     97 C          -1.3690  -26.4208  -53.1406 C.2       17 UNK         0.5000 
     98 O          -0.4596  -27.0692  -53.6597 O.2       17 UNK        -0.5000 
     99 N          -1.1621  -25.3605  -52.3454 N.am      18 UNK        -0.5000 
    100 CA         0.1595  -24.8771  -51.9417 C.3       18 UNK         0.1400 
    101 CB         0.0818  -24.4046  -50.4821 C.3       18 UNK        -0.1800 
    102 C          0.7096  -23.7548  -52.8414 C.2       18 UNK         0.5000 
    103 O          1.8885  -23.4199  -52.7125 O.2       18 UNK        -0.5000 
    104 N         -0.1226  -23.1830  -53.7204 N.am      19 UNK        -0.5000 
    105 CA         0.2269  -22.0418  -54.5647 C.3       19 UNK         0.1400 
    106 CB         0.0933  -20.7345  -53.7521 C.3       19 UNK        -0.1800 
    107 C         -0.5983  -22.0687  -55.8642 C.2       19 UNK         0.5000 
    108 O         -0.7699  -23.1386  -56.4511 O.2       19 UNK        -0.5000 
    109 N         -1.0648  -20.8945  -56.3059 N.am      20 UNK        -0.5000 
    110 CA        -1.9709  -20.7048  -57.4385 C.3       20 UNK         0.1400 
    111 CB        -1.6218  -19.3658  -58.1166 C.3       20 UNK        -0.1800 
    112 C         -3.4392  -20.7594  -56.9647 C.2       20 UNK         0.5000 
    113 O         -3.7209  -21.2783  -55.8840 O.2       20 UNK        -0.5000 
    114 N         -4.3637  -20.2001  -57.7563 N.am      21 UNK        -0.5000 
    115 CA        -5.7954  -20.0913  -57.4517 C.3       21 UNK         0.1400 
    116 CB        -6.5619  -19.8676  -58.7680 C.3       21 UNK        -0.1800 
    117 C         -6.1003  -19.0052  -56.3911 C.2       21 UNK         0.5000 
    118 O         -6.8852  -18.0890  -56.6418 O.2       21 UNK        -0.5000 
    119 N         -5.4537  -19.1207  -55.2274 N.am      22 UNK        -0.5000 
    120 CA        -5.5678  -18.2219  -54.0678 C.3       22 UNK         0.1400 
    121 C         -6.8256  -18.4505  -53.1771 C.2       22 UNK         0.5000 
    122 N         -7.6432  -19.4672  -53.4228 N.am      22 UNK        -0.7600 
    123 O         -7.0727  -17.6801  -52.2534 O.2       22 UNK        -0.5000 
    124 C124       -4.2562  -18.2150  -53.2381 C.3       23 UNK        -0.0398 
    125 S125       -3.7517  -19.8756  -52.6662 S.3       23 UNK        -0.2404 
    126 C126       -3.8481  -19.6997  -50.8588 C.3       23 UNK        -0.0205 
    127 H127       -1.7626   -9.9783  -51.3971 H         1 UNK         0.0600 
    128 H128       -0.2954   -9.1030  -51.8434 H         1 UNK         0.0600 
    129 H129       -1.2481   -8.5791  -50.4505 H         1 UNK         0.0600 
    130 H130       -1.3231  -11.9122  -50.3692 H         1 UNK         0.3000 
    131 H131        1.2539  -12.5247  -49.2523 H         1 UNK         0.0600 
    132 H132        0.0095  -14.2401  -50.4621 H         1 UNK         0.0800 
    133 H133        0.3210  -14.7498  -48.8339 H         1 UNK         0.0800 
    134 H134       -1.3164  -15.7134  -47.3598 H         1 UNK         0.0800 
    135 H135       -3.0239  -15.8793  -47.6671 H         1 UNK         0.0800 
    136 H136       -3.8850  -17.3643  -49.4344 H         1 UNK         0.1150 
    137 H137       -1.2110  -20.3262  -50.9961 H         1 UNK         0.1150 
    138 H138        0.3207  -17.0809  -48.6547 H         1 UNK         0.1150 
    139 H139        1.3529  -19.2712  -51.1304 H         1 UNK         0.0800 
    140 H140        1.8576  -18.6262  -49.5913 H         1 UNK         0.0800 
    141 H141        2.1631  -20.8190  -47.2187 H         1 UNK         0.0800 
    142 H142        0.8883  -19.6561  -47.4311 H         1 UNK         0.0800 
    143 H143        0.3980  -22.6726  -47.3125 H         1 UNK         0.0600 
    144 H144        1.0624  -21.0094  -45.1327 H         1 UNK         0.3000 
    145 H145       -0.6526  -22.8345  -42.5783 H         1 UNK         0.0600 
    146 H146        1.6447  -22.8134  -41.6640 H         1 UNK         0.0600 
    147 H147        1.5377  -23.9686  -42.9837 H         1 UNK         0.0600 
    148 H148        2.3085  -22.4085  -43.2448 H         1 UNK         0.0600 
    149 H149        0.9324  -20.4810  -42.4496 H         1 UNK         0.3000 
    150 H150       -1.7447  -18.1273  -43.0054 H         1 UNK         0.0600 
    151 H151       -1.7477  -18.7293  -40.5972 H         1 UNK         0.0600 
    152 H152       -0.7593  -17.3020  -40.8685 H         1 UNK         0.0600 
    153 H153        0.0060  -18.8642  -40.6001 H         1 UNK         0.0600 
    154 H154        1.0248  -17.6921  -42.5952 H         1 UNK         0.3000 
    155 H155        2.0774  -17.8922  -46.0143 H         1 UNK         0.0600 
    156 H156        2.9500  -15.6412  -45.4120 H         1 UNK         0.0600 
    157 H157        1.8037  -15.5328  -44.0783 H         1 UNK         0.0600 
    158 H158        1.2291  -15.5854  -45.7435 H         1 UNK         0.0600 
    159 H159        3.4119  -17.3737  -43.5110 H         1 UNK         0.3000 
    160 H160        4.4113  -20.7527  -42.9144 H         1 UNK         0.0600 
    161 H161        5.9691  -18.2668  -43.8117 H         1 UNK         0.0600 
    162 H162        6.0177  -19.8405  -44.5975 H         1 UNK         0.0600 
    163 H163        6.6355  -19.6620  -42.9632 H         1 UNK         0.0600 
    164 H164        4.9387  -18.2836  -41.5556 H         1 UNK         0.3000 
    165 H165        2.1328  -18.3796  -39.3621 H         1 UNK         0.0600 
    166 H166        5.1111  -18.8913  -38.8480 H         1 UNK         0.0600 
    167 H167        3.9237  -18.3569  -37.6579 H         1 UNK         0.0600 
    168 H168        3.7978  -19.9587  -38.3662 H         1 UNK         0.0600 
    169 H169        4.2839  -16.5818  -39.4009 H         1 UNK         0.3000 
    170 H170        3.8170  -14.4007  -39.9600 H         1 UNK         0.0600 
    171 H171        5.3171  -15.2396  -41.7773 H         1 UNK         0.0600 
    172 H172        4.0846  -14.8928  -42.9840 H         1 UNK         0.0600 
    173 H173        4.8413  -13.5783  -42.0868 H         1 UNK         0.0600 
    174 H174        2.1362  -13.6252  -42.2352 H         1 UNK         0.3000 
    175 H175       -0.6493  -12.6459  -40.2723 H         1 UNK         0.0600 
    176 H176       -0.2816  -10.4890  -41.4437 H         1 UNK         0.0600 
    177 H177        0.8600  -10.6696  -40.1207 H         1 UNK         0.0600 
    178 H178        1.3942  -10.9244  -41.7778 H         1 UNK         0.0600 
    179 H179        0.1053  -12.5522  -43.0833 H         1 UNK         0.3000 
    180 H180       -0.6202  -15.1964  -44.2506 H         1 UNK         0.0600 
    181 H181       -2.9367  -15.3796  -45.1578 H         1 UNK         0.0600 
    182 H182       -2.8029  -16.0568  -43.5461 H         1 UNK         0.0600 
    183 H183       -3.5524  -14.4855  -43.7685 H         1 UNK         0.0600 
    184 H184       -0.4244  -13.3715  -45.5114 H         1 UNK         0.3000 
    185 H185       -2.3300  -10.4521  -46.0352 H         1 UNK         0.0600 
    186 H186       -0.1123   -9.3577  -45.8860 H         1 UNK         0.0600 
    187 H187       -0.7156   -9.7605  -44.2861 H         1 UNK         0.0600 
    188 H188        0.5448  -10.7425  -45.0166 H         1 UNK         0.0600 
    189 H189       -1.6428  -11.2514  -47.9435 H         1 UNK         0.3000 
    190 H190       -1.3253  -19.8032  -45.9754 H         1 UNK         0.3000 
    191 H191       -3.5230  -19.8470  -47.7443 H         1 UNK         0.0600 
    192 H192       -4.6105  -18.4109  -46.0436 H         1 UNK         0.0600 
    193 H193       -2.9356  -17.9266  -46.2617 H         1 UNK         0.0600 
    194 H194       -3.4030  -18.8593  -44.8457 H         1 UNK         0.0600 
    195 H195       -3.0829  -21.5052  -44.5910 H         1 UNK         0.3000 
    196 H196       -5.6581  -22.6931  -44.4591 H         1 UNK         0.0600 
    197 H197       -4.6032  -24.1527  -42.7325 H         1 UNK         0.0600 
    198 H198       -4.1596  -22.4686  -42.4982 H         1 UNK         0.0600 
    199 H199       -3.0068  -23.5927  -43.2143 H         1 UNK         0.0600 
    200 H200       -2.6238  -23.8369  -45.9600 H         1 UNK         0.3000 
    201 H201       -3.6252  -26.4062  -46.7880 H         1 UNK         0.0600 
    202 H202       -1.2151  -25.9606  -46.5066 H         1 UNK         0.0600 
    203 H203       -1.2612  -24.7261  -47.7612 H         1 UNK         0.0600 
    204 H204       -1.5399  -26.4182  -48.1720 H         1 UNK         0.0600 
    205 H205       -4.0633  -23.2199  -48.0263 H         1 UNK         0.3000 
    206 H206       -5.2788  -22.3164  -49.6006 H         1 UNK         0.0600 
    207 H207       -7.0170  -23.9548  -48.7888 H         1 UNK         0.0600 
    208 H208       -7.2649  -23.4563  -50.4477 H         1 UNK         0.0600 
    209 H209       -6.5791  -25.0430  -50.1017 H         1 UNK         0.0600 
    210 H210       -6.2420  -23.5830  -52.1117 H         1 UNK         0.3000 
    211 H211       -4.1946  -22.6289  -53.7641 H         1 UNK         0.0600 
    212 H212       -6.6767  -24.2901  -54.4563 H         1 UNK         0.0600 
    213 H213       -5.7223  -23.3634  -55.6091 H         1 UNK         0.0600 
    214 H214       -6.5989  -22.5297  -54.3392 H         1 UNK         0.0600 
    215 H215       -4.3070  -25.7245  -52.3726 H         1 UNK         0.3000 
    216 H216       -2.8950  -27.2123  -54.4234 H         1 UNK         0.0600 
    217 H217       -2.5574  -28.8432  -52.5664 H         1 UNK         0.0600 
    218 H218       -4.2386  -28.3428  -52.6605 H         1 UNK         0.0600 
    219 H219       -3.1893  -27.6807  -51.4067 H         1 UNK         0.0600 
    220 H220       -1.9577  -24.8529  -51.9680 H         1 UNK         0.3000 
    221 H221        0.8788  -25.6977  -51.9813 H         1 UNK         0.0600 
    222 H222       -0.2158  -25.2235  -49.8301 H         1 UNK         0.0600 
    223 H223        1.0503  -24.0483  -50.1296 H         1 UNK         0.0600 
    224 H224       -0.6332  -23.5905  -50.3541 H         1 UNK         0.0600 
    225 H225       -1.0549  -23.5559  -53.8384 H         1 UNK         0.3000 
    226 H226        1.2682  -22.1414  -54.8779 H         1 UNK         0.0600 
    227 H227       -0.9414  -20.5448  -53.4665 H         1 UNK         0.0600 
    228 H228        0.6825  -20.7818  -52.8370 H         1 UNK         0.0600 
    229 H229        0.4545  -19.8720  -54.3130 H         1 UNK         0.0600 
    230 H230       -0.9024  -20.0794  -55.7334 H         1 UNK         0.3000 
    231 H231       -1.8274  -21.5075  -58.1644 H         1 UNK         0.0600 
    232 H232       -2.1691  -19.2341  -59.0504 H         1 UNK         0.0600 
    233 H233       -0.5613  -19.3174  -58.3649 H         1 UNK         0.0600 
    234 H234       -1.8513  -18.5155  -57.4727 H         1 UNK         0.0600 
    235 H235       -4.0604  -19.7611  -58.6132 H         1 UNK         0.3000 
    236 H236       -6.1325  -21.0428  -57.0351 H         1 UNK         0.0600 
    237 H237       -6.2727  -18.9323  -59.2488 H         1 UNK         0.0600 
    238 H238       -6.3787  -20.6783  -59.4734 H         1 UNK         0.0600 
    239 H239       -7.6381  -19.8300  -58.5939 H         1 UNK         0.0600 
    240 H240       -4.8165  -19.9056  -55.1177 H         1 UNK         0.3000 
    241 H241       -5.6875  -17.2108  -54.4610 H         1 UNK         0.0600 
    242 H242       -8.4587  -19.5987  -52.8457 H         1 UNK         0.3800 
    243 H243       -7.4564  -20.0997  -54.1827 H         1 UNK         0.3800 
    244 H244       -3.4447  -17.8226  -53.8518 H         1 UNK         0.0800 
    245 H245       -4.3337  -17.5313  -52.3910 H         1 UNK         0.0800 
    246 H246       -4.8020  -19.2477  -50.5823 H         1 UNK         0.0800 
    247 H247       -3.8336  -20.6926  -50.4123 H         1 UNK         0.0800 
@<TRIPOS>BOND
     1    1    2 1    
     2    1  127 1    
     3    1  128 1    
     4    1  129 1    
     5    2    3 2    
     6    2    4 am   BACKBONE|DICT|INTERRES
     7    4    5 1    
     8    4  130 1    
     9    5    6 1    
    10    5   65 1    
    11    5  131 1    
    12    6    7 1    
    13    6  132 1    
    14    6  133 1    
    15    7    8 1    
    16    8    9 1    
    17    8  134 1    
    18    8  135 1    
    19    9   10 ar   
    20    9   14 ar   
    21   10   11 ar   
    22   10  136 1    
    23   11   12 ar   
    24   11  126 1    
    25   12   13 ar   
    26   12  137 1    
    27   13   14 ar   
    28   13   15 1    
    29   14  138 1    
    30   15   16 1    
    31   15  139 1    
    32   15  140 1    
    33   16   17 1    
    34   17   18 1    
    35   17  141 1    
    36   17  142 1    
    37   18   19 1    
    38   18   67 1    
    39   18  143 1    
    40   19   20 am   BACKBONE|DICT|INTERRES
    41   19  144 1    
    42   20   21 2    
    43   20   22 1    
    44   22   23 1    
    45   22   24 1    
    46   22  145 1    
    47   23  146 1    
    48   23  147 1    
    49   23  148 1    
    50   24   25 am   BACKBONE|DICT|INTERRES
    51   24  149 1    
    52   25   26 2    
    53   25   27 1    
    54   27   28 1    
    55   27   29 1    
    56   27  150 1    
    57   28  151 1    
    58   28  152 1    
    59   28  153 1    
    60   29   30 am   BACKBONE|DICT|INTERRES
    61   29  154 1    
    62   30   31 2    
    63   30   32 1    
    64   32   33 1    
    65   32   34 1    
    66   32  155 1    
    67   33  156 1    
    68   33  157 1    
    69   33  158 1    
    70   34   35 am   BACKBONE|DICT|INTERRES
    71   34  159 1    
    72   35   36 2    
    73   35   37 1    
    74   37   38 1    
    75   37   39 1    
    76   37  160 1    
    77   38  161 1    
    78   38  162 1    
    79   38  163 1    
    80   39   40 am   BACKBONE|DICT|INTERRES
    81   39  164 1    
    82   40   41 2    
    83   40   42 1    
    84   42   43 1    
    85   42   44 1    
    86   42  165 1    
    87   43  166 1    
    88   43  167 1    
    89   43  168 1    
    90   44   45 am   BACKBONE|DICT|INTERRES
    91   44  169 1    
    92   45   46 2    
    93   45   47 1    
    94   47   48 1    
    95   47   49 1    
    96   47  170 1    
    97   48  171 1    
    98   48  172 1    
    99   48  173 1    
   100   49   50 am   BACKBONE|DICT|INTERRES
   101   49  174 1    
   102   50   51 2    
   103   50   52 1    
   104   52   53 1    
   105   52   54 1    
   106   52  175 1    
   107   53  176 1    
   108   53  177 1    
   109   53  178 1    
   110   54   55 am   BACKBONE|DICT|INTERRES
   111   54  179 1    
   112   55   56 2    
   113   55   57 1    
   114   57   58 1    
   115   57   59 1    
   116   57  180 1    
   117   58  181 1    
   118   58  182 1    
   119   58  183 1    
   120   59   60 am   BACKBONE|DICT|INTERRES
   121   59  184 1    
   122   60   61 2    
   123   60   62 1    
   124   62   63 1    
   125   62   64 1    
   126   62  185 1    
   127   63  186 1    
   128   63  187 1    
   129   63  188 1    
   130   64   65 am   BACKBONE|DICT|INTERRES
   131   64  189 1    
   132   65   66 2    
   133   67   68 2    
   134   67   69 am   BACKBONE|DICT|INTERRES
   135   69   70 1    
   136   69  190 1    
   137   70   71 1    
   138   70   72 1    
   139   70  191 1    
   140   71  192 1    
   141   71  193 1    
   142   71  194 1    
   143   72   73 2    
   144   72   74 am   BACKBONE|DICT|INTERRES
   145   74   75 1    
   146   74  195 1    
   147   75   76 1    
   148   75   77 1    
   149   75  196 1    
   150   76  197 1    
   151   76  198 1    
   152   76  199 1    
   153   77   78 2    
   154   77   79 am   BACKBONE|DICT|INTERRES
   155   79   80 1    
   156   79  200 1    
   157   80   81 1    
   158   80   82 1    
   159   80  201 1    
   160   81  202 1    
   161   81  203 1    
   162   81  204 1    
   163   82   83 2    
   164   82   84 am   BACKBONE|DICT|INTERRES
   165   84   85 1    
   166   84  205 1    
   167   85   86 1    
   168   85   87 1    
   169   85  206 1    
   170   86  207 1    
   171   86  208 1    
   172   86  209 1    
   173   87   88 2    
   174   87   89 am   BACKBONE|DICT|INTERRES
   175   89   90 1    
   176   89  210 1    
   177   90   91 1    
   178   90   92 1    
   179   90  211 1    
   180   91  212 1    
   181   91  213 1    
   182   91  214 1    
   183   92   93 2    
   184   92   94 am   BACKBONE|DICT|INTERRES
   185   94   95 1    
   186   94  215 1    
   187   95   96 1    
   188   95   97 1    
   189   95  216 1    
   190   96  217 1    
   191   96  218 1    
   192   96  219 1    
   193   97   98 2    
   194   97   99 am   BACKBONE|DICT|INTERRES
   195   99  100 1    
   196   99  220 1    
   197  100  101 1    
   198  100  102 1    
   199  100  221 1    
   200  101  222 1    
   201  101  223 1    
   202  101  224 1    
   203  102  103 2    
   204  102  104 am   BACKBONE|DICT|INTERRES
   205  104  105 1    
   206  104  225 1    
   207  105  106 1    
   208  105  107 1    
   209  105  226 1    
   210  106  227 1    
   211  106  228 1    
   212  106  229 1    
   213  107  108 2    
   214  107  109 am   BACKBONE|DICT|INTERRES
   215  109  110 1    
   216  109  230 1    
   217  110  111 1    
   218  110  112 1    
   219  110  231 1    
   220  111  232 1    
   221  111  233 1    
   222  111  234 1    
   223  112  113 2    
   224  112  114 am   BACKBONE|DICT|INTERRES
   225  114  115 1    
   226  114  235 1    
   227  115  116 1    
   228  115  117 1    
   229  115  236 1    
   230  116  237 1    
   231  116  238 1    
   232  116  239 1    
   233  117  118 2    
   234  117  119 am   BACKBONE|DICT|INTERRES
   235  119  120 1    
   236  119  240 1    
   237  120  121 1    
   238  120  124 1    
   239  120  241 1    
   240  121  122 am   BACKBONE|DICT|INTERRES
   241  121  123 2    
   242  122  242 1    
   243  122  243 1    
   244  124  125 1    
   245  124  244 1    
   246  124  245 1    
   247  125  126 1    
   248  126  246 1    
   249  126  247 1    
@<TRIPOS>SUBSTRUCTURE
     1 UNK         1 GROUP             0       ****    0 ROOT    
