@<TRIPOS>MOLECULE
3R540
247   249    1
SMALL
USER_CHARGES


@<TRIPOS>ATOM
      1 CA          2.2901   -9.0857  -50.1662 C.3       0 UNK        -0.1800 
      2 C           1.6540   -9.6607  -48.9087 C.2       0 UNK         0.5000 
      3 O           0.8809   -8.9721  -48.2429 O.2       0 UNK        -0.5000 
      4 N           1.9745  -10.9196  -48.5828 N.am      1 UNK        -0.5000 
      5 CA          1.4499  -11.6509  -47.4217 C.3       1 UNK         0.1400 
      6 C6          2.3609  -12.8414  -47.0308 C.3       23 UNK        -0.0398 
      7 S7          2.6776  -14.0262  -48.3858 S.3       23 UNK        -0.2404 
      8 C8          1.6914  -15.4484  -47.8349 C.3       23 UNK        -0.0205 
      9 C9          1.6390  -16.5314  -48.8993 C.ar      23 UNK        -0.0193 
     10 C10         0.8412  -16.3671  -50.0359 C.ar      23 UNK        -0.1150 
     11 C11         0.7959  -17.3596  -51.0189 C.ar      23 UNK        -0.0193 
     12 C12         1.5522  -18.5246  -50.8572 C.ar      23 UNK        -0.1150 
     13 C13         2.3470  -18.7032  -49.7220 C.ar      23 UNK        -0.0193 
     14 C14         2.3877  -17.7015  -48.7487 C.ar      23 UNK        -0.1150 
     15 C15         3.1706  -19.9697  -49.5495 C.3       23 UNK        -0.0205 
     16 S16         2.1557  -21.3398  -48.9193 S.3       23 UNK        -0.2404 
     17 C17         3.4553  -22.5644  -48.5103 C.3       23 UNK        -0.0398 
     18 CA          3.0035  -23.6676  -47.5176 C.3       11 UNK         0.1400 
     19 N           2.5584  -23.0980  -46.2419 N.am      11 UNK        -0.5000 
     20 C           2.1215  -23.7764  -45.1698 C.2       10 UNK         0.5000 
     21 O           2.2034  -25.0005  -45.0641 O.2       10 UNK        -0.5000 
     22 CA          1.4450  -22.9712  -44.0357 C.3       10 UNK         0.1400 
     23 CB          2.3098  -23.0023  -42.7659 C.3       10 UNK        -0.1800 
     24 N           1.1428  -21.5733  -44.3555 N.am      10 UNK        -0.5000 
     25 C           0.4117  -21.1110  -45.3798 C.2       9 UNK         0.5000 
     26 O          -0.1925  -21.8399  -46.1691 O.2       9 UNK        -0.5000 
     27 CA          0.4122  -19.5840  -45.5962 C.3       9 UNK         0.1400 
     28 CB         -0.8874  -18.9714  -45.0555 C.3       9 UNK        -0.1800 
     29 N           1.5453  -18.8867  -44.9757 N.am      9 UNK        -0.5000 
     30 C           2.8474  -19.0880  -45.2318 C.2       8 UNK         0.5000 
     31 O           3.2689  -19.9112  -46.0428 O.2       8 UNK        -0.5000 
     32 CA          3.8461  -18.2667  -44.4009 C.3       8 UNK         0.1400 
     33 CB          3.9880  -16.8393  -44.9485 C.3       8 UNK        -0.1800 
     34 N           3.4331  -18.2060  -43.0001 N.am      8 UNK        -0.5000 
     35 C           3.7917  -19.0968  -42.0662 C.2       7 UNK         0.5000 
     36 O           4.5547  -20.0395  -42.2773 O.2       7 UNK        -0.5000 
     37 CA          3.1989  -18.9095  -40.6559 C.3       7 UNK         0.1400 
     38 CB          4.1526  -18.0845  -39.7785 C.3       7 UNK        -0.1800 
     39 N           1.8808  -18.2721  -40.6563 N.am      7 UNK        -0.5000 
     40 C           0.7607  -18.8436  -41.1188 C.2       6 UNK         0.5000 
     41 O           0.7166  -19.9769  -41.5965 O.2       6 UNK        -0.5000 
     42 CA         -0.5210  -17.9899  -41.0681 C.3       6 UNK         0.1400 
     43 CB         -1.2062  -18.1368  -39.7012 C.3       6 UNK        -0.1800 
     44 N          -0.3271  -16.5640  -41.3570 N.am      6 UNK        -0.5000 
     45 C           0.2597  -16.0544  -42.4481 C.2       5 UNK         0.5000 
     46 O           0.8134  -16.7339  -43.3140 O.2       5 UNK        -0.5000 
     47 CA          0.1909  -14.5282  -42.6178 C.3       5 UNK         0.1400 
     48 CB          1.5165  -13.9603  -43.1504 C.3       5 UNK        -0.1800 
     49 N          -0.8847  -14.1846  -43.5447 N.am      5 UNK        -0.5000 
     50 C          -2.1902  -14.2060  -43.2419 C.2       4 UNK         0.5000 
     51 O          -2.6255  -14.4519  -42.1162 O.2       4 UNK        -0.5000 
     52 CA         -3.1754  -13.9037  -44.3829 C.3       4 UNK         0.1400 
     53 CB         -3.4872  -12.4001  -44.4390 C.3       4 UNK        -0.1800 
     54 N          -2.6556  -14.3274  -45.6824 N.am      4 UNK        -0.5000 
     55 C          -2.8547  -15.5349  -46.2314 C.2       3 UNK         0.5000 
     56 O          -3.4804  -16.4346  -45.6699 O.2       3 UNK        -0.5000 
     57 CA         -2.2449  -15.7900  -47.6315 C.3       3 UNK         0.1400 
     58 CB         -3.1406  -16.6742  -48.5220 C.3       3 UNK        -0.1800 
     59 N          -1.8468  -14.5642  -48.3385 N.am      3 UNK        -0.5000 
     60 C          -2.6335  -13.5550  -48.7397 C.2       2 UNK         0.5000 
     61 O          -3.8633  -13.5814  -48.6812 O.2       2 UNK        -0.5000 
     62 CA         -1.9185  -12.2869  -49.2610 C.3       2 UNK         0.1400 
     63 CB         -2.7048  -11.0055  -48.9153 C.3       2 UNK        -0.1800 
     64 N          -0.5168  -12.1282  -48.8373 N.am      2 UNK        -0.5000 
     65 C          -0.0283  -12.0761  -47.5855 C.2       1 UNK         0.5000 
     66 O          -0.6865  -12.3538  -46.5814 O.2       1 UNK        -0.5000 
     67 C           1.9644  -24.6071  -48.1754 C.2       11 UNK         0.5000 
     68 O           2.3621  -25.5540  -48.8566 O.2       11 UNK        -0.5000 
     69 N           0.6685  -24.3405  -47.9564 N.am      12 UNK        -0.5000 
     70 CA         -0.4383  -25.1409  -48.4811 C.3       12 UNK         0.1400 
     71 CB         -0.7639  -24.6995  -49.9156 C.3       12 UNK        -0.1800 
     72 C          -1.6762  -25.1333  -47.5639 C.2       12 UNK         0.5000 
     73 O          -2.4153  -26.1176  -47.5657 O.2       12 UNK        -0.5000 
     74 N          -1.8504  -24.0773  -46.7550 N.am      13 UNK        -0.5000 
     75 CA         -2.8247  -23.9529  -45.6683 C.3       13 UNK         0.1400 
     76 CB         -2.4746  -24.9383  -44.5275 C.3       13 UNK        -0.1800 
     77 C          -4.3062  -23.9902  -46.1187 C.2       13 UNK         0.5000 
     78 O          -4.6978  -23.2064  -46.9875 O.2       13 UNK        -0.5000 
     79 N          -5.1045  -24.8289  -45.4426 N.am      14 UNK        -0.5000 
     80 CA         -6.5685  -24.8854  -45.4388 C.3       14 UNK         0.1400 
     81 CB         -6.9947  -25.9849  -44.4506 C.3       14 UNK        -0.1800 
     82 C          -7.2442  -25.1048  -46.8068 C.2       14 UNK         0.5000 
     83 O          -6.5983  -25.5033  -47.7760 O.2       14 UNK        -0.5000 
     84 N          -8.5612  -24.8458  -46.8389 N.am      15 UNK        -0.5000 
     85 CA         -9.4628  -24.9532  -47.9963 C.3       15 UNK         0.1400 
     86 CB         -9.5882  -26.4184  -48.4654 C.3       15 UNK        -0.1800 
     87 C          -9.0925  -23.9832  -49.1389 C.2       15 UNK         0.5000 
     88 O          -9.2991  -24.2975  -50.3119 O.2       15 UNK        -0.5000 
     89 N          -8.5313  -22.8247  -48.7581 N.am      16 UNK        -0.5000 
     90 CA         -7.9985  -21.7563  -49.6112 C.3       16 UNK         0.1400 
     91 CB         -9.1125  -21.1124  -50.4621 C.3       16 UNK        -0.1800 
     92 C          -6.7802  -22.1765  -50.4608 C.2       16 UNK         0.5000 
     93 O          -6.4156  -21.4547  -51.3913 O.2       16 UNK        -0.5000 
     94 N          -6.1350  -23.3021  -50.1174 N.am      17 UNK        -0.5000 
     95 CA         -4.9552  -23.8176  -50.8116 C.3       17 UNK         0.1400 
     96 CB         -4.6181  -25.2190  -50.2906 C.3       17 UNK        -0.1800 
     97 C          -3.7473  -22.8705  -50.7028 C.2       17 UNK         0.5000 
     98 O          -2.9975  -22.7369  -51.6690 O.2       17 UNK        -0.5000 
     99 N          -3.6231  -22.1799  -49.5590 N.am      18 UNK        -0.5000 
    100 CA        -2.6551  -21.1078  -49.3246 C.3       18 UNK         0.1400 
    101 CB        -2.8056  -20.5856  -47.8918 C.3       18 UNK        -0.1800 
    102 C         -2.7834  -19.9339  -50.3092 C.2       18 UNK         0.5000 
    103 O         -1.7660  -19.3653  -50.6896 O.2       18 UNK        -0.5000 
    104 N         -4.0164  -19.5929  -50.7082 N.am      19 UNK        -0.5000 
    105 CA        -4.2848  -18.5587  -51.7063 C.3       19 UNK         0.1400 
    106 CB        -5.7144  -18.0245  -51.5306 C.3       19 UNK        -0.1800 
    107 C         -4.0570  -19.0918  -53.1294 C.2       19 UNK         0.5000 
    108 O         -3.4255  -18.4118  -53.9398 O.2       19 UNK        -0.5000 
    109 N         -4.5387  -20.3168  -53.3928 N.am      20 UNK        -0.5000 
    110 CA        -4.4129  -21.0187  -54.6740 C.3       20 UNK         0.1400 
    111 CB        -5.1830  -22.3448  -54.6087 C.3       20 UNK        -0.1800 
    112 C         -2.9550  -21.2636  -55.1095 C.2       20 UNK         0.5000 
    113 O         -2.6776  -21.2707  -56.3093 O.2       20 UNK        -0.5000 
    114 N         -2.0435  -21.4002  -54.1358 N.am      21 UNK        -0.5000 
    115 CA        -0.5942  -21.5147  -54.3202 C.3       21 UNK         0.1400 
    116 CB         0.0655  -21.7041  -52.9447 C.3       21 UNK        -0.1800 
    117 C          0.0544  -20.3327  -55.0759 C.2       21 UNK         0.5000 
    118 O          1.1092  -20.5208  -55.6834 O.2       21 UNK        -0.5000 
    119 N         -0.5884  -19.1576  -55.0505 N.am      22 UNK        -0.5000 
    120 CA        -0.2082  -17.9661  -55.8274 C.3       22 UNK         0.1400 
    121 C         -0.9446  -17.8607  -57.1973 C.2       22 UNK         0.5000 
    122 N         -1.7771  -18.8144  -57.5992 N.am      22 UNK        -0.7600 
    123 O         -0.7406  -16.8976  -57.9315 O.2       22 UNK        -0.5000 
    124 C124       -0.3667  -16.6686  -54.9903 C.3       23 UNK        -0.0398 
    125 S125        0.8730  -16.5509  -53.6566 S.3       23 UNK        -0.2404 
    126 C126       -0.0803  -17.1847  -52.2485 C.3       23 UNK        -0.0205 
    127 H127        2.8760   -8.2004  -49.9191 H         1 UNK         0.0600 
    128 H128        1.5177   -8.7969  -50.8789 H         1 UNK         0.0600 
    129 H129        2.9497   -9.8050  -50.6523 H         1 UNK         0.0600 
    130 H130        2.6197  -11.4379  -49.1635 H         1 UNK         0.3000 
    131 H131        1.4620  -10.9602  -46.5756 H         1 UNK         0.0600 
    132 H132        1.9562  -13.3648  -46.1649 H         1 UNK         0.0800 
    133 H133        3.3281  -12.4565  -46.7050 H         1 UNK         0.0800 
    134 H134        0.6852  -15.1213  -47.5869 H         1 UNK         0.0800 
    135 H135        2.1136  -15.8427  -46.9120 H         1 UNK         0.0800 
    136 H136        0.2635  -15.4631  -50.1629 H         1 UNK         0.1150 
    137 H137        1.5177  -19.2951  -51.6137 H         1 UNK         0.1150 
    138 H138        3.0077  -17.8342  -47.8749 H         1 UNK         0.1150 
    139 H139        3.6167  -20.2570  -50.5026 H         1 UNK         0.0800 
    140 H140        3.9973  -19.7834  -48.8621 H         1 UNK         0.0800 
    141 H141        4.3059  -22.0339  -48.0802 H         1 UNK         0.0800 
    142 H142        3.8223  -23.0076  -49.4378 H         1 UNK         0.0800 
    143 H143        3.8763  -24.2831  -47.2907 H         1 UNK         0.0600 
    144 H144        2.4800  -22.0882  -46.2279 H         1 UNK         0.3000 
    145 H145        0.4967  -23.4636  -43.8170 H         1 UNK         0.0600 
    146 H146        1.8035  -22.5193  -41.9301 H         1 UNK         0.0600 
    147 H147        2.5279  -24.0269  -42.4620 H         1 UNK         0.0600 
    148 H148        3.2629  -22.4947  -42.9195 H         1 UNK         0.0600 
    149 H149        1.5590  -20.8846  -43.7441 H         1 UNK         0.3000 
    150 H150        0.4615  -19.4087  -46.6729 H         1 UNK         0.0600 
    151 H151       -1.7686  -19.4621  -45.4661 H         1 UNK         0.0600 
    152 H152       -0.9571  -17.9117  -45.3001 H         1 UNK         0.0600 
    153 H153       -0.9459  -19.0695  -43.9731 H         1 UNK         0.0600 
    154 H154        1.2978  -18.1617  -44.3051 H         1 UNK         0.3000 
    155 H155        4.8224  -18.7502  -44.4784 H         1 UNK         0.0600 
    156 H156        3.0580  -16.2801  -44.8565 H         1 UNK         0.0600 
    157 H157        4.2723  -16.8474  -46.0013 H         1 UNK         0.0600 
    158 H158        4.7590  -16.2888  -44.4093 H         1 UNK         0.0600 
    159 H159        2.7490  -17.4994  -42.7617 H         1 UNK         0.3000 
    160 H160        3.0956  -19.9008  -40.2092 H         1 UNK         0.0600 
    161 H161        4.2802  -17.0721  -40.1640 H         1 UNK         0.0600 
    162 H162        5.1401  -18.5458  -39.7343 H         1 UNK         0.0600 
    163 H163        3.7838  -18.0113  -38.7552 H         1 UNK         0.0600 
    164 H164        1.8250  -17.3347  -40.2862 H         1 UNK         0.3000 
    165 H165       -1.2041  -18.3800  -41.8232 H         1 UNK         0.0600 
    166 H166       -2.1727  -17.6325  -39.6879 H         1 UNK         0.0600 
    167 H167       -1.3864  -19.1863  -39.4643 H         1 UNK         0.0600 
    168 H168       -0.5975  -17.7185  -38.8985 H         1 UNK         0.0600 
    169 H169       -0.7866  -15.9225  -40.7261 H         1 UNK         0.3000 
    170 H170       -0.0083  -14.0671  -41.6481 H         1 UNK         0.0600 
    171 H171        2.3371  -14.1814  -42.4669 H         1 UNK         0.0600 
    172 H172        1.7764  -14.3844  -44.1193 H         1 UNK         0.0600 
    173 H173        1.4665  -12.8769  -43.2609 H         1 UNK         0.0600 
    174 H174       -0.6181  -13.9790  -44.4962 H         1 UNK         0.3000 
    175 H175       -4.1070  -14.4328  -44.1710 H         1 UNK         0.0600 
    176 H176       -2.5916  -11.8082  -44.6322 H         1 UNK         0.0600 
    177 H177       -4.2102  -12.1775  -45.2240 H         1 UNK         0.0600 
    178 H178       -3.9127  -12.0541  -43.4962 H         1 UNK         0.0600 
    179 H179       -2.1030  -13.6411  -46.1876 H         1 UNK         0.3000 
    180 H180       -1.3277  -16.3514  -47.4511 H         1 UNK         0.0600 
    181 H181       -2.6583  -16.8732  -49.4786 H         1 UNK         0.0600 
    182 H182       -4.1076  -16.2125  -48.7205 H         1 UNK         0.0600 
    183 H183       -3.3337  -17.6379  -48.0515 H         1 UNK         0.0600 
    184 H184       -0.8539  -14.4151  -48.4307 H         1 UNK         0.3000 
    185 H185       -1.8992  -12.3810  -50.3476 H         1 UNK         0.0600 
    186 H186       -3.7054  -11.0247  -49.3489 H         1 UNK         0.0600 
    187 H187       -2.8162  -10.8819  -47.8373 H         1 UNK         0.0600 
    188 H188       -2.2036  -10.1185  -49.3031 H         1 UNK         0.0600 
    189 H189        0.1331  -11.9192  -49.5822 H         1 UNK         0.3000 
    190 H190        0.4371  -23.5414  -47.3794 H         1 UNK         0.3000 
    191 H191       -0.1185  -26.1846  -48.5209 H         1 UNK         0.0600 
    192 H192       -1.6251  -25.2370  -50.3085 H         1 UNK         0.0600 
    193 H193        0.0711  -24.8975  -50.5876 H         1 UNK         0.0600 
    194 H194       -0.9775  -23.6341  -49.9656 H         1 UNK         0.0600 
    195 H195       -1.2256  -23.2808  -46.8267 H         1 UNK         0.3000 
    196 H196       -2.6779  -22.9496  -45.2662 H         1 UNK         0.0600 
    197 H197       -2.6281  -25.9776  -44.8201 H         1 UNK         0.0600 
    198 H198       -1.4311  -24.8353  -44.2315 H         1 UNK         0.0600 
    199 H199       -3.0741  -24.7465  -43.6367 H         1 UNK         0.0600 
    200 H200       -4.6538  -25.4488  -44.7866 H         1 UNK         0.3000 
    201 H201       -6.9171  -23.9240  -45.0567 H         1 UNK         0.0600 
    202 H202       -6.6449  -26.9670  -44.7719 H         1 UNK         0.0600 
    203 H203       -8.0797  -26.0403  -44.3544 H         1 UNK         0.0600 
    204 H204       -6.5964  -25.7970  -43.4532 H         1 UNK         0.0600 
    205 H205       -9.0024  -24.5325  -45.9850 H         1 UNK         0.3000 
    206 H206      -10.4468  -24.6387  -47.6456 H         1 UNK         0.0600 
    207 H207       -9.8477  -27.0769  -47.6365 H         1 UNK         0.0600 
    208 H208      -10.3709  -26.5223  -49.2176 H         1 UNK         0.0600 
    209 H209       -8.6614  -26.7847  -48.9078 H         1 UNK         0.0600 
    210 H210       -8.4043  -22.6837  -47.7659 H         1 UNK         0.3000 
    211 H211       -7.6279  -20.9899  -48.9292 H         1 UNK         0.0600 
    212 H212       -8.7508  -20.2156  -50.9664 H         1 UNK         0.0600 
    213 H213       -9.9597  -20.8151  -49.8442 H         1 UNK         0.0600 
    214 H214       -9.4792  -21.7912  -51.2324 H         1 UNK         0.0600 
    215 H215       -6.4623  -23.8419  -49.3253 H         1 UNK         0.3000 
    216 H216       -5.2143  -23.9110  -51.8666 H         1 UNK         0.0600 
    217 H217       -4.3070  -25.1923  -49.2464 H         1 UNK         0.0600 
    218 H218       -3.8127  -25.6687  -50.8706 H         1 UNK         0.0600 
    219 H219       -5.4780  -25.8849  -50.3652 H         1 UNK         0.0600 
    220 H220       -4.2423  -22.4083  -48.7868 H         1 UNK         0.3000 
    221 H221       -1.6517  -21.5216  -49.4337 H         1 UNK         0.0600 
    222 H222       -2.0866  -19.7882  -47.7039 H         1 UNK         0.0600 
    223 H223       -2.6209  -21.3690  -47.1608 H         1 UNK         0.0600 
    224 H224       -3.8033  -20.1854  -47.7076 H         1 UNK         0.0600 
    225 H225       -4.8033  -20.1463  -50.4004 H         1 UNK         0.3000 
    226 H226       -3.5974  -17.7246  -51.5501 H         1 UNK         0.0600 
    227 H227       -5.8586  -17.6106  -50.5325 H         1 UNK         0.0600 
    228 H228       -5.9206  -17.2273  -52.2457 H         1 UNK         0.0600 
    229 H229       -6.4635  -18.8016  -51.6830 H         1 UNK         0.0600 
    230 H230       -5.0678  -20.7919  -52.6677 H         1 UNK         0.3000 
    231 H231       -4.8811  -20.3894  -55.4334 H         1 UNK         0.0600 
    232 H232       -4.7082  -23.0467  -53.9244 H         1 UNK         0.0600 
    233 H233       -5.2186  -22.8210  -55.5892 H         1 UNK         0.0600 
    234 H234       -6.2118  -22.1942  -54.2808 H         1 UNK         0.0600 
    235 H235       -2.3796  -21.4672  -53.1809 H         1 UNK         0.3000 
    236 H236       -0.4121  -22.4132  -54.9127 H         1 UNK         0.0600 
    237 H237       -0.2867  -22.6148  -52.4598 H         1 UNK         0.0600 
    238 H238        1.1499  -21.7821  -53.0323 H         1 UNK         0.0600 
    239 H239       -0.1521  -20.8688  -52.2793 H         1 UNK         0.0600 
    240 H240       -1.4709  -19.0935  -54.5564 H         1 UNK         0.3000 
    241 H241        0.8473  -18.0440  -56.0937 H         1 UNK         0.0600 
    242 H242       -2.2302  -18.7215  -58.4943 H         1 UNK         0.3800 
    243 H243       -1.9566  -19.6404  -57.0368 H         1 UNK         0.3800 
    244 H244       -1.3746  -16.5911  -54.5793 H         1 UNK         0.0800 
    245 H245       -0.2289  -15.7840  -55.6143 H         1 UNK         0.0800 
    246 H246       -0.9138  -16.5147  -52.0328 H         1 UNK         0.0800 
    247 H247       -0.5189  -18.1437  -52.5210 H         1 UNK         0.0800 
@<TRIPOS>BOND
     1    1    2 1    
     2    1  127 1    
     3    1  128 1    
     4    1  129 1    
     5    2    3 2    
     6    2    4 am   BACKBONE|DICT|INTERRES
     7    4    5 1    
     8    4  130 1    
     9    5    6 1    
    10    5   65 1    
    11    5  131 1    
    12    6    7 1    
    13    6  132 1    
    14    6  133 1    
    15    7    8 1    
    16    8    9 1    
    17    8  134 1    
    18    8  135 1    
    19    9   10 ar   
    20    9   14 ar   
    21   10   11 ar   
    22   10  136 1    
    23   11   12 ar   
    24   11  126 1    
    25   12   13 ar   
    26   12  137 1    
    27   13   14 ar   
    28   13   15 1    
    29   14  138 1    
    30   15   16 1    
    31   15  139 1    
    32   15  140 1    
    33   16   17 1    
    34   17   18 1    
    35   17  141 1    
    36   17  142 1    
    37   18   19 1    
    38   18   67 1    
    39   18  143 1    
    40   19   20 am   BACKBONE|DICT|INTERRES
    41   19  144 1    
    42   20   21 2    
    43   20   22 1    
    44   22   23 1    
    45   22   24 1    
    46   22  145 1    
    47   23  146 1    
    48   23  147 1    
    49   23  148 1    
    50   24   25 am   BACKBONE|DICT|INTERRES
    51   24  149 1    
    52   25   26 2    
    53   25   27 1    
    54   27   28 1    
    55   27   29 1    
    56   27  150 1    
    57   28  151 1    
    58   28  152 1    
    59   28  153 1    
    60   29   30 am   BACKBONE|DICT|INTERRES
    61   29  154 1    
    62   30   31 2    
    63   30   32 1    
    64   32   33 1    
    65   32   34 1    
    66   32  155 1    
    67   33  156 1    
    68   33  157 1    
    69   33  158 1    
    70   34   35 am   BACKBONE|DICT|INTERRES
    71   34  159 1    
    72   35   36 2    
    73   35   37 1    
    74   37   38 1    
    75   37   39 1    
    76   37  160 1    
    77   38  161 1    
    78   38  162 1    
    79   38  163 1    
    80   39   40 am   BACKBONE|DICT|INTERRES
    81   39  164 1    
    82   40   41 2    
    83   40   42 1    
    84   42   43 1    
    85   42   44 1    
    86   42  165 1    
    87   43  166 1    
    88   43  167 1    
    89   43  168 1    
    90   44   45 am   BACKBONE|DICT|INTERRES
    91   44  169 1    
    92   45   46 2    
    93   45   47 1    
    94   47   48 1    
    95   47   49 1    
    96   47  170 1    
    97   48  171 1    
    98   48  172 1    
    99   48  173 1    
   100   49   50 am   BACKBONE|DICT|INTERRES
   101   49  174 1    
   102   50   51 2    
   103   50   52 1    
   104   52   53 1    
   105   52   54 1    
   106   52  175 1    
   107   53  176 1    
   108   53  177 1    
   109   53  178 1    
   110   54   55 am   BACKBONE|DICT|INTERRES
   111   54  179 1    
   112   55   56 2    
   113   55   57 1    
   114   57   58 1    
   115   57   59 1    
   116   57  180 1    
   117   58  181 1    
   118   58  182 1    
   119   58  183 1    
   120   59   60 am   BACKBONE|DICT|INTERRES
   121   59  184 1    
   122   60   61 2    
   123   60   62 1    
   124   62   63 1    
   125   62   64 1    
   126   62  185 1    
   127   63  186 1    
   128   63  187 1    
   129   63  188 1    
   130   64   65 am   BACKBONE|DICT|INTERRES
   131   64  189 1    
   132   65   66 2    
   133   67   68 2    
   134   67   69 am   BACKBONE|DICT|INTERRES
   135   69   70 1    
   136   69  190 1    
   137   70   71 1    
   138   70   72 1    
   139   70  191 1    
   140   71  192 1    
   141   71  193 1    
   142   71  194 1    
   143   72   73 2    
   144   72   74 am   BACKBONE|DICT|INTERRES
   145   74   75 1    
   146   74  195 1    
   147   75   76 1    
   148   75   77 1    
   149   75  196 1    
   150   76  197 1    
   151   76  198 1    
   152   76  199 1    
   153   77   78 2    
   154   77   79 am   BACKBONE|DICT|INTERRES
   155   79   80 1    
   156   79  200 1    
   157   80   81 1    
   158   80   82 1    
   159   80  201 1    
   160   81  202 1    
   161   81  203 1    
   162   81  204 1    
   163   82   83 2    
   164   82   84 am   BACKBONE|DICT|INTERRES
   165   84   85 1    
   166   84  205 1    
   167   85   86 1    
   168   85   87 1    
   169   85  206 1    
   170   86  207 1    
   171   86  208 1    
   172   86  209 1    
   173   87   88 2    
   174   87   89 am   BACKBONE|DICT|INTERRES
   175   89   90 1    
   176   89  210 1    
   177   90   91 1    
   178   90   92 1    
   179   90  211 1    
   180   91  212 1    
   181   91  213 1    
   182   91  214 1    
   183   92   93 2    
   184   92   94 am   BACKBONE|DICT|INTERRES
   185   94   95 1    
   186   94  215 1    
   187   95   96 1    
   188   95   97 1    
   189   95  216 1    
   190   96  217 1    
   191   96  218 1    
   192   96  219 1    
   193   97   98 2    
   194   97   99 am   BACKBONE|DICT|INTERRES
   195   99  100 1    
   196   99  220 1    
   197  100  101 1    
   198  100  102 1    
   199  100  221 1    
   200  101  222 1    
   201  101  223 1    
   202  101  224 1    
   203  102  103 2    
   204  102  104 am   BACKBONE|DICT|INTERRES
   205  104  105 1    
   206  104  225 1    
   207  105  106 1    
   208  105  107 1    
   209  105  226 1    
   210  106  227 1    
   211  106  228 1    
   212  106  229 1    
   213  107  108 2    
   214  107  109 am   BACKBONE|DICT|INTERRES
   215  109  110 1    
   216  109  230 1    
   217  110  111 1    
   218  110  112 1    
   219  110  231 1    
   220  111  232 1    
   221  111  233 1    
   222  111  234 1    
   223  112  113 2    
   224  112  114 am   BACKBONE|DICT|INTERRES
   225  114  115 1    
   226  114  235 1    
   227  115  116 1    
   228  115  117 1    
   229  115  236 1    
   230  116  237 1    
   231  116  238 1    
   232  116  239 1    
   233  117  118 2    
   234  117  119 am   BACKBONE|DICT|INTERRES
   235  119  120 1    
   236  119  240 1    
   237  120  121 1    
   238  120  124 1    
   239  120  241 1    
   240  121  122 am   BACKBONE|DICT|INTERRES
   241  121  123 2    
   242  122  242 1    
   243  122  243 1    
   244  124  125 1    
   245  124  244 1    
   246  124  245 1    
   247  125  126 1    
   248  126  246 1    
   249  126  247 1    
@<TRIPOS>SUBSTRUCTURE
     1 UNK         1 GROUP             0       ****    0 ROOT    
