@<TRIPOS>MOLECULE
3R540
247   249    1
SMALL
USER_CHARGES


@<TRIPOS>ATOM
      1 CA         -5.6756  -11.9416  -43.9003 C.3       0 UNK        -0.1800 
      2 C          -4.4447  -11.9809  -44.7942 C.2       0 UNK         0.5000 
      3 O          -3.3390  -11.7125  -44.3204 O.2       0 UNK        -0.5000 
      4 N          -4.6326  -12.3155  -46.0803 N.am      1 UNK        -0.5000 
      5 CA         -3.5914  -12.3944  -47.1153 C.3       1 UNK         0.1400 
      6 C6         -2.5670  -13.5270  -46.8087 C.3       23 UNK        -0.0398 
      7 S7         -1.7172  -14.1951  -48.2797 S.3       23 UNK        -0.2404 
      8 C8         -2.6195  -15.7511  -48.5513 C.3       23 UNK        -0.0205 
      9 C9         -1.8542  -16.6617  -49.4976 C.ar      23 UNK        -0.0193 
     10 C10        -2.0481  -16.5801  -50.8794 C.ar      23 UNK        -0.1150 
     11 C11        -1.3309  -17.4123  -51.7446 C.ar      23 UNK        -0.0193 
     12 C12        -0.4203  -18.3340  -51.2197 C.ar      23 UNK        -0.1150 
     13 C13        -0.2228  -18.4273  -49.8394 C.ar      23 UNK        -0.0193 
     14 C14        -0.9424  -17.5878  -48.9849 C.ar      23 UNK        -0.1150 
     15 C15         0.7835  -19.4189  -49.2763 C.3       23 UNK        -0.0205 
     16 S16         0.1522  -21.1250  -49.2879 S.3       23 UNK        -0.2404 
     17 C17        -1.2107  -21.0673  -48.0739 C.3       23 UNK        -0.0398 
     18 CA         -1.3027  -22.3848  -47.2676 C.3       11 UNK         0.1400 
     19 N          -0.1620  -22.5847  -46.3660 N.am      11 UNK        -0.5000 
     20 C           0.1109  -23.7428  -45.7479 C.2       10 UNK         0.5000 
     21 O          -0.5433  -24.7714  -45.9122 O.2       10 UNK        -0.5000 
     22 CA          1.2642  -23.7397  -44.7302 C.3       10 UNK         0.1400 
     23 CB          2.6252  -23.8957  -45.4257 C.3       10 UNK        -0.1800 
     24 N           1.2533  -22.5321  -43.9044 N.am      10 UNK        -0.5000 
     25 C           0.3286  -22.2717  -42.9686 C.2       9 UNK         0.5000 
     26 O          -0.5770  -23.0498  -42.6721 O.2       9 UNK        -0.5000 
     27 CA          0.3943  -20.8942  -42.2842 C.3       9 UNK         0.1400 
     28 CB          1.3364  -20.9322  -41.0724 C.3       9 UNK        -0.1800 
     29 N           0.8150  -19.8396  -43.2073 N.am      9 UNK        -0.5000 
     30 C           0.0606  -19.3978  -44.2256 C.2       8 UNK         0.5000 
     31 O          -1.0809  -19.7969  -44.4491 O.2       8 UNK        -0.5000 
     32 CA          0.6993  -18.3908  -45.1993 C.3       8 UNK         0.1400 
     33 CB          0.3657  -16.9523  -44.7910 C.3       8 UNK        -0.1800 
     34 N           2.1480  -18.5529  -45.3321 N.am      8 UNK        -0.5000 
     35 C           2.7290  -19.6636  -45.8105 C.2       7 UNK         0.5000 
     36 O           2.0880  -20.6240  -46.2370 O.2       7 UNK        -0.5000 
     37 CA          4.2664  -19.7507  -45.7683 C.3       7 UNK         0.1400 
     38 CB          4.8526  -19.4306  -47.1511 C.3       7 UNK        -0.1800 
     39 N           4.8986  -18.8862  -44.7683 N.am      7 UNK        -0.5000 
     40 C           4.6786  -18.9152  -43.4459 C.2       6 UNK         0.5000 
     41 O           3.8847  -19.6854  -42.9036 O.2       6 UNK        -0.5000 
     42 CA          5.4344  -17.8822  -42.5826 C.3       6 UNK         0.1400 
     43 CB          6.6330  -17.2232  -43.3021 C.3       6 UNK        -0.1800 
     44 N           4.5452  -16.8460  -42.0435 N.am      6 UNK        -0.5000 
     45 C           3.7076  -16.0614  -42.7361 C.2       5 UNK         0.5000 
     46 O           3.5194  -16.1522  -43.9546 O.2       5 UNK        -0.5000 
     47 CA          2.9645  -14.9813  -41.9339 C.3       5 UNK         0.1400 
     48 CB          3.9086  -13.8247  -41.5549 C.3       5 UNK        -0.1800 
     49 N           1.8731  -14.4882  -42.7627 N.am      5 UNK        -0.5000 
     50 C           0.8045  -13.7951  -42.3628 C.2       4 UNK         0.5000 
     51 O           0.6100  -13.4232  -41.2032 O.2       4 UNK        -0.5000 
     52 CA         -0.2482  -13.5097  -43.4528 C.3       4 UNK         0.1400 
     53 CB         -1.5419  -14.2826  -43.1408 C.3       4 UNK        -0.1800 
     54 N          -0.5744  -12.0928  -43.6394 N.am      4 UNK        -0.5000 
     55 C           0.2828  -11.0663  -43.7430 C.2       3 UNK         0.5000 
     56 O           1.5087  -11.1699  -43.6683 O.2       3 UNK        -0.5000 
     57 CA         -0.3629   -9.6986  -44.0434 C.3       3 UNK         0.1400 
     58 CB          0.5403   -8.5028  -43.6744 C.3       3 UNK        -0.1800 
     59 N          -0.8059   -9.6240  -45.4400 N.am      3 UNK        -0.5000 
     60 C          -0.0533   -9.6954  -46.5504 C.2       2 UNK         0.5000 
     61 O           1.1781   -9.7218  -46.5530 O.2       2 UNK        -0.5000 
     62 CA         -0.8273   -9.8117  -47.8804 C.3       2 UNK         0.1400 
     63 CB          0.0962   -9.9294  -49.1068 C.3       2 UNK        -0.1800 
     64 N          -1.6918  -10.9895  -47.8304 N.am      2 UNK        -0.5000 
     65 C          -2.9449  -11.0063  -47.3648 C.2       1 UNK         0.5000 
     66 O          -3.5712   -9.9757  -47.1023 O.2       1 UNK        -0.5000 
     67 C          -2.6553  -22.5137  -46.5322 C.2       11 UNK         0.5000 
     68 O          -3.5883  -23.0966  -47.0880 O.2       11 UNK        -0.5000 
     69 N          -2.7308  -22.0243  -45.2856 N.am      12 UNK        -0.5000 
     70 CA         -3.8821  -22.1990  -44.3984 C.3       12 UNK         0.1400 
     71 CB         -3.7369  -21.2967  -43.1644 C.3       12 UNK        -0.1800 
     72 C          -4.0901  -23.6677  -43.9848 C.2       12 UNK         0.5000 
     73 O          -5.2224  -24.1487  -44.0257 O.2       12 UNK        -0.5000 
     74 N          -2.9995  -24.3722  -43.6452 N.am      13 UNK        -0.5000 
     75 CA         -2.9976  -25.8060  -43.3307 C.3       13 UNK         0.1400 
     76 CB         -1.6171  -26.2188  -42.7993 C.3       13 UNK        -0.1800 
     77 C          -3.4093  -26.6878  -44.5269 C.2       13 UNK         0.5000 
     78 O          -4.0632  -27.7125  -44.3320 O.2       13 UNK        -0.5000 
     79 N          -3.0712  -26.2418  -45.7440 N.am      14 UNK        -0.5000 
     80 CA         -3.5080  -26.8150  -47.0187 C.3       14 UNK         0.1400 
     81 CB         -2.5294  -26.3750  -48.1222 C.3       14 UNK        -0.1800 
     82 C          -4.9611  -26.4497  -47.3976 C.2       14 UNK         0.5000 
     83 O          -5.3937  -26.7991  -48.4956 O.2       14 UNK        -0.5000 
     84 N          -5.6843  -25.7342  -46.5210 N.am      15 UNK        -0.5000 
     85 CA         -7.0742  -25.2865  -46.6689 C.3       15 UNK         0.1400 
     86 CB         -8.0374  -26.4918  -46.6543 C.3       15 UNK        -0.1800 
     87 C          -7.2836  -24.3618  -47.8858 C.2       15 UNK         0.5000 
     88 O          -8.3377  -24.4054  -48.5221 O.2       15 UNK        -0.5000 
     89 N          -6.2554  -23.5573  -48.1942 N.am      16 UNK        -0.5000 
     90 CA         -6.1484  -22.6344  -49.3256 C.3       16 UNK         0.1400 
     91 CB         -7.2294  -21.5356  -49.2639 C.3       16 UNK        -0.1800 
     92 C          -6.0789  -23.3214  -50.7059 C.2       16 UNK         0.5000 
     93 O          -6.1733  -22.6301  -51.7191 O.2       16 UNK        -0.5000 
     94 N          -5.8464  -24.6436  -50.7580 N.am      17 UNK        -0.5000 
     95 CA         -5.6203  -25.3800  -52.0098 C.3       17 UNK         0.1400 
     96 CB         -5.6449  -26.8897  -51.7324 C.3       17 UNK        -0.1800 
     97 C          -4.2992  -24.9803  -52.6987 C.2       17 UNK         0.5000 
     98 O          -4.1924  -25.0552  -53.9229 O.2       17 UNK        -0.5000 
     99 N          -3.3325  -24.5230  -51.8925 N.am      18 UNK        -0.5000 
    100 CA        -2.0363  -24.0015  -52.3190 C.3       18 UNK         0.1400 
    101 CB        -1.0801  -24.0595  -51.1196 C.3       18 UNK        -0.1800 
    102 C         -2.0982  -22.5730  -52.9013 C.2       18 UNK         0.5000 
    103 O         -1.0867  -22.1024  -53.4221 O.2       18 UNK        -0.5000 
    104 N         -3.2632  -21.9036  -52.8399 N.am      19 UNK        -0.5000 
    105 CA        -3.4685  -20.5335  -53.3304 C.3       19 UNK         0.1400 
    106 CB        -4.8486  -20.0212  -52.8973 C.3       19 UNK        -0.1800 
    107 C         -3.2766  -20.3597  -54.8527 C.2       19 UNK         0.5000 
    108 O         -3.1079  -19.2318  -55.3174 O.2       19 UNK        -0.5000 
    109 N         -3.2407  -21.4729  -55.5990 N.am      20 UNK        -0.5000 
    110 CA        -2.8489  -21.5380  -57.0084 C.3       20 UNK         0.1400 
    111 CB        -3.0167  -22.9825  -57.5022 C.3       20 UNK        -0.1800 
    112 C         -1.4118  -21.0388  -57.2780 C.2       20 UNK         0.5000 
    113 O         -1.1278  -20.6063  -58.3959 O.2       20 UNK        -0.5000 
    114 N         -0.5447  -21.0571  -56.2516 N.am      21 UNK        -0.5000 
    115 CA         0.8259  -20.5365  -56.2841 C.3       21 UNK         0.1400 
    116 CB         1.5087  -20.8424  -54.9422 C.3       21 UNK        -0.1800 
    117 C          0.9257  -19.0288  -56.5988 C.2       21 UNK         0.5000 
    118 O          1.9615  -18.5893  -57.1000 O.2       21 UNK        -0.5000 
    119 N         -0.1454  -18.2721  -56.3242 N.am      22 UNK        -0.5000 
    120 CA        -0.2838  -16.8556  -56.6992 C.3       22 UNK         0.1400 
    121 C         -0.7141  -16.6376  -58.1823 C.2       22 UNK         0.5000 
    122 N         -1.0083  -17.6704  -58.9652 N.am      22 UNK        -0.7600 
    123 O         -0.7700  -15.5001  -58.6417 O.2       22 UNK        -0.5000 
    124 C124       -1.2209  -16.0912  -55.7283 C.3       23 UNK        -0.0398 
    125 S125       -0.5793  -16.0169  -54.0192 S.3       23 UNK        -0.2404 
    126 C126       -1.5586  -17.3338  -53.2437 C.3       23 UNK        -0.0205 
    127 H127       -6.5815  -12.2102  -44.4443 H         1 UNK         0.0600 
    128 H128       -5.8080  -10.9404  -43.4906 H         1 UNK         0.0600 
    129 H129       -5.5571  -12.6382  -43.0704 H         1 UNK         0.0600 
    130 H130       -5.5737  -12.4866  -46.4056 H         1 UNK         0.3000 
    131 H131       -4.1171  -12.6520  -48.0359 H         1 UNK         0.0600 
    132 H132       -3.0732  -14.3535  -46.3087 H         1 UNK         0.0800 
    133 H133       -1.8115  -13.1858  -46.0999 H         1 UNK         0.0800 
    134 H134       -3.6108  -15.5328  -48.9515 H         1 UNK         0.0800 
    135 H135       -2.7743  -16.2638  -47.6006 H         1 UNK         0.0800 
    136 H136       -2.7508  -15.8643  -51.2823 H         1 UNK         0.1150 
    137 H137        0.1338  -18.9832  -51.8835 H         1 UNK         0.1150 
    138 H138       -0.7909  -17.6434  -47.9181 H         1 UNK         0.1150 
    139 H139        1.6954  -19.3819  -49.8738 H         1 UNK         0.0800 
    140 H140        1.0784  -19.1416  -48.2660 H         1 UNK         0.0800 
    141 H141       -2.1313  -20.8843  -48.6314 H         1 UNK         0.0800 
    142 H142       -1.0815  -20.2180  -47.4023 H         1 UNK         0.0800 
    143 H143       -1.2789  -23.2077  -47.9838 H         1 UNK         0.0600 
    144 H144        0.4681  -21.7997  -46.2336 H         1 UNK         0.3000 
    145 H145        1.1290  -24.5995  -44.0708 H         1 UNK         0.0600 
    146 H146        3.4402  -23.9020  -44.7019 H         1 UNK         0.0600 
    147 H147        2.6710  -24.8370  -45.9746 H         1 UNK         0.0600 
    148 H148        2.8165  -23.0960  -46.1403 H         1 UNK         0.0600 
    149 H149        1.9333  -21.8201  -44.1282 H         1 UNK         0.3000 
    150 H150       -0.6072  -20.6502  -41.9241 H         1 UNK         0.0600 
    151 H151        0.9879  -21.6548  -40.3335 H         1 UNK         0.0600 
    152 H152        1.3875  -19.9611  -40.5798 H         1 UNK         0.0600 
    153 H153        2.3494  -21.2193  -41.3557 H         1 UNK         0.0600 
    154 H154        1.7701  -19.5115  -43.1168 H         1 UNK         0.3000 
    155 H155        0.2591  -18.5721  -46.1781 H         1 UNK         0.0600 
    156 H156        0.6975  -16.7465  -43.7740 H         1 UNK         0.0600 
    157 H157       -0.7109  -16.7816  -44.8281 H         1 UNK         0.0600 
    158 H158        0.8331  -16.2292  -45.4597 H         1 UNK         0.0600 
    159 H159        2.7325  -17.8007  -44.9824 H         1 UNK         0.3000 
    160 H160        4.5217  -20.7823  -45.5180 H         1 UNK         0.0600 
    161 H161        4.6554  -18.3978  -47.4413 H         1 UNK         0.0600 
    162 H162        4.4203  -20.0751  -47.9181 H         1 UNK         0.0600 
    163 H163        5.9315  -19.5859  -47.1689 H         1 UNK         0.0600 
    164 H164        5.5355  -18.1877  -45.1228 H         1 UNK         0.3000 
    165 H165        5.8272  -18.4340  -41.7273 H         1 UNK         0.0600 
    166 H166        6.3211  -16.5967  -44.1387 H         1 UNK         0.0600 
    167 H167        7.1958  -16.5914  -42.6149 H         1 UNK         0.0600 
    168 H168        7.3263  -17.9737  -43.6843 H         1 UNK         0.0600 
    169 H169        4.5994  -16.7162  -41.0429 H         1 UNK         0.3000 
    170 H170        2.5514  -15.4380  -41.0322 H         1 UNK         0.0600 
    171 H171        4.3264  -13.3442  -42.4406 H         1 UNK         0.0600 
    172 H172        3.3902  -13.0606  -40.9757 H         1 UNK         0.0600 
    173 H173        4.7425  -14.1778  -40.9474 H         1 UNK         0.0600 
    174 H174        1.9636  -14.7705  -43.7314 H         1 UNK         0.3000 
    175 H175        0.1371  -13.8695  -44.4087 H         1 UNK         0.0600 
    176 H176       -2.0533  -13.8675  -42.2714 H         1 UNK         0.0600 
    177 H177       -2.2380  -14.2575  -43.9772 H         1 UNK         0.0600 
    178 H178       -1.3368  -15.3315  -42.9248 H         1 UNK         0.0600 
    179 H179       -1.5658  -11.8924  -43.7544 H         1 UNK         0.3000 
    180 H180       -1.2618   -9.6266  -43.4287 H         1 UNK         0.0600 
    181 H181        0.0364   -7.5557  -43.8666 H         1 UNK         0.0600 
    182 H182        1.4767   -8.5025  -44.2326 H         1 UNK         0.0600 
    183 H183        0.7960   -8.5263  -42.6146 H         1 UNK         0.0600 
    184 H184       -1.8101   -9.6382  -45.5680 H         1 UNK         0.3000 
    185 H185       -1.4246   -8.9051  -47.9976 H         1 UNK         0.0600 
    186 H186       -0.4820   -9.9898  -50.0290 H         1 UNK         0.0600 
    187 H187        0.7486   -9.0592  -49.1900 H         1 UNK         0.0600 
    188 H188        0.7311  -10.8147  -49.0518 H         1 UNK         0.0600 
    189 H189       -1.2462  -11.8763  -48.0287 H         1 UNK         0.3000 
    190 H190       -1.9535  -21.4847  -44.9175 H         1 UNK         0.3000 
    191 H191       -4.7735  -21.8801  -44.9430 H         1 UNK         0.0600 
    192 H192       -4.6004  -21.3951  -42.5054 H         1 UNK         0.0600 
    193 H193       -3.6646  -20.2473  -43.4504 H         1 UNK         0.0600 
    194 H194       -2.8503  -21.5467  -42.5823 H         1 UNK         0.0600 
    195 H195       -2.1070  -23.8928  -43.5739 H         1 UNK         0.3000 
    196 H196       -3.7280  -25.9704  -42.5359 H         1 UNK         0.0600 
    197 H197       -0.8359  -26.0638  -43.5432 H         1 UNK         0.0600 
    198 H198       -1.3504  -25.6488  -41.9092 H         1 UNK         0.0600 
    199 H199       -1.6040  -27.2744  -42.5253 H         1 UNK         0.0600 
    200 H200       -2.4589  -25.4347  -45.8024 H         1 UNK         0.3000 
    201 H201       -3.4620  -27.9029  -46.9414 H         1 UNK         0.0600 
    202 H202       -2.7655  -26.8527  -49.0739 H         1 UNK         0.0600 
    203 H203       -2.5602  -25.2976  -48.2810 H         1 UNK         0.0600 
    204 H204       -1.5037  -26.6464  -47.8716 H         1 UNK         0.0600 
    205 H205       -5.2379  -25.4439  -45.6589 H         1 UNK         0.3000 
    206 H206       -7.2946  -24.6799  -45.7898 H         1 UNK         0.0600 
    207 H207       -7.8682  -27.1199  -45.7796 H         1 UNK         0.0600 
    208 H208       -9.0764  -26.1624  -46.6193 H         1 UNK         0.0600 
    209 H209       -7.9217  -27.1144  -47.5420 H         1 UNK         0.0600 
    210 H210       -5.4191  -23.6087  -47.6180 H         1 UNK         0.3000 
    211 H211       -5.1842  -22.1392  -49.2027 H         1 UNK         0.0600 
    212 H212       -7.0357  -20.7551  -50.0007 H         1 UNK         0.0600 
    213 H213       -7.2494  -21.0565  -48.2851 H         1 UNK         0.0600 
    214 H214       -8.2248  -21.9311  -49.4663 H         1 UNK         0.0600 
    215 H215       -5.7915  -25.1773  -49.8979 H         1 UNK         0.3000 
    216 H216       -6.4379  -25.1456  -52.6946 H         1 UNK         0.0600 
    217 H217       -4.8153  -27.1953  -51.0938 H         1 UNK         0.0600 
    218 H218       -5.5686  -27.4573  -52.6606 H         1 UNK         0.0600 
    219 H219       -6.5726  -27.1875  -51.2432 H         1 UNK         0.0600 
    220 H220       -3.5208  -24.5020  -50.9017 H         1 UNK         0.3000 
    221 H221       -1.6404  -24.6509  -53.1025 H         1 UNK         0.0600 
    222 H222       -0.9569  -25.0809  -50.7590 H         1 UNK         0.0600 
    223 H223       -1.4506  -23.4543  -50.2936 H         1 UNK         0.0600 
    224 H224       -0.0894  -23.6865  -51.3834 H         1 UNK         0.0600 
    225 H225       -4.0719  -22.3576  -52.4349 H         1 UNK         0.3000 
    226 H226       -2.7189  -19.9130  -52.8390 H         1 UNK         0.0600 
    227 H227       -5.6524  -20.5891  -53.3669 H         1 UNK         0.0600 
    228 H228       -4.9739  -20.0848  -51.8162 H         1 UNK         0.0600 
    229 H229       -4.9815  -18.9751  -53.1763 H         1 UNK         0.0600 
    230 H230       -3.3971  -22.3557  -55.1343 H         1 UNK         0.3000 
    231 H231       -3.5290  -20.8973  -57.5732 H         1 UNK         0.0600 
    232 H232       -2.3767  -23.6725  -56.9505 H         1 UNK         0.0600 
    233 H233       -2.7587  -23.0676  -58.5587 H         1 UNK         0.0600 
    234 H234       -4.0474  -23.3203  -57.3924 H         1 UNK         0.0600 
    235 H235       -0.8538  -21.4296  -55.3596 H         1 UNK         0.3000 
    236 H236        1.3615  -21.0701  -57.0717 H         1 UNK         0.0600 
    237 H237        1.0045  -20.3434  -54.1134 H         1 UNK         0.0600 
    238 H238        1.5131  -21.9128  -54.7355 H         1 UNK         0.0600 
    239 H239        2.5469  -20.5079  -54.9446 H         1 UNK         0.0600 
    240 H240       -0.9717  -18.7130  -55.9420 H         1 UNK         0.3000 
    241 H241        0.7006  -16.3906  -56.6186 H         1 UNK         0.0600 
    242 H242       -1.2764  -17.4984  -59.9212 H         1 UNK         0.3800 
    243 H243       -0.9612  -18.6258  -58.6286 H         1 UNK         0.3800 
    244 H244       -2.2201  -16.5302  -55.7368 H         1 UNK         0.0800 
    245 H245       -1.3476  -15.0580  -56.0562 H         1 UNK         0.0800 
    246 H246       -2.6195  -17.1792  -53.4463 H         1 UNK         0.0800 
    247 H247       -1.2801  -18.2798  -53.7063 H         1 UNK         0.0800 
@<TRIPOS>BOND
     1    1    2 1    
     2    1  127 1    
     3    1  128 1    
     4    1  129 1    
     5    2    3 2    
     6    2    4 am   BACKBONE|DICT|INTERRES
     7    4    5 1    
     8    4  130 1    
     9    5    6 1    
    10    5   65 1    
    11    5  131 1    
    12    6    7 1    
    13    6  132 1    
    14    6  133 1    
    15    7    8 1    
    16    8    9 1    
    17    8  134 1    
    18    8  135 1    
    19    9   10 ar   
    20    9   14 ar   
    21   10   11 ar   
    22   10  136 1    
    23   11   12 ar   
    24   11  126 1    
    25   12   13 ar   
    26   12  137 1    
    27   13   14 ar   
    28   13   15 1    
    29   14  138 1    
    30   15   16 1    
    31   15  139 1    
    32   15  140 1    
    33   16   17 1    
    34   17   18 1    
    35   17  141 1    
    36   17  142 1    
    37   18   19 1    
    38   18   67 1    
    39   18  143 1    
    40   19   20 am   BACKBONE|DICT|INTERRES
    41   19  144 1    
    42   20   21 2    
    43   20   22 1    
    44   22   23 1    
    45   22   24 1    
    46   22  145 1    
    47   23  146 1    
    48   23  147 1    
    49   23  148 1    
    50   24   25 am   BACKBONE|DICT|INTERRES
    51   24  149 1    
    52   25   26 2    
    53   25   27 1    
    54   27   28 1    
    55   27   29 1    
    56   27  150 1    
    57   28  151 1    
    58   28  152 1    
    59   28  153 1    
    60   29   30 am   BACKBONE|DICT|INTERRES
    61   29  154 1    
    62   30   31 2    
    63   30   32 1    
    64   32   33 1    
    65   32   34 1    
    66   32  155 1    
    67   33  156 1    
    68   33  157 1    
    69   33  158 1    
    70   34   35 am   BACKBONE|DICT|INTERRES
    71   34  159 1    
    72   35   36 2    
    73   35   37 1    
    74   37   38 1    
    75   37   39 1    
    76   37  160 1    
    77   38  161 1    
    78   38  162 1    
    79   38  163 1    
    80   39   40 am   BACKBONE|DICT|INTERRES
    81   39  164 1    
    82   40   41 2    
    83   40   42 1    
    84   42   43 1    
    85   42   44 1    
    86   42  165 1    
    87   43  166 1    
    88   43  167 1    
    89   43  168 1    
    90   44   45 am   BACKBONE|DICT|INTERRES
    91   44  169 1    
    92   45   46 2    
    93   45   47 1    
    94   47   48 1    
    95   47   49 1    
    96   47  170 1    
    97   48  171 1    
    98   48  172 1    
    99   48  173 1    
   100   49   50 am   BACKBONE|DICT|INTERRES
   101   49  174 1    
   102   50   51 2    
   103   50   52 1    
   104   52   53 1    
   105   52   54 1    
   106   52  175 1    
   107   53  176 1    
   108   53  177 1    
   109   53  178 1    
   110   54   55 am   BACKBONE|DICT|INTERRES
   111   54  179 1    
   112   55   56 2    
   113   55   57 1    
   114   57   58 1    
   115   57   59 1    
   116   57  180 1    
   117   58  181 1    
   118   58  182 1    
   119   58  183 1    
   120   59   60 am   BACKBONE|DICT|INTERRES
   121   59  184 1    
   122   60   61 2    
   123   60   62 1    
   124   62   63 1    
   125   62   64 1    
   126   62  185 1    
   127   63  186 1    
   128   63  187 1    
   129   63  188 1    
   130   64   65 am   BACKBONE|DICT|INTERRES
   131   64  189 1    
   132   65   66 2    
   133   67   68 2    
   134   67   69 am   BACKBONE|DICT|INTERRES
   135   69   70 1    
   136   69  190 1    
   137   70   71 1    
   138   70   72 1    
   139   70  191 1    
   140   71  192 1    
   141   71  193 1    
   142   71  194 1    
   143   72   73 2    
   144   72   74 am   BACKBONE|DICT|INTERRES
   145   74   75 1    
   146   74  195 1    
   147   75   76 1    
   148   75   77 1    
   149   75  196 1    
   150   76  197 1    
   151   76  198 1    
   152   76  199 1    
   153   77   78 2    
   154   77   79 am   BACKBONE|DICT|INTERRES
   155   79   80 1    
   156   79  200 1    
   157   80   81 1    
   158   80   82 1    
   159   80  201 1    
   160   81  202 1    
   161   81  203 1    
   162   81  204 1    
   163   82   83 2    
   164   82   84 am   BACKBONE|DICT|INTERRES
   165   84   85 1    
   166   84  205 1    
   167   85   86 1    
   168   85   87 1    
   169   85  206 1    
   170   86  207 1    
   171   86  208 1    
   172   86  209 1    
   173   87   88 2    
   174   87   89 am   BACKBONE|DICT|INTERRES
   175   89   90 1    
   176   89  210 1    
   177   90   91 1    
   178   90   92 1    
   179   90  211 1    
   180   91  212 1    
   181   91  213 1    
   182   91  214 1    
   183   92   93 2    
   184   92   94 am   BACKBONE|DICT|INTERRES
   185   94   95 1    
   186   94  215 1    
   187   95   96 1    
   188   95   97 1    
   189   95  216 1    
   190   96  217 1    
   191   96  218 1    
   192   96  219 1    
   193   97   98 2    
   194   97   99 am   BACKBONE|DICT|INTERRES
   195   99  100 1    
   196   99  220 1    
   197  100  101 1    
   198  100  102 1    
   199  100  221 1    
   200  101  222 1    
   201  101  223 1    
   202  101  224 1    
   203  102  103 2    
   204  102  104 am   BACKBONE|DICT|INTERRES
   205  104  105 1    
   206  104  225 1    
   207  105  106 1    
   208  105  107 1    
   209  105  226 1    
   210  106  227 1    
   211  106  228 1    
   212  106  229 1    
   213  107  108 2    
   214  107  109 am   BACKBONE|DICT|INTERRES
   215  109  110 1    
   216  109  230 1    
   217  110  111 1    
   218  110  112 1    
   219  110  231 1    
   220  111  232 1    
   221  111  233 1    
   222  111  234 1    
   223  112  113 2    
   224  112  114 am   BACKBONE|DICT|INTERRES
   225  114  115 1    
   226  114  235 1    
   227  115  116 1    
   228  115  117 1    
   229  115  236 1    
   230  116  237 1    
   231  116  238 1    
   232  116  239 1    
   233  117  118 2    
   234  117  119 am   BACKBONE|DICT|INTERRES
   235  119  120 1    
   236  119  240 1    
   237  120  121 1    
   238  120  124 1    
   239  120  241 1    
   240  121  122 am   BACKBONE|DICT|INTERRES
   241  121  123 2    
   242  122  242 1    
   243  122  243 1    
   244  124  125 1    
   245  124  244 1    
   246  124  245 1    
   247  125  126 1    
   248  126  246 1    
   249  126  247 1    
@<TRIPOS>SUBSTRUCTURE
     1 UNK         1 GROUP             0       ****    0 ROOT    
