@<TRIPOS>MOLECULE
3R540
247   249    1
SMALL
USER_CHARGES


@<TRIPOS>ATOM
      1 CA          0.3570  -11.0650  -46.2268 C.3       0 UNK        -0.1800 
      2 C           1.5497  -11.3008  -47.1436 C.2       0 UNK         0.5000 
      3 O           1.9232  -10.4079  -47.9041 O.2       0 UNK        -0.5000 
      4 N           2.1481  -12.4930  -47.0599 N.am      1 UNK        -0.5000 
      5 CA          3.3275  -12.9210  -47.8235 C.3       1 UNK         0.1400 
      6 C6          3.0224  -14.1840  -48.6692 C.3       23 UNK        -0.0398 
      7 S7          1.8667  -13.8306  -50.0402 S.3       23 UNK        -0.2404 
      8 C8          2.7065  -14.6133  -51.4582 C.3       23 UNK        -0.0205 
      9 C9          2.3895  -16.0995  -51.5422 C.ar      23 UNK        -0.0193 
     10 C10         1.4184  -16.5630  -52.4369 C.ar      23 UNK        -0.1150 
     11 C11         1.0909  -17.9215  -52.4861 C.ar      23 UNK        -0.0193 
     12 C12         1.7493  -18.8188  -51.6439 C.ar      23 UNK        -0.1150 
     13 C13         2.6950  -18.3630  -50.7225 C.ar      23 UNK        -0.0193 
     14 C14         3.0357  -17.0089  -50.6990 C.ar      23 UNK        -0.1150 
     15 C15         3.2808  -19.3199  -49.6948 C.3       23 UNK        -0.0205 
     16 S16         2.5723  -19.0376  -48.0344 S.3       23 UNK        -0.2404 
     17 C17         0.7808  -19.2535  -48.3230 C.3       23 UNK        -0.0398 
     18 CA          0.2228  -20.5264  -47.6536 C.3       11 UNK         0.1400 
     19 N           0.1773  -20.4158  -46.1953 N.am      11 UNK        -0.5000 
     20 C          -0.0235  -21.4430  -45.3596 C.2       10 UNK         0.5000 
     21 O          -0.1417  -22.6116  -45.7273 O.2       10 UNK        -0.5000 
     22 CA         -0.1698  -21.0910  -43.8678 C.3       10 UNK         0.1400 
     23 CB          1.2080  -20.9275  -43.2083 C.3       10 UNK        -0.1800 
     24 N          -0.9574  -19.8733  -43.6630 N.am      10 UNK        -0.5000 
     25 C          -2.2636  -19.7616  -43.9457 C.2       9 UNK         0.5000 
     26 O          -2.9559  -20.6971  -44.3444 O.2       9 UNK        -0.5000 
     27 CA         -2.8883  -18.3587  -43.8223 C.3       9 UNK         0.1400 
     28 CB         -3.5125  -18.1505  -42.4349 C.3       9 UNK        -0.1800 
     29 N          -1.9448  -17.2730  -44.1090 N.am      9 UNK        -0.5000 
     30 C          -1.3970  -17.0590  -45.3181 C.2       8 UNK         0.5000 
     31 O          -1.6109  -17.7943  -46.2818 O.2       8 UNK        -0.5000 
     32 CA         -0.4428  -15.8643  -45.5004 C.3       8 UNK         0.1400 
     33 CB         -1.0462  -14.8100  -46.4449 C.3       8 UNK        -0.1800 
     34 N          -0.0747  -15.2531  -44.2261 N.am      8 UNK        -0.5000 
     35 C           1.0259  -14.5453  -43.9764 C.2       7 UNK         0.5000 
     36 O           1.8631  -14.2623  -44.8338 O.2       7 UNK        -0.5000 
     37 CA          1.2452  -14.0869  -42.5226 C.3       7 UNK         0.1400 
     38 CB          0.3407  -12.8897  -42.1803 C.3       7 UNK        -0.1800 
     39 N           1.1292  -15.1488  -41.5128 N.am      7 UNK        -0.5000 
     40 C           0.0662  -15.8934  -41.1645 C.2       6 UNK         0.5000 
     41 O          -1.0322  -15.8248  -41.7204 O.2       6 UNK        -0.5000 
     42 CA          0.2537  -16.9048  -40.0149 C.3       6 UNK         0.1400 
     43 CB          0.3173  -18.3398  -40.5589 C.3       6 UNK        -0.1800 
     44 N           1.4542  -16.6547  -39.2181 N.am      6 UNK        -0.5000 
     45 C           1.5837  -15.6789  -38.3079 C.2       5 UNK         0.5000 
     46 O           0.6687  -14.9191  -37.9889 O.2       5 UNK        -0.5000 
     47 CA          2.9712  -15.5111  -37.6535 C.3       5 UNK         0.1400 
     48 CB          2.9751  -16.1127  -36.2397 C.3       5 UNK        -0.1800 
     49 N           4.0658  -16.1090  -38.4254 N.am      5 UNK        -0.5000 
     50 C           4.4751  -15.6930  -39.6315 C.2       4 UNK         0.5000 
     51 O           3.9802  -14.7243  -40.2143 O.2       4 UNK        -0.5000 
     52 CA          5.6093  -16.4970  -40.3072 C.3       4 UNK         0.1400 
     53 CB          5.7544  -17.9412  -39.7761 C.3       4 UNK        -0.1800 
     54 N           5.4816  -16.5019  -41.7669 N.am      4 UNK        -0.5000 
     55 C           4.4496  -16.9511  -42.4940 C.2       3 UNK         0.5000 
     56 O           3.4530  -17.4908  -42.0104 O.2       3 UNK        -0.5000 
     57 CA          4.5437  -16.7053  -44.0144 C.3       3 UNK         0.1400 
     58 CB          3.4012  -17.3790  -44.7961 C.3       3 UNK        -0.1800 
     59 N           4.5459  -15.2731  -44.3196 N.am      3 UNK        -0.5000 
     60 C           5.5872  -14.4413  -44.1718 C.2       2 UNK         0.5000 
     61 O           6.6957  -14.8109  -43.7775 O.2       2 UNK        -0.5000 
     62 CA          5.3344  -12.9530  -44.4957 C.3       2 UNK         0.1400 
     63 CB          6.6330  -12.1524  -44.7275 C.3       2 UNK        -0.1800 
     64 N           4.3900  -12.7613  -45.6012 N.am      2 UNK        -0.5000 
     65 C           4.5308  -13.1506  -46.8791 C.2       1 UNK         0.5000 
     66 O           5.5538  -13.6757  -47.3204 O.2       1 UNK        -0.5000 
     67 C          -1.1601  -20.8823  -48.2315 C.2       11 UNK         0.5000 
     68 O          -1.2377  -21.7347  -49.1143 O.2       11 UNK        -0.5000 
     69 N          -2.2271  -20.2631  -47.7052 N.am      12 UNK        -0.5000 
     70 CA         -3.6122  -20.5621  -48.0749 C.3       12 UNK         0.1400 
     71 CB         -4.5617  -19.5586  -47.4061 C.3       12 UNK        -0.1800 
     72 C          -4.0124  -22.0092  -47.7336 C.2       12 UNK         0.5000 
     73 O          -4.6573  -22.6660  -48.5512 O.2       12 UNK        -0.5000 
     74 N          -3.5837  -22.4946  -46.5594 N.am      13 UNK        -0.5000 
     75 CA         -3.7464  -23.8809  -46.1221 C.3       13 UNK         0.1400 
     76 CB         -3.3319  -24.0151  -44.6495 C.3       13 UNK        -0.1800 
     77 C          -2.9708  -24.8735  -47.0069 C.2       13 UNK         0.5000 
     78 O          -3.5325  -25.8980  -47.3947 O.2       13 UNK        -0.5000 
     79 N          -1.7206  -24.5355  -47.3582 N.am      14 UNK        -0.5000 
     80 CA         -0.8806  -25.3040  -48.2842 C.3       14 UNK         0.1400 
     81 CB          0.5413  -24.7233  -48.2972 C.3       14 UNK        -0.1800 
     82 C          -1.4601  -25.3687  -49.7122 C.2       14 UNK         0.5000 
     83 O          -1.3424  -26.4017  -50.3714 O.2       14 UNK        -0.5000 
     84 N          -2.1238  -24.2861  -50.1383 N.am      15 UNK        -0.5000 
     85 CA         -2.8848  -24.1810  -51.3845 C.3       15 UNK         0.1400 
     86 CB         -2.9754  -22.6982  -51.7874 C.3       15 UNK        -0.1800 
     87 C          -4.2883  -24.8249  -51.3087 C.2       15 UNK         0.5000 
     88 O          -5.0593  -24.6742  -52.2565 O.2       15 UNK        -0.5000 
     89 N          -4.6091  -25.5093  -50.1987 N.am      16 UNK        -0.5000 
     90 CA         -5.8533  -26.2344  -49.9200 C.3       16 UNK         0.1400 
     91 CB         -5.9919  -27.4552  -50.8530 C.3       16 UNK        -0.1800 
     92 C          -7.0932  -25.3181  -49.9194 C.2       16 UNK         0.5000 
     93 O          -8.1091  -25.6460  -50.5339 O.2       16 UNK        -0.5000 
     94 N          -6.9662  -24.1739  -49.2315 N.am      17 UNK        -0.5000 
     95 CA         -7.9281  -23.0692  -49.1550 C.3       17 UNK         0.1400 
     96 CB         -9.2655  -23.5152  -48.5263 C.3       17 UNK        -0.1800 
     97 C          -8.0858  -22.3571  -50.5133 C.2       17 UNK         0.5000 
     98 O          -9.1969  -21.9898  -50.8988 O.2       17 UNK        -0.5000 
     99 N          -6.9471  -22.1811  -51.2003 N.am      18 UNK        -0.5000 
    100 CA        -6.7817  -21.5854  -52.5281 C.3       18 UNK         0.1400 
    101 CB        -7.1002  -20.0765  -52.4964 C.3       18 UNK        -0.1800 
    102 C         -7.5599  -22.3530  -53.6179 C.2       18 UNK         0.5000 
    103 O         -8.4213  -21.7864  -54.2952 O.2       18 UNK        -0.5000 
    104 N         -7.2568  -23.6506  -53.7474 N.am      19 UNK        -0.5000 
    105 CA        -7.8723  -24.5794  -54.6934 C.3       19 UNK         0.1400 
    106 CB        -7.5876  -26.0186  -54.2313 C.3       19 UNK        -0.1800 
    107 C         -7.3943  -24.3269  -56.1378 C.2       19 UNK         0.5000 
    108 O         -6.4890  -25.0107  -56.6187 O.2       19 UNK        -0.5000 
    109 N         -8.0101  -23.3313  -56.7912 N.am      20 UNK        -0.5000 
    110 CA        -7.7949  -22.8941  -58.1793 C.3       20 UNK         0.1400 
    111 CB        -8.1444  -24.0203  -59.1752 C.3       20 UNK        -0.1800 
    112 C         -6.4038  -22.2761  -58.4469 C.2       20 UNK         0.5000 
    113 O         -5.9947  -22.1581  -59.6034 O.2       20 UNK        -0.5000 
    114 N         -5.7167  -21.8605  -57.3804 N.am      21 UNK        -0.5000 
    115 CA        -4.4283  -21.1811  -57.3748 C.3       21 UNK         0.1400 
    116 CB        -3.2899  -22.1972  -57.5738 C.3       21 UNK        -0.1800 
    117 C         -4.3014  -20.4709  -56.0224 C.2       21 UNK         0.5000 
    118 O         -4.9079  -20.9236  -55.0499 O.2       21 UNK        -0.5000 
    119 N         -3.5205  -19.3849  -55.9740 N.am      22 UNK        -0.5000 
    120 CA        -3.3130  -18.5508  -54.7737 C.3       22 UNK         0.1400 
    121 C         -4.5601  -17.7076  -54.3492 C.2       22 UNK         0.5000 
    122 N         -5.5396  -17.4991  -55.2212 N.am      22 UNK        -0.7600 
    123 O         -4.6403  -17.2098  -53.2304 O.2       22 UNK        -0.5000 
    124 C124       -2.6766  -19.3616  -53.6056 C.3       23 UNK        -0.0398 
    125 S125       -1.6120  -18.3665  -52.5103 S.3       23 UNK        -0.2404 
    126 C126       -0.0209  -18.4218  -53.3917 C.3       23 UNK        -0.0205 
    127 H127        0.2026  -11.8953  -45.5377 H         1 UNK         0.0600 
    128 H128       -0.5504  -10.9406  -46.8177 H         1 UNK         0.0600 
    129 H129        0.5085  -10.1610  -45.6371 H         1 UNK         0.0600 
    130 H130        1.8168  -13.1742  -46.3810 H         1 UNK         0.3000 
    131 H131        3.6440  -12.1295  -48.5055 H         1 UNK         0.0600 
    132 H132        3.9438  -14.5846  -49.0919 H         1 UNK         0.0800 
    133 H133        2.6020  -14.9769  -48.0476 H         1 UNK         0.0800 
    134 H134        2.3800  -14.1121  -52.3707 H         1 UNK         0.0800 
    135 H135        3.7846  -14.4570  -51.4018 H         1 UNK         0.0800 
    136 H136        0.8946  -15.8636  -53.0734 H         1 UNK         0.1150 
    137 H137        1.4725  -19.8639  -51.6584 H         1 UNK         0.1150 
    138 H138        3.7679  -16.6624  -49.9852 H         1 UNK         0.1150 
    139 H139        3.1090  -20.3571  -49.9868 H         1 UNK         0.0800 
    140 H140        4.3626  -19.1874  -49.6490 H         1 UNK         0.0800 
    141 H141        0.5787  -19.2832  -49.3907 H         1 UNK         0.0800 
    142 H142        0.2680  -18.3623  -47.9616 H         1 UNK         0.0800 
    143 H143        0.8893  -21.3550  -47.9029 H         1 UNK         0.0600 
    144 H144        0.2261  -19.4828  -45.8168 H         1 UNK         0.3000 
    145 H145       -0.6867  -21.9201  -43.3799 H         1 UNK         0.0600 
    146 H146        1.1147  -20.8081  -42.1291 H         1 UNK         0.0600 
    147 H147        1.8309  -21.8061  -43.3816 H         1 UNK         0.0600 
    148 H148        1.7453  -20.0618  -43.5975 H         1 UNK         0.0600 
    149 H149       -0.4620  -19.0530  -43.3498 H         1 UNK         0.3000 
    150 H150       -3.6927  -18.2972  -44.5575 H         1 UNK         0.0600 
    151 H151       -4.2350  -18.9362  -42.2101 H         1 UNK         0.0600 
    152 H152       -4.0419  -17.1991  -42.3819 H         1 UNK         0.0600 
    153 H153       -2.7641  -18.1576  -41.6439 H         1 UNK         0.0600 
    154 H154       -1.7343  -16.6611  -43.3293 H         1 UNK         0.3000 
    155 H155        0.4606  -16.2651  -45.9654 H         1 UNK         0.0600 
    156 H156       -1.9084  -14.3167  -45.9952 H         1 UNK         0.0600 
    157 H157       -0.3163  -14.0442  -46.7026 H         1 UNK         0.0600 
    158 H158       -1.3750  -15.2621  -47.3816 H         1 UNK         0.0600 
    159 H159       -0.6768  -15.4340  -43.4281 H         1 UNK         0.3000 
    160 H160        2.2786  -13.7418  -42.4608 H         1 UNK         0.0600 
    161 H161       -0.7171  -13.1522  -42.2140 H         1 UNK         0.0600 
    162 H162        0.4959  -12.0702  -42.8832 H         1 UNK         0.0600 
    163 H163        0.5582  -12.5074  -41.1830 H         1 UNK         0.0600 
    164 H164        1.9889  -15.3262  -41.0067 H         1 UNK         0.3000 
    165 H165       -0.6195  -16.8259  -39.3640 H         1 UNK         0.0600 
    166 H166        0.4328  -19.0637  -39.7521 H         1 UNK         0.0600 
    167 H167       -0.5950  -18.5997  -41.0925 H         1 UNK         0.0600 
    168 H168        1.1498  -18.4726  -41.2492 H         1 UNK         0.0600 
    169 H169        2.2612  -17.2232  -39.4319 H         1 UNK         0.3000 
    170 H170        3.1637  -14.4394  -37.5706 H         1 UNK         0.0600 
    171 H171        2.8049  -17.1899  -36.2604 H         1 UNK         0.0600 
    172 H172        3.9245  -15.9312  -35.7356 H         1 UNK         0.0600 
    173 H173        2.1922  -15.6686  -35.6233 H         1 UNK         0.0600 
    174 H174        4.5183  -16.9123  -38.0134 H         1 UNK         0.3000 
    175 H175        6.5344  -15.9639  -40.0843 H         1 UNK         0.0600 
    176 H176        6.5290  -18.4805  -40.3216 H         1 UNK         0.0600 
    177 H177        4.8277  -18.5079  -39.8744 H         1 UNK         0.0600 
    178 H178        6.0443  -17.9534  -38.7249 H         1 UNK         0.0600 
    179 H179        6.2049  -15.9998  -42.2730 H         1 UNK         0.3000 
    180 H180        5.4835  -17.1386  -44.3629 H         1 UNK         0.0600 
    181 H181        3.4616  -17.1442  -45.8585 H         1 UNK         0.0600 
    182 H182        2.4204  -17.0653  -44.4406 H         1 UNK         0.0600 
    183 H183        3.4511  -18.4639  -44.6985 H         1 UNK         0.0600 
    184 H184        3.6602  -14.8821  -44.6261 H         1 UNK         0.3000 
    185 H185        4.8498  -12.5368  -43.6113 H         1 UNK         0.0600 
    186 H186        7.2662  -12.1702  -43.8397 H         1 UNK         0.0600 
    187 H187        7.2193  -12.5572  -45.5528 H         1 UNK         0.0600 
    188 H188        6.4176  -11.1072  -44.9494 H         1 UNK         0.0600 
    189 H189        3.5007  -12.3554  -45.3468 H         1 UNK         0.3000 
    190 H190       -2.0783  -19.5232  -47.0252 H         1 UNK         0.3000 
    191 H191       -3.6985  -20.4391  -49.1565 H         1 UNK         0.0600 
    192 H192       -4.2848  -18.5316  -47.6454 H         1 UNK         0.0600 
    193 H193       -5.5867  -19.7089  -47.7473 H         1 UNK         0.0600 
    194 H194       -4.5605  -19.6633  -46.3216 H         1 UNK         0.0600 
    195 H195       -3.1177  -21.8665  -45.9115 H         1 UNK         0.3000 
    196 H196       -4.8070  -24.1299  -46.1972 H         1 UNK         0.0600 
    197 H197       -3.4639  -25.0391  -44.2981 H         1 UNK         0.0600 
    198 H198       -3.9369  -23.3714  -44.0107 H         1 UNK         0.0600 
    199 H199       -2.2863  -23.7475  -44.4971 H         1 UNK         0.0600 
    200 H200       -1.3077  -23.6989  -46.9580 H         1 UNK         0.3000 
    201 H201       -0.8239  -26.3267  -47.9060 H         1 UNK         0.0600 
    202 H202        0.9784  -24.7269  -47.2985 H         1 UNK         0.0600 
    203 H203        0.5553  -23.6978  -48.6651 H         1 UNK         0.0600 
    204 H204        1.1964  -25.3110  -48.9414 H         1 UNK         0.0600 
    205 H205       -2.0984  -23.4516  -49.5599 H         1 UNK         0.3000 
    206 H206       -2.3372  -24.7068  -52.1689 H         1 UNK         0.0600 
    207 H207       -1.9860  -22.2445  -51.8498 H         1 UNK         0.0600 
    208 H208       -3.4420  -22.5832  -52.7665 H         1 UNK         0.0600 
    209 H209       -3.5608  -22.1213  -51.0714 H         1 UNK         0.0600 
    210 H210       -3.9275  -25.5396  -49.4501 H         1 UNK         0.3000 
    211 H211       -5.7630  -26.6149  -48.9018 H         1 UNK         0.0600 
    212 H212       -6.1001  -27.1599  -51.8960 H         1 UNK         0.0600 
    213 H213       -6.8654  -28.0527  -50.5896 H         1 UNK         0.0600 
    214 H214       -5.1205  -28.1058  -50.7793 H         1 UNK         0.0600 
    215 H215       -6.0572  -23.9613  -48.8289 H         1 UNK         0.3000 
    216 H216       -7.4861  -22.3337  -48.4812 H         1 UNK         0.0600 
    217 H217       -9.9057  -22.6551  -48.3278 H         1 UNK         0.0600 
    218 H218       -9.1041  -24.0251  -47.5766 H         1 UNK         0.0600 
    219 H219       -9.8216  -24.1878  -49.1794 H         1 UNK         0.0600 
    220 H220       -6.1052  -22.5564  -50.7865 H         1 UNK         0.3000 
    221 H221       -5.7245  -21.6918  -52.7676 H         1 UNK         0.0600 
    222 H222       -8.1440  -19.8831  -52.2491 H         1 UNK         0.0600 
    223 H223       -6.4779  -19.5576  -51.7673 H         1 UNK         0.0600 
    224 H224       -6.9060  -19.6211  -53.4681 H         1 UNK         0.0600 
    225 H225       -6.5099  -24.0350  -53.1707 H         1 UNK         0.3000 
    226 H226       -8.9545  -24.4355  -54.6672 H         1 UNK         0.0600 
    227 H227       -8.0138  -26.2051  -53.2457 H         1 UNK         0.0600 
    228 H228       -8.0259  -26.7444  -54.9172 H         1 UNK         0.0600 
    229 H229       -6.5171  -26.2203  -54.1767 H         1 UNK         0.0600 
    230 H230       -8.6678  -22.7739  -56.2578 H         1 UNK         0.3000 
    231 H231       -8.5082  -22.0856  -58.3448 H         1 UNK         0.0600 
    232 H232       -7.4262  -24.8393  -59.1305 H         1 UNK         0.0600 
    233 H233       -8.1498  -23.6490  -60.2005 H         1 UNK         0.0600 
    234 H234       -9.1347  -24.4300  -58.9764 H         1 UNK         0.0600 
    235 H235       -6.1239  -21.9648  -56.4588 H         1 UNK         0.3000 
    236 H236       -4.4080  -20.4351  -58.1719 H         1 UNK         0.0600 
    237 H237       -3.3695  -22.6991  -58.5381 H         1 UNK         0.0600 
    238 H238       -2.3165  -21.7063  -57.5433 H         1 UNK         0.0600 
    239 H239       -3.2979  -22.9632  -56.7970 H         1 UNK         0.0600 
    240 H240       -3.0567  -19.0712  -56.8150 H         1 UNK         0.3000 
    241 H241       -2.5807  -17.8077  -55.0905 H         1 UNK         0.0600 
    242 H242       -5.4937  -17.8820  -56.1514 H         1 UNK         0.3800 
    243 H243       -6.3356  -16.9458  -54.9457 H         1 UNK         0.3800 
    244 H244       -3.4516  -19.8344  -52.9998 H         1 UNK         0.0800 
    245 H245       -2.0738  -20.1832  -53.9946 H         1 UNK         0.0800 
    246 H246        0.1937  -19.4425  -53.7122 H         1 UNK         0.0800 
    247 H247       -0.0790  -17.8146  -54.2962 H         1 UNK         0.0800 
@<TRIPOS>BOND
     1    1    2 1    
     2    1  127 1    
     3    1  128 1    
     4    1  129 1    
     5    2    3 2    
     6    2    4 am   BACKBONE|DICT|INTERRES
     7    4    5 1    
     8    4  130 1    
     9    5    6 1    
    10    5   65 1    
    11    5  131 1    
    12    6    7 1    
    13    6  132 1    
    14    6  133 1    
    15    7    8 1    
    16    8    9 1    
    17    8  134 1    
    18    8  135 1    
    19    9   10 ar   
    20    9   14 ar   
    21   10   11 ar   
    22   10  136 1    
    23   11   12 ar   
    24   11  126 1    
    25   12   13 ar   
    26   12  137 1    
    27   13   14 ar   
    28   13   15 1    
    29   14  138 1    
    30   15   16 1    
    31   15  139 1    
    32   15  140 1    
    33   16   17 1    
    34   17   18 1    
    35   17  141 1    
    36   17  142 1    
    37   18   19 1    
    38   18   67 1    
    39   18  143 1    
    40   19   20 am   BACKBONE|DICT|INTERRES
    41   19  144 1    
    42   20   21 2    
    43   20   22 1    
    44   22   23 1    
    45   22   24 1    
    46   22  145 1    
    47   23  146 1    
    48   23  147 1    
    49   23  148 1    
    50   24   25 am   BACKBONE|DICT|INTERRES
    51   24  149 1    
    52   25   26 2    
    53   25   27 1    
    54   27   28 1    
    55   27   29 1    
    56   27  150 1    
    57   28  151 1    
    58   28  152 1    
    59   28  153 1    
    60   29   30 am   BACKBONE|DICT|INTERRES
    61   29  154 1    
    62   30   31 2    
    63   30   32 1    
    64   32   33 1    
    65   32   34 1    
    66   32  155 1    
    67   33  156 1    
    68   33  157 1    
    69   33  158 1    
    70   34   35 am   BACKBONE|DICT|INTERRES
    71   34  159 1    
    72   35   36 2    
    73   35   37 1    
    74   37   38 1    
    75   37   39 1    
    76   37  160 1    
    77   38  161 1    
    78   38  162 1    
    79   38  163 1    
    80   39   40 am   BACKBONE|DICT|INTERRES
    81   39  164 1    
    82   40   41 2    
    83   40   42 1    
    84   42   43 1    
    85   42   44 1    
    86   42  165 1    
    87   43  166 1    
    88   43  167 1    
    89   43  168 1    
    90   44   45 am   BACKBONE|DICT|INTERRES
    91   44  169 1    
    92   45   46 2    
    93   45   47 1    
    94   47   48 1    
    95   47   49 1    
    96   47  170 1    
    97   48  171 1    
    98   48  172 1    
    99   48  173 1    
   100   49   50 am   BACKBONE|DICT|INTERRES
   101   49  174 1    
   102   50   51 2    
   103   50   52 1    
   104   52   53 1    
   105   52   54 1    
   106   52  175 1    
   107   53  176 1    
   108   53  177 1    
   109   53  178 1    
   110   54   55 am   BACKBONE|DICT|INTERRES
   111   54  179 1    
   112   55   56 2    
   113   55   57 1    
   114   57   58 1    
   115   57   59 1    
   116   57  180 1    
   117   58  181 1    
   118   58  182 1    
   119   58  183 1    
   120   59   60 am   BACKBONE|DICT|INTERRES
   121   59  184 1    
   122   60   61 2    
   123   60   62 1    
   124   62   63 1    
   125   62   64 1    
   126   62  185 1    
   127   63  186 1    
   128   63  187 1    
   129   63  188 1    
   130   64   65 am   BACKBONE|DICT|INTERRES
   131   64  189 1    
   132   65   66 2    
   133   67   68 2    
   134   67   69 am   BACKBONE|DICT|INTERRES
   135   69   70 1    
   136   69  190 1    
   137   70   71 1    
   138   70   72 1    
   139   70  191 1    
   140   71  192 1    
   141   71  193 1    
   142   71  194 1    
   143   72   73 2    
   144   72   74 am   BACKBONE|DICT|INTERRES
   145   74   75 1    
   146   74  195 1    
   147   75   76 1    
   148   75   77 1    
   149   75  196 1    
   150   76  197 1    
   151   76  198 1    
   152   76  199 1    
   153   77   78 2    
   154   77   79 am   BACKBONE|DICT|INTERRES
   155   79   80 1    
   156   79  200 1    
   157   80   81 1    
   158   80   82 1    
   159   80  201 1    
   160   81  202 1    
   161   81  203 1    
   162   81  204 1    
   163   82   83 2    
   164   82   84 am   BACKBONE|DICT|INTERRES
   165   84   85 1    
   166   84  205 1    
   167   85   86 1    
   168   85   87 1    
   169   85  206 1    
   170   86  207 1    
   171   86  208 1    
   172   86  209 1    
   173   87   88 2    
   174   87   89 am   BACKBONE|DICT|INTERRES
   175   89   90 1    
   176   89  210 1    
   177   90   91 1    
   178   90   92 1    
   179   90  211 1    
   180   91  212 1    
   181   91  213 1    
   182   91  214 1    
   183   92   93 2    
   184   92   94 am   BACKBONE|DICT|INTERRES
   185   94   95 1    
   186   94  215 1    
   187   95   96 1    
   188   95   97 1    
   189   95  216 1    
   190   96  217 1    
   191   96  218 1    
   192   96  219 1    
   193   97   98 2    
   194   97   99 am   BACKBONE|DICT|INTERRES
   195   99  100 1    
   196   99  220 1    
   197  100  101 1    
   198  100  102 1    
   199  100  221 1    
   200  101  222 1    
   201  101  223 1    
   202  101  224 1    
   203  102  103 2    
   204  102  104 am   BACKBONE|DICT|INTERRES
   205  104  105 1    
   206  104  225 1    
   207  105  106 1    
   208  105  107 1    
   209  105  226 1    
   210  106  227 1    
   211  106  228 1    
   212  106  229 1    
   213  107  108 2    
   214  107  109 am   BACKBONE|DICT|INTERRES
   215  109  110 1    
   216  109  230 1    
   217  110  111 1    
   218  110  112 1    
   219  110  231 1    
   220  111  232 1    
   221  111  233 1    
   222  111  234 1    
   223  112  113 2    
   224  112  114 am   BACKBONE|DICT|INTERRES
   225  114  115 1    
   226  114  235 1    
   227  115  116 1    
   228  115  117 1    
   229  115  236 1    
   230  116  237 1    
   231  116  238 1    
   232  116  239 1    
   233  117  118 2    
   234  117  119 am   BACKBONE|DICT|INTERRES
   235  119  120 1    
   236  119  240 1    
   237  120  121 1    
   238  120  124 1    
   239  120  241 1    
   240  121  122 am   BACKBONE|DICT|INTERRES
   241  121  123 2    
   242  122  242 1    
   243  122  243 1    
   244  124  125 1    
   245  124  244 1    
   246  124  245 1    
   247  125  126 1    
   248  126  246 1    
   249  126  247 1    
@<TRIPOS>SUBSTRUCTURE
     1 UNK         1 GROUP             0       ****    0 ROOT    
