@<TRIPOS>MOLECULE
3R540
247   249    1
SMALL
USER_CHARGES


@<TRIPOS>ATOM
      1 CA         -1.6576  -14.7566  -43.9042 C.3       0 UNK        -0.1800 
      2 C          -1.1599  -13.8774  -45.0428 C.2       0 UNK         0.5000 
      3 O           0.0419  -13.6347  -45.1363 O.2       0 UNK        -0.5000 
      4 N          -2.0867  -13.3921  -45.8851 N.am      1 UNK        -0.5000 
      5 CA         -1.8956  -12.5969  -47.1151 C.3       1 UNK         0.1400 
      6 C6         -1.6894  -13.4610  -48.3939 C.3       23 UNK        -0.0398 
      7 S7         -0.2070  -14.5329  -48.4130 S.3       23 UNK        -0.2404 
      8 C8         -0.9044  -16.1470  -47.9357 C.3       23 UNK        -0.0205 
      9 C9         -0.5138  -17.2424  -48.9155 C.ar      23 UNK        -0.0193 
     10 C10        -1.4229  -17.6702  -49.8860 C.ar      23 UNK        -0.1150 
     11 C11        -1.0909  -18.7068  -50.7619 C.ar      23 UNK        -0.0193 
     12 C12         0.1671  -19.3088  -50.6727 C.ar      23 UNK        -0.1150 
     13 C13         1.0915  -18.8811  -49.7155 C.ar      23 UNK        -0.0193 
     14 C14         0.7433  -17.8494  -48.8369 C.ar      23 UNK        -0.1150 
     15 C15         2.4727  -19.5198  -49.6473 C.3       23 UNK        -0.0205 
     16 S16         2.4292  -21.2475  -49.0670 S.3       23 UNK        -0.2404 
     17 C17         1.8743  -21.0421  -47.3416 C.3       23 UNK        -0.0398 
     18 CA          0.7927  -22.0608  -46.9124 C.3       11 UNK         0.1400 
     19 N           0.6023  -22.0478  -45.4602 N.am      11 UNK        -0.5000 
     20 C          -0.1501  -22.9140  -44.7681 C.2       10 UNK         0.5000 
     21 O          -0.7100  -23.8871  -45.2696 O.2       10 UNK        -0.5000 
     22 CA         -0.3643  -22.6028  -43.2762 C.3       10 UNK         0.1400 
     23 CB          0.7927  -23.1401  -42.4205 C.3       10 UNK        -0.1800 
     24 N          -0.5350  -21.1676  -43.0444 N.am      10 UNK        -0.5000 
     25 C          -1.6115  -20.4696  -43.4355 C.2       9 UNK         0.5000 
     26 O          -2.5988  -20.9812  -43.9631 O.2       9 UNK        -0.5000 
     27 CA         -1.5558  -18.9416  -43.2522 C.3       9 UNK         0.1400 
     28 CB         -2.0533  -18.5453  -41.8554 C.3       9 UNK        -0.1800 
     29 N          -0.2129  -18.3997  -43.4840 N.am      9 UNK        -0.5000 
     30 C           0.3655  -18.3735  -44.6944 C.2       8 UNK         0.5000 
     31 O          -0.2022  -18.7588  -45.7142 O.2       8 UNK        -0.5000 
     32 CA          1.8287  -17.9054  -44.7940 C.3       8 UNK         0.1400 
     33 CB          1.9316  -16.3959  -45.0380 C.3       8 UNK        -0.1800 
     34 N           2.6381  -18.2624  -43.6330 N.am      8 UNK        -0.5000 
     35 C           2.9657  -19.5150  -43.2923 C.2       7 UNK         0.5000 
     36 O           2.5386  -20.5086  -43.8801 O.2       7 UNK        -0.5000 
     37 CA          3.9211  -19.6834  -42.1009 C.3       7 UNK         0.1400 
     38 CB          5.3760  -19.4879  -42.5542 C.3       7 UNK        -0.1800 
     39 N           3.6161  -18.7172  -41.0472 N.am      7 UNK        -0.5000 
     40 C           2.9550  -19.0022  -39.9183 C.2       6 UNK         0.5000 
     41 O           2.5956  -20.1367  -39.6013 O.2       6 UNK        -0.5000 
     42 CA          2.6199  -17.8181  -38.9867 C.3       6 UNK         0.1400 
     43 CB          3.7332  -17.6233  -37.9463 C.3       6 UNK        -0.1800 
     44 N           2.3935  -16.5496  -39.6856 N.am      6 UNK        -0.5000 
     45 C           1.4364  -16.3381  -40.5992 C.2       5 UNK         0.5000 
     46 O           0.6352  -17.1972  -40.9618 O.2       5 UNK        -0.5000 
     47 CA          1.3916  -14.9515  -41.2643 C.3       5 UNK         0.1400 
     48 CB          0.5456  -13.9818  -40.4269 C.3       5 UNK        -0.1800 
     49 N           2.6884  -14.3297  -41.5555 N.am      5 UNK        -0.5000 
     50 C           3.7626  -14.8956  -42.1230 C.2       4 UNK         0.5000 
     51 O           3.8750  -16.1027  -42.3444 O.2       4 UNK        -0.5000 
     52 CA          4.8701  -13.9261  -42.5779 C.3       4 UNK         0.1400 
     53 CB          6.2205  -14.6376  -42.7743 C.3       4 UNK        -0.1800 
     54 N           4.4895  -13.2803  -43.8353 N.am      4 UNK        -0.5000 
     55 C           3.5631  -12.3212  -43.9653 C.2       3 UNK         0.5000 
     56 O           3.0011  -11.7967  -42.9988 O.2       3 UNK        -0.5000 
     57 CA          3.2138  -11.8744  -45.4001 C.3       3 UNK         0.1400 
     58 CB          3.3014  -13.0171  -46.4305 C.3       3 UNK        -0.1800 
     59 N           1.8564  -11.3391  -45.4302 N.am      3 UNK        -0.5000 
     60 C           1.5263  -10.0418  -45.4419 C.2       2 UNK         0.5000 
     61 O           2.3561   -9.1310  -45.4848 O.2       2 UNK        -0.5000 
     62 CA          0.0186   -9.7000  -45.3768 C.3       2 UNK         0.1400 
     63 CB         -0.3304   -8.3993  -46.1309 C.3       2 UNK        -0.1800 
     64 N          -0.8649  -10.7986  -45.7908 N.am      2 UNK        -0.5000 
     65 C          -0.9305  -11.3891  -46.9952 C.2       1 UNK         0.5000 
     66 O          -0.2846  -11.0120  -47.9745 O.2       1 UNK        -0.5000 
     67 C          -0.5448  -21.8698  -47.6635 C.2       11 UNK         0.5000 
     68 O          -0.8473  -22.6520  -48.5642 O.2       11 UNK        -0.5000 
     69 N          -1.3530  -20.8876  -47.2371 N.am      12 UNK        -0.5000 
     70 CA         -2.6957  -20.6317  -47.7623 C.3       12 UNK         0.1400 
     71 CB         -3.2637  -19.3507  -47.1347 C.3       12 UNK        -0.1800 
     72 C          -3.6617  -21.8116  -47.5465 C.2       12 UNK         0.5000 
     73 O          -4.4271  -22.1401  -48.4542 O.2       12 UNK        -0.5000 
     74 N          -3.5909  -22.4448  -46.3668 N.am      13 UNK        -0.5000 
     75 CA         -4.3542  -23.6447  -46.0232 C.3       13 UNK         0.1400 
     76 CB         -4.2213  -23.9368  -44.5214 C.3       13 UNK        -0.1800 
     77 C          -3.9420  -24.8667  -46.8641 C.2       13 UNK         0.5000 
     78 O          -4.8154  -25.5691  -47.3731 O.2       13 UNK        -0.5000 
     79 N          -2.6287  -25.0735  -47.0414 N.am      14 UNK        -0.5000 
     80 CA         -2.0521  -26.1201  -47.8926 C.3       14 UNK         0.1400 
     81 CB         -0.5293  -26.1617  -47.6963 C.3       14 UNK        -0.1800 
     82 C          -2.4059  -25.9444  -49.3824 C.2       14 UNK         0.5000 
     83 O          -2.6271  -26.9347  -50.0795 O.2       14 UNK        -0.5000 
     84 N          -2.5081  -24.6847  -49.8241 N.am      15 UNK        -0.5000 
     85 CA         -2.9846  -24.2734  -51.1447 C.3       15 UNK         0.1400 
     86 CB         -2.4498  -22.8645  -51.4349 C.3       15 UNK        -0.1800 
     87 C          -4.5213  -24.3123  -51.2950 C.2       15 UNK         0.5000 
     88 O          -5.0250  -23.8949  -52.3398 O.2       15 UNK        -0.5000 
     89 N          -5.2368  -24.7840  -50.2621 N.am      16 UNK        -0.5000 
     90 CA         -6.6888  -24.9558  -50.1828 C.3       16 UNK         0.1400 
     91 CB         -7.1530  -26.0698  -51.1436 C.3       16 UNK        -0.1800 
     92 C          -7.4542  -23.6298  -50.3545 C.2       16 UNK         0.5000 
     93 O          -8.4004  -23.5559  -51.1386 O.2       16 UNK        -0.5000 
     94 N          -7.0037  -22.5969  -49.6268 N.am      17 UNK        -0.5000 
     95 CA         -7.5043  -21.2183  -49.6480 C.3       17 UNK         0.1400 
     96 CB         -8.9610  -21.1398  -49.1442 C.3       17 UNK        -0.1800 
     97 C          -7.2890  -20.5546  -51.0226 C.2       17 UNK         0.5000 
     98 O          -8.1929  -19.9107  -51.5571 O.2       17 UNK        -0.5000 
     99 N          -6.0782  -20.7535  -51.5635 N.am      18 UNK        -0.5000 
    100 CA        -5.5716  -20.2639  -52.8505 C.3       18 UNK         0.1400 
    101 CB        -5.6537  -18.7252  -52.9441 C.3       18 UNK        -0.1800 
    102 C         -6.1832  -20.9489  -54.0892 C.2       18 UNK         0.5000 
    103 O         -5.8993  -20.5158  -55.2073 O.2       18 UNK        -0.5000 
    104 N         -6.9529  -22.0319  -53.9034 N.am      19 UNK        -0.5000 
    105 CA        -7.5277  -22.8406  -54.9850 C.3       19 UNK         0.1400 
    106 CB        -8.5229  -23.8515  -54.4011 C.3       19 UNK        -0.1800 
    107 C         -6.4665  -23.5545  -55.8474 C.2       19 UNK         0.5000 
    108 O         -6.7279  -23.8371  -57.0171 O.2       19 UNK        -0.5000 
    109 N         -5.2751  -23.7853  -55.2768 N.am      20 UNK        -0.5000 
    110 CA        -4.0810  -24.2695  -55.9741 C.3       20 UNK         0.1400 
    111 CB        -3.0622  -24.7535  -54.9307 C.3       20 UNK        -0.1800 
    112 C         -3.4364  -23.2309  -56.9228 C.2       20 UNK         0.5000 
    113 O         -2.5099  -23.5938  -57.6484 O.2       20 UNK        -0.5000 
    114 N         -3.9264  -21.9796  -56.9087 N.am      21 UNK        -0.5000 
    115 CA        -3.5095  -20.8409  -57.7321 C.3       21 UNK         0.1400 
    116 CB        -3.7557  -21.1148  -59.2313 C.3       21 UNK        -0.1800 
    117 C         -2.0687  -20.3946  -57.4194 C.2       21 UNK         0.5000 
    118 O         -1.1842  -20.4790  -58.2738 O.2       21 UNK        -0.5000 
    119 N         -1.8663  -19.9275  -56.1812 N.am      22 UNK        -0.5000 
    120 CA        -0.5942  -19.3750  -55.6814 C.3       22 UNK         0.1400 
    121 C         -0.1609  -18.0115  -56.3024 C.2       22 UNK         0.5000 
    122 N         -1.0250  -17.2923  -57.0089 N.am      22 UNK        -0.7600 
    123 O          0.9884  -17.6060  -56.1506 O.2       22 UNK        -0.5000 
    124 C124       -0.5573  -19.3316  -54.1310 C.3       23 UNK        -0.0398 
    125 S125       -1.9273  -18.3724  -53.3884 S.3       23 UNK        -0.2404 
    126 C126       -2.1093  -19.1938  -51.7774 C.3       23 UNK        -0.0205 
    127 H127       -1.4556  -14.2794  -42.9455 H         1 UNK         0.0600 
    128 H128       -1.1447  -15.7172  -43.9225 H         1 UNK         0.0600 
    129 H129       -2.7292  -14.9448  -43.9730 H         1 UNK         0.0600 
    130 H130       -3.0522  -13.6211  -45.6947 H         1 UNK         0.3000 
    131 H131       -2.8635  -12.1133  -47.2562 H         1 UNK         0.0600 
    132 H132       -1.6408  -12.8201  -49.2756 H         1 UNK         0.0800 
    133 H133       -2.5766  -14.0723  -48.5580 H         1 UNK         0.0800 
    134 H134       -0.5571  -16.4041  -46.9370 H         1 UNK         0.0800 
    135 H135       -1.9900  -16.0948  -47.8538 H         1 UNK         0.0800 
    136 H136       -2.3971  -17.2063  -49.9497 H         1 UNK         0.1150 
    137 H137        0.4281  -20.1143  -51.3443 H         1 UNK         0.1150 
    138 H138        1.4477  -17.5158  -48.0887 H         1 UNK         0.1150 
    139 H139        2.9211  -19.4962  -50.6415 H         1 UNK         0.0800 
    140 H140        3.1362  -18.9421  -49.0018 H         1 UNK         0.0800 
    141 H141        1.5183  -20.0259  -47.1866 H         1 UNK         0.0800 
    142 H142        2.7549  -21.1492  -46.7065 H         1 UNK         0.0800 
    143 H143        1.1611  -23.0575  -47.1645 H         1 UNK         0.0600 
    144 H144        1.0796  -21.3144  -44.9459 H         1 UNK         0.3000 
    145 H145       -1.2781  -23.1088  -42.9580 H         1 UNK         0.0600 
    146 H146        0.6235  -22.9451  -41.3614 H         1 UNK         0.0600 
    147 H147        0.8928  -24.2195  -42.5403 H         1 UNK         0.0600 
    148 H148        1.7477  -22.6929  -42.6944 H         1 UNK         0.0600 
    149 H149        0.2520  -20.6697  -42.6548 H         1 UNK         0.3000 
    150 H150       -2.2313  -18.4953  -43.9851 H         1 UNK         0.0600 
    151 H151       -3.0702  -18.9023  -41.6881 H         1 UNK         0.0600 
    152 H152       -2.0649  -17.4619  -41.7342 H         1 UNK         0.0600 
    153 H153       -1.4246  -18.9655  -41.0695 H         1 UNK         0.0600 
    154 H154        0.2896  -18.0590  -42.6690 H         1 UNK         0.3000 
    155 H155        2.2718  -18.4028  -45.6581 H         1 UNK         0.0600 
    156 H156        1.4533  -16.1113  -45.9736 H         1 UNK         0.0600 
    157 H157        2.9723  -16.0788  -45.1040 H         1 UNK         0.0600 
    158 H158        1.4594  -15.8247  -44.2422 H         1 UNK         0.0600 
    159 H159        3.0532  -17.4895  -43.1175 H         1 UNK         0.3000 
    160 H160        3.8160  -20.7052  -41.7306 H         1 UNK         0.0600 
    161 H161        5.5495  -18.4802  -42.9347 H         1 UNK         0.0600 
    162 H162        5.6359  -20.1897  -43.3478 H         1 UNK         0.0600 
    163 H163        6.0693  -19.6572  -41.7302 H         1 UNK         0.0600 
    164 H164        3.8317  -17.7465  -41.2512 H         1 UNK         0.3000 
    165 H165        1.6983  -18.0710  -38.4584 H         1 UNK         0.0600 
    166 H166        3.4674  -16.8524  -37.2227 H         1 UNK         0.0600 
    167 H167        3.9119  -18.5432  -37.3880 H         1 UNK         0.0600 
    168 H168        4.6750  -17.3352  -38.4150 H         1 UNK         0.0600 
    169 H169        3.0239  -15.7915  -39.4696 H         1 UNK         0.3000 
    170 H170        0.8847  -15.0776  -42.2204 H         1 UNK         0.0600 
    171 H171       -0.4377  -14.4032  -40.2126 H         1 UNK         0.0600 
    172 H172        1.0222  -13.7541  -39.4727 H         1 UNK         0.0600 
    173 H173        0.3853  -13.0419  -40.9557 H         1 UNK         0.0600 
    174 H174        2.6976  -13.3177  -41.5064 H         1 UNK         0.3000 
    175 H175        4.9986  -13.1650  -41.8054 H         1 UNK         0.0600 
    176 H176        6.1731  -15.3892  -43.5636 H         1 UNK         0.0600 
    177 H177        7.0051  -13.9273  -43.0356 H         1 UNK         0.0600 
    178 H178        6.5315  -15.1427  -41.8590 H         1 UNK         0.0600 
    179 H179        4.8938  -13.6724  -44.6729 H         1 UNK         0.3000 
    180 H180        3.9336  -11.1046  -45.6842 H         1 UNK         0.0600 
    181 H181        2.6559  -13.8520  -46.1584 H         1 UNK         0.0600 
    182 H182        4.3187  -13.3951  -46.5338 H         1 UNK         0.0600 
    183 H183        2.9896  -12.6745  -47.4176 H         1 UNK         0.0600 
    184 H184        1.1160  -12.0318  -45.3519 H         1 UNK         0.3000 
    185 H185       -0.1963   -9.5298  -44.3210 H         1 UNK         0.0600 
    186 H186        0.2039   -7.5469  -45.7099 H         1 UNK         0.0600 
    187 H187       -0.0662   -8.4589  -47.1869 H         1 UNK         0.0600 
    188 H188       -1.3953   -8.1770  -46.0628 H         1 UNK         0.0600 
    189 H189       -1.4286  -11.1991  -45.0542 H         1 UNK         0.3000 
    190 H190       -1.0094  -20.2391  -46.5331 H         1 UNK         0.3000 
    191 H191       -2.6010  -20.4706  -48.8375 H         1 UNK         0.0600 
    192 H192       -2.5951  -18.5053  -47.2878 H         1 UNK         0.0600 
    193 H193       -4.2251  -19.0920  -47.5800 H         1 UNK         0.0600 
    194 H194       -3.4169  -19.4598  -46.0612 H         1 UNK         0.0600 
    195 H195       -2.9787  -22.0714  -45.6491 H         1 UNK         0.3000 
    196 H196       -5.4062  -23.4393  -46.2323 H         1 UNK         0.0600 
    197 H197       -4.8180  -24.8050  -44.2391 H         1 UNK         0.0600 
    198 H198       -4.5697  -23.0941  -43.9240 H         1 UNK         0.0600 
    199 H199       -3.1894  -24.1427  -44.2381 H         1 UNK         0.0600 
    200 H200       -1.9681  -24.4778  -46.5477 H         1 UNK         0.3000 
    201 H201       -2.4635  -27.0774  -47.5664 H         1 UNK         0.0600 
    202 H202       -0.2716  -26.3614  -46.6560 H         1 UNK         0.0600 
    203 H203       -0.0608  -25.2194  -47.9814 H         1 UNK         0.0600 
    204 H204       -0.0783  -26.9496  -48.3006 H         1 UNK         0.0600 
    205 H205       -2.2253  -23.9354  -49.1991 H         1 UNK         0.3000 
    206 H206       -2.5719  -24.9551  -51.8904 H         1 UNK         0.0600 
    207 H207       -1.3604  -22.8403  -51.3980 H         1 UNK         0.0600 
    208 H208       -2.7483  -22.5189  -52.4246 H         1 UNK         0.0600 
    209 H209       -2.8241  -22.1450  -50.7070 H         1 UNK         0.0600 
    210 H210       -4.7342  -25.0596  -49.4270 H         1 UNK         0.3000 
    211 H211       -6.9048  -25.2932  -49.1684 H         1 UNK         0.0600 
    212 H212       -6.9237  -25.8343  -52.1820 H         1 UNK         0.0600 
    213 H213       -8.2291  -26.2317  -51.0709 H         1 UNK         0.0600 
    214 H214       -6.6673  -27.0160  -50.9052 H         1 UNK         0.0600 
    215 H215       -6.1597  -22.7312  -49.0754 H         1 UNK         0.3000 
    216 H216       -6.8866  -20.6606  -48.9425 H         1 UNK         0.0600 
    217 H217       -9.2780  -20.1022  -49.0340 H         1 UNK         0.0600 
    218 H218       -9.0667  -21.6162  -48.1695 H         1 UNK         0.0600 
    219 H219       -9.6584  -21.6207  -49.8305 H         1 UNK         0.0600 
    220 H220       -5.4403  -21.3414  -51.0450 H         1 UNK         0.3000 
    221 H221       -4.5158  -20.5352  -52.8661 H         1 UNK         0.0600 
    222 H222       -6.6785  -18.3809  -53.0838 H         1 UNK         0.0600 
    223 H223       -5.2608  -18.2462  -52.0479 H         1 UNK         0.0600 
    224 H224       -5.0731  -18.3551  -53.7899 H         1 UNK         0.0600 
    225 H225       -7.1121  -22.3589  -52.9598 H         1 UNK         0.3000 
    226 H226       -8.0796  -22.1662  -55.6429 H         1 UNK         0.0600 
    227 H227       -9.3105  -23.3508  -53.8377 H         1 UNK         0.0600 
    228 H228       -9.0042  -24.4288  -55.1915 H         1 UNK         0.0600 
    229 H229       -8.0295  -24.5567  -53.7341 H         1 UNK         0.0600 
    230 H230       -5.1751  -23.5951  -54.2834 H         1 UNK         0.3000 
    231 H231       -4.3719  -25.1262  -56.5853 H         1 UNK         0.0600 
    232 H232       -3.4969  -25.5064  -54.2729 H         1 UNK         0.0600 
    233 H233       -2.7026  -23.9306  -54.3141 H         1 UNK         0.0600 
    234 H234       -2.1936  -25.2061  -55.4105 H         1 UNK         0.0600 
    235 H235       -4.6796  -21.7737  -56.2617 H         1 UNK         0.3000 
    236 H236       -4.1583  -20.0100  -57.4504 H         1 UNK         0.0600 
    237 H237       -3.5451  -20.2257  -59.8266 H         1 UNK         0.0600 
    238 H238       -3.1244  -21.9173  -59.6133 H         1 UNK         0.0600 
    239 H239       -4.7944  -21.3899  -59.4147 H         1 UNK         0.0600 
    240 H240       -2.6451  -19.8811  -55.5406 H         1 UNK         0.3000 
    241 H241        0.1835  -20.0778  -55.9868 H         1 UNK         0.0600 
    242 H242       -1.9737  -17.6056  -57.1333 H         1 UNK         0.3800 
    243 H243       -0.7298  -16.4159  -57.4097 H         1 UNK         0.3800 
    244 H244        0.3901  -18.9245  -53.7730 H         1 UNK         0.0800 
    245 H245       -0.5972  -20.3541  -53.7540 H         1 UNK         0.0800 
    246 H246       -2.0224  -20.2694  -51.9054 H         1 UNK         0.0800 
    247 H247       -3.1145  -19.0144  -51.3967 H         1 UNK         0.0800 
@<TRIPOS>BOND
     1    1    2 1    
     2    1  127 1    
     3    1  128 1    
     4    1  129 1    
     5    2    3 2    
     6    2    4 am   BACKBONE|DICT|INTERRES
     7    4    5 1    
     8    4  130 1    
     9    5    6 1    
    10    5   65 1    
    11    5  131 1    
    12    6    7 1    
    13    6  132 1    
    14    6  133 1    
    15    7    8 1    
    16    8    9 1    
    17    8  134 1    
    18    8  135 1    
    19    9   10 ar   
    20    9   14 ar   
    21   10   11 ar   
    22   10  136 1    
    23   11   12 ar   
    24   11  126 1    
    25   12   13 ar   
    26   12  137 1    
    27   13   14 ar   
    28   13   15 1    
    29   14  138 1    
    30   15   16 1    
    31   15  139 1    
    32   15  140 1    
    33   16   17 1    
    34   17   18 1    
    35   17  141 1    
    36   17  142 1    
    37   18   19 1    
    38   18   67 1    
    39   18  143 1    
    40   19   20 am   BACKBONE|DICT|INTERRES
    41   19  144 1    
    42   20   21 2    
    43   20   22 1    
    44   22   23 1    
    45   22   24 1    
    46   22  145 1    
    47   23  146 1    
    48   23  147 1    
    49   23  148 1    
    50   24   25 am   BACKBONE|DICT|INTERRES
    51   24  149 1    
    52   25   26 2    
    53   25   27 1    
    54   27   28 1    
    55   27   29 1    
    56   27  150 1    
    57   28  151 1    
    58   28  152 1    
    59   28  153 1    
    60   29   30 am   BACKBONE|DICT|INTERRES
    61   29  154 1    
    62   30   31 2    
    63   30   32 1    
    64   32   33 1    
    65   32   34 1    
    66   32  155 1    
    67   33  156 1    
    68   33  157 1    
    69   33  158 1    
    70   34   35 am   BACKBONE|DICT|INTERRES
    71   34  159 1    
    72   35   36 2    
    73   35   37 1    
    74   37   38 1    
    75   37   39 1    
    76   37  160 1    
    77   38  161 1    
    78   38  162 1    
    79   38  163 1    
    80   39   40 am   BACKBONE|DICT|INTERRES
    81   39  164 1    
    82   40   41 2    
    83   40   42 1    
    84   42   43 1    
    85   42   44 1    
    86   42  165 1    
    87   43  166 1    
    88   43  167 1    
    89   43  168 1    
    90   44   45 am   BACKBONE|DICT|INTERRES
    91   44  169 1    
    92   45   46 2    
    93   45   47 1    
    94   47   48 1    
    95   47   49 1    
    96   47  170 1    
    97   48  171 1    
    98   48  172 1    
    99   48  173 1    
   100   49   50 am   BACKBONE|DICT|INTERRES
   101   49  174 1    
   102   50   51 2    
   103   50   52 1    
   104   52   53 1    
   105   52   54 1    
   106   52  175 1    
   107   53  176 1    
   108   53  177 1    
   109   53  178 1    
   110   54   55 am   BACKBONE|DICT|INTERRES
   111   54  179 1    
   112   55   56 2    
   113   55   57 1    
   114   57   58 1    
   115   57   59 1    
   116   57  180 1    
   117   58  181 1    
   118   58  182 1    
   119   58  183 1    
   120   59   60 am   BACKBONE|DICT|INTERRES
   121   59  184 1    
   122   60   61 2    
   123   60   62 1    
   124   62   63 1    
   125   62   64 1    
   126   62  185 1    
   127   63  186 1    
   128   63  187 1    
   129   63  188 1    
   130   64   65 am   BACKBONE|DICT|INTERRES
   131   64  189 1    
   132   65   66 2    
   133   67   68 2    
   134   67   69 am   BACKBONE|DICT|INTERRES
   135   69   70 1    
   136   69  190 1    
   137   70   71 1    
   138   70   72 1    
   139   70  191 1    
   140   71  192 1    
   141   71  193 1    
   142   71  194 1    
   143   72   73 2    
   144   72   74 am   BACKBONE|DICT|INTERRES
   145   74   75 1    
   146   74  195 1    
   147   75   76 1    
   148   75   77 1    
   149   75  196 1    
   150   76  197 1    
   151   76  198 1    
   152   76  199 1    
   153   77   78 2    
   154   77   79 am   BACKBONE|DICT|INTERRES
   155   79   80 1    
   156   79  200 1    
   157   80   81 1    
   158   80   82 1    
   159   80  201 1    
   160   81  202 1    
   161   81  203 1    
   162   81  204 1    
   163   82   83 2    
   164   82   84 am   BACKBONE|DICT|INTERRES
   165   84   85 1    
   166   84  205 1    
   167   85   86 1    
   168   85   87 1    
   169   85  206 1    
   170   86  207 1    
   171   86  208 1    
   172   86  209 1    
   173   87   88 2    
   174   87   89 am   BACKBONE|DICT|INTERRES
   175   89   90 1    
   176   89  210 1    
   177   90   91 1    
   178   90   92 1    
   179   90  211 1    
   180   91  212 1    
   181   91  213 1    
   182   91  214 1    
   183   92   93 2    
   184   92   94 am   BACKBONE|DICT|INTERRES
   185   94   95 1    
   186   94  215 1    
   187   95   96 1    
   188   95   97 1    
   189   95  216 1    
   190   96  217 1    
   191   96  218 1    
   192   96  219 1    
   193   97   98 2    
   194   97   99 am   BACKBONE|DICT|INTERRES
   195   99  100 1    
   196   99  220 1    
   197  100  101 1    
   198  100  102 1    
   199  100  221 1    
   200  101  222 1    
   201  101  223 1    
   202  101  224 1    
   203  102  103 2    
   204  102  104 am   BACKBONE|DICT|INTERRES
   205  104  105 1    
   206  104  225 1    
   207  105  106 1    
   208  105  107 1    
   209  105  226 1    
   210  106  227 1    
   211  106  228 1    
   212  106  229 1    
   213  107  108 2    
   214  107  109 am   BACKBONE|DICT|INTERRES
   215  109  110 1    
   216  109  230 1    
   217  110  111 1    
   218  110  112 1    
   219  110  231 1    
   220  111  232 1    
   221  111  233 1    
   222  111  234 1    
   223  112  113 2    
   224  112  114 am   BACKBONE|DICT|INTERRES
   225  114  115 1    
   226  114  235 1    
   227  115  116 1    
   228  115  117 1    
   229  115  236 1    
   230  116  237 1    
   231  116  238 1    
   232  116  239 1    
   233  117  118 2    
   234  117  119 am   BACKBONE|DICT|INTERRES
   235  119  120 1    
   236  119  240 1    
   237  120  121 1    
   238  120  124 1    
   239  120  241 1    
   240  121  122 am   BACKBONE|DICT|INTERRES
   241  121  123 2    
   242  122  242 1    
   243  122  243 1    
   244  124  125 1    
   245  124  244 1    
   246  124  245 1    
   247  125  126 1    
   248  126  246 1    
   249  126  247 1    
@<TRIPOS>SUBSTRUCTURE
     1 UNK         1 GROUP             0       ****    0 ROOT    
