@<TRIPOS>MOLECULE
3R540
247   249    1
SMALL
USER_CHARGES


@<TRIPOS>ATOM
      1 CA          5.2319  -14.2090  -44.2511 C.3       0 UNK        -0.1800 
      2 C           4.1411  -13.5553  -45.0852 C.2       0 UNK         0.5000 
      3 O           3.1390  -13.1031  -44.5346 O.2       0 UNK        -0.5000 
      4 N           4.3323  -13.4789  -46.4098 N.am      1 UNK        -0.5000 
      5 CA          3.3639  -12.9373  -47.3782 C.3       1 UNK         0.1400 
      6 C6          3.6966  -13.3307  -48.8384 C.3       23 UNK        -0.0398 
      7 S7          3.6803  -15.1331  -49.1182 S.3       23 UNK        -0.2404 
      8 C8          1.8909  -15.4867  -49.0981 C.3       23 UNK        -0.0205 
      9 C9          1.5156  -16.5355  -50.1331 C.ar      23 UNK        -0.0193 
     10 C10         0.7733  -16.1690  -51.2599 C.ar      23 UNK        -0.1150 
     11 C11         0.4189  -17.1221  -52.2179 C.ar      23 UNK        -0.0193 
     12 C12         0.8245  -18.4484  -52.0474 C.ar      23 UNK        -0.1150 
     13 C13         1.5739  -18.8287  -50.9311 C.ar      23 UNK        -0.0193 
     14 C14         1.9047  -17.8695  -49.9678 C.ar      23 UNK        -0.1150 
     15 C15         2.0480  -20.2693  -50.7923 C.3       23 UNK        -0.0205 
     16 S16         0.6620  -21.4356  -50.6065 S.3       23 UNK        -0.2404 
     17 C17         0.0737  -21.0260  -48.9326 C.3       23 UNK        -0.0398 
     18 CA         -0.0239  -22.2792  -48.0280 C.3       11 UNK         0.1400 
     19 N           0.2017  -21.9582  -46.6175 N.am      11 UNK        -0.5000 
     20 C           0.2798  -22.8465  -45.6163 C.2       10 UNK         0.5000 
     21 O           0.2459  -24.0649  -45.7751 O.2       10 UNK        -0.5000 
     22 CA          0.3293  -22.2718  -44.1896 C.3       10 UNK         0.1400 
     23 CB          1.7607  -21.8868  -43.7866 C.3       10 UNK        -0.1800 
     24 N          -0.5608  -21.1183  -44.0526 N.am      10 UNK        -0.5000 
     25 C          -1.8986  -21.2016  -44.0990 C.2       9 UNK         0.5000 
     26 O          -2.5105  -22.2688  -44.1526 O.2       9 UNK        -0.5000 
     27 CA         -2.6778  -19.8745  -44.1436 C.3       9 UNK         0.1400 
     28 CB         -3.0153  -19.3998  -42.7233 C.3       9 UNK        -0.1800 
     29 N          -1.9486  -18.8277  -44.8693 N.am      9 UNK        -0.5000 
     30 C          -1.8120  -18.8210  -46.2051 C.2       8 UNK         0.5000 
     31 O          -2.3223  -19.6704  -46.9353 O.2       8 UNK        -0.5000 
     32 CA         -0.9185  -17.7347  -46.8374 C.3       8 UNK         0.1400 
     33 CB         -1.7214  -16.4769  -47.1960 C.3       8 UNK        -0.1800 
     34 N           0.2316  -17.3644  -46.0108 N.am      8 UNK        -0.5000 
     35 C           1.2566  -18.1896  -45.7564 C.2       7 UNK         0.5000 
     36 O           1.2747  -19.3641  -46.1191 O.2       7 UNK        -0.5000 
     37 CA          2.4549  -17.6370  -44.9725 C.3       7 UNK         0.1400 
     38 CB          3.4528  -16.9683  -45.9245 C.3       7 UNK        -0.1800 
     39 N           2.0351  -16.6823  -43.9477 N.am      7 UNK        -0.5000 
     40 C           2.1154  -16.9120  -42.6300 C.2       6 UNK         0.5000 
     41 O           2.6551  -17.9031  -42.1367 O.2       6 UNK        -0.5000 
     42 CA          1.4588  -15.8786  -41.6919 C.3       6 UNK         0.1400 
     43 CB          2.4910  -14.8382  -41.2309 C.3       6 UNK        -0.1800 
     44 N           0.3048  -15.1843  -42.2685 N.am      6 UNK        -0.5000 
     45 C          -0.8035  -15.7710  -42.7418 C.2       5 UNK         0.5000 
     46 O          -0.9833  -16.9872  -42.7624 O.2       5 UNK        -0.5000 
     47 CA         -1.8744  -14.8491  -43.3514 C.3       5 UNK         0.1400 
     48 CB         -2.8734  -14.4095  -42.2714 C.3       5 UNK        -0.1800 
     49 N          -1.3585  -13.6599  -44.0383 N.am      5 UNK        -0.5000 
     50 C          -0.4154  -13.6283  -44.9923 C.2       4 UNK         0.5000 
     51 O           0.2343  -14.6133  -45.3492 O.2       4 UNK        -0.5000 
     52 CA         -0.1515  -12.2726  -45.6702 C.3       4 UNK         0.1400 
     53 CB         -0.5935  -12.3490  -47.1404 C.3       4 UNK        -0.1800 
     54 N          -0.8585  -11.1510  -45.0396 N.am      4 UNK        -0.5000 
     55 C          -0.5040  -10.3575  -44.0128 C.2       3 UNK         0.5000 
     56 O          -1.3063   -9.5391  -43.5673 O.2       3 UNK        -0.5000 
     57 CA          0.8993  -10.4148  -43.3617 C.3       3 UNK         0.1400 
     58 CB          1.0592  -11.6143  -42.4148 C.3       3 UNK        -0.1800 
     59 N           2.0237  -10.3409  -44.2956 N.am      3 UNK        -0.5000 
     60 C           2.3493   -9.2569  -45.0182 C.2       2 UNK         0.5000 
     61 O           1.7304   -8.1936  -44.9660 O.2       2 UNK        -0.5000 
     62 CA          3.5821   -9.3596  -45.9432 C.3       2 UNK         0.1400 
     63 CB          4.8270   -8.7954  -45.2415 C.3       2 UNK        -0.1800 
     64 N           3.8602  -10.7314  -46.3671 N.am      2 UNK        -0.5000 
     65 C           3.1269  -11.4122  -47.2571 C.2       1 UNK         0.5000 
     66 O           2.2525  -10.8853  -47.9443 O.2       1 UNK        -0.5000 
     67 C          -1.3573  -23.0256  -48.2404 C.2       11 UNK         0.5000 
     68 O          -1.3678  -24.0612  -48.9046 O.2       11 UNK        -0.5000 
     69 N          -2.4377  -22.5211  -47.6221 N.am      12 UNK        -0.5000 
     70 CA         -3.7686  -23.1351  -47.6139 C.3       12 UNK         0.1400 
     71 CB         -4.7399  -22.2572  -46.8053 C.3       12 UNK        -0.1800 
     72 C          -3.7519  -24.5656  -47.0468 C.2       12 UNK         0.5000 
     73 O          -4.2947  -25.4776  -47.6717 O.2       12 UNK        -0.5000 
     74 N          -3.0909  -24.7354  -45.8927 N.am      13 UNK        -0.5000 
     75 CA         -2.9088  -26.0189  -45.2174 C.3       13 UNK         0.1400 
     76 CB         -2.3039  -25.7821  -43.8254 C.3       13 UNK        -0.1800 
     77 C          -2.0540  -27.0106  -46.0281 C.2       13 UNK         0.5000 
     78 O          -2.4186  -28.1828  -46.1205 O.2       13 UNK        -0.5000 
     79 N          -0.9512  -26.5242  -46.6150 N.am      14 UNK        -0.5000 
     80 CA         -0.0349  -27.3035  -47.4498 C.3       14 UNK         0.1400 
     81 CB          1.2347  -26.4838  -47.7265 C.3       14 UNK        -0.1800 
     82 C          -0.6756  -27.7722  -48.7679 C.2       14 UNK         0.5000 
     83 O          -0.4826  -28.9236  -49.1608 O.2       14 UNK        -0.5000 
     84 N          -1.4390  -26.8822  -49.4160 N.am      15 UNK        -0.5000 
     85 CA         -2.1940  -27.1735  -50.6355 C.3       15 UNK         0.1400 
     86 CB         -2.6095  -25.8483  -51.2953 C.3       15 UNK        -0.1800 
     87 C          -3.4376  -28.0461  -50.3820 C.2       15 UNK         0.5000 
     88 O          -3.9062  -28.7035  -51.3121 O.2       15 UNK        -0.5000 
     89 N          -3.9578  -28.0069  -49.1449 N.am      16 UNK        -0.5000 
     90 CA         -5.2431  -28.5524  -48.6965 C.3       16 UNK         0.1400 
     91 CB         -5.2446  -30.0941  -48.7487 C.3       16 UNK        -0.1800 
     92 C          -6.4109  -27.9041  -49.4687 C.2       16 UNK         0.5000 
     93 O          -7.2911  -28.5989  -49.9813 O.2       16 UNK        -0.5000 
     94 N          -6.3544  -26.5724  -49.5778 N.am      17 UNK        -0.5000 
     95 CA         -7.2194  -25.7483  -50.4145 C.3       17 UNK         0.1400 
     96 CB         -6.6805  -25.7526  -51.8618 C.3       17 UNK        -0.1800 
     97 C          -7.3216  -24.3344  -49.8160 C.2       17 UNK         0.5000 
     98 O          -7.0635  -24.1492  -48.6252 O.2       17 UNK        -0.5000 
     99 N          -7.7137  -23.3595  -50.6442 N.am      18 UNK        -0.5000 
    100 CA        -7.7718  -21.9417  -50.2931 C.3       18 UNK         0.1400 
    101 CB        -8.5850  -21.2032  -51.3690 C.3       18 UNK        -0.1800 
    102 C         -6.3687  -21.3178  -50.1673 C.2       18 UNK         0.5000 
    103 O         -5.4109  -21.8120  -50.7662 O.2       18 UNK        -0.5000 
    104 N         -6.2919  -20.2034  -49.4285 N.am      19 UNK        -0.5000 
    105 CA        -5.0814  -19.3943  -49.2541 C.3       19 UNK         0.1400 
    106 CB        -5.3232  -18.3900  -48.1174 C.3       19 UNK        -0.1800 
    107 C         -4.6405  -18.6696  -50.5398 C.2       19 UNK         0.5000 
    108 O         -3.4533  -18.3906  -50.7060 O.2       19 UNK        -0.5000 
    109 N         -5.5899  -18.4205  -51.4523 N.am      20 UNK        -0.5000 
    110 CA        -5.3811  -17.8402  -52.7807 C.3       20 UNK         0.1400 
    111 CB        -6.7031  -17.2089  -53.2527 C.3       20 UNK        -0.1800 
    112 C         -4.8206  -18.8671  -53.7921 C.2       20 UNK         0.5000 
    113 O         -5.2939  -18.9454  -54.9278 O.2       20 UNK        -0.5000 
    114 N         -3.8048  -19.6320  -53.3700 N.am      21 UNK        -0.5000 
    115 CA        -3.1443  -20.6977  -54.1320 C.3       21 UNK         0.1400 
    116 CB        -2.1651  -21.4280  -53.2004 C.3       21 UNK        -0.1800 
    117 C         -2.4242  -20.2057  -55.4053 C.2       21 UNK         0.5000 
    118 O         -2.1773  -21.0000  -56.3134 O.2       21 UNK        -0.5000 
    119 N         -2.1258  -18.9029  -55.4514 N.am      22 UNK        -0.5000 
    120 CA        -1.5931  -18.1781  -56.6133 C.3       22 UNK         0.1400 
    121 C         -2.6389  -17.9371  -57.7438 C.2       22 UNK         0.5000 
    122 N         -3.9310  -18.1641  -57.5290 N.am      22 UNK        -0.7600 
    123 O         -2.2677  -17.5391  -58.8445 O.2       22 UNK        -0.5000 
    124 C124       -0.9317  -16.8394  -56.1898 C.3       23 UNK        -0.0398 
    125 S125        0.4309  -17.0635  -54.9953 S.3       23 UNK        -0.2404 
    126 C126       -0.4253  -16.7303  -53.4209 C.3       23 UNK        -0.0205 
    127 H127        6.0274  -14.6184  -44.8740 H         1 UNK         0.0600 
    128 H128        4.8119  -15.0207  -43.6571 H         1 UNK         0.0600 
    129 H129        5.6695  -13.4796  -43.5699 H         1 UNK         0.0600 
    130 H130        5.1770  -13.8618  -46.8106 H         1 UNK         0.3000 
    131 H131        2.4026  -13.3944  -47.1365 H         1 UNK         0.0600 
    132 H132        4.6811  -12.9507  -49.1158 H         1 UNK         0.0800 
    133 H133        2.9938  -12.8792  -49.5413 H         1 UNK         0.0800 
    134 H134        1.5953  -15.8321  -48.1078 H         1 UNK         0.0800 
    135 H135        1.3272  -14.5700  -49.2761 H         1 UNK         0.0800 
    136 H136        0.4651  -15.1409  -51.3881 H         1 UNK         0.1150 
    137 H137        0.5602  -19.1878  -52.7904 H         1 UNK         0.1150 
    138 H138        2.4827  -18.1524  -49.0990 H         1 UNK         0.1150 
    139 H139        2.6146  -20.5392  -51.6844 H         1 UNK         0.0800 
    140 H140        2.7339  -20.3794  -49.9508 H         1 UNK         0.0800 
    141 H141       -0.8774  -20.4967  -49.0118 H         1 UNK         0.0800 
    142 H142        0.7699  -20.3095  -48.4977 H         1 UNK         0.0800 
    143 H143        0.7796  -22.9662  -48.3025 H         1 UNK         0.0600 
    144 H144        0.3251  -20.9751  -46.3930 H         1 UNK         0.3000 
    145 H145       -0.0143  -23.0497  -43.5043 H         1 UNK         0.0600 
    146 H146        1.7930  -21.4980  -42.7687 H         1 UNK         0.0600 
    147 H147        2.4186  -22.7558  -43.8237 H         1 UNK         0.0600 
    148 H148        2.1846  -21.1309  -44.4466 H         1 UNK         0.0600 
    149 H149       -0.1314  -20.2053  -44.0387 H         1 UNK         0.3000 
    150 H150       -3.6198  -20.0588  -44.6648 H         1 UNK         0.0600 
    151 H151       -3.6538  -20.1233  -42.2150 H         1 UNK         0.0600 
    152 H152       -3.5480  -18.4488  -42.7389 H         1 UNK         0.0600 
    153 H153       -2.1188  -19.2747  -42.1153 H         1 UNK         0.0600 
    154 H154       -1.4922  -18.1170  -44.3054 H         1 UNK         0.3000 
    155 H155       -0.5260  -18.1427  -47.7715 H         1 UNK         0.0600 
    156 H156       -1.0758  -15.7000  -47.6058 H         1 UNK         0.0600 
    157 H157       -2.4673  -16.6985  -47.9580 H         1 UNK         0.0600 
    158 H158       -2.2390  -16.0631  -46.3316 H         1 UNK         0.0600 
    159 H159        0.2729  -16.3957  -45.7040 H         1 UNK         0.3000 
    160 H160        2.9568  -18.4961  -44.5229 H         1 UNK         0.0600 
    161 H161        3.0585  -16.0316  -46.3139 H         1 UNK         0.0600 
    162 H162        3.6845  -17.6106  -46.7753 H         1 UNK         0.0600 
    163 H163        4.3928  -16.7544  -45.4179 H         1 UNK         0.0600 
    164 H164        1.5610  -15.8447  -44.2662 H         1 UNK         0.3000 
    165 H165        1.1042  -16.4201  -40.8127 H         1 UNK         0.0600 
    166 H166        2.0645  -14.1555  -40.4959 H         1 UNK         0.0600 
    167 H167        3.3510  -15.3205  -40.7645 H         1 UNK         0.0600 
    168 H168        2.8630  -14.2435  -42.0654 H         1 UNK         0.0600 
    169 H169        0.3662  -14.1796  -42.3202 H         1 UNK         0.3000 
    170 H170       -2.4191  -15.4378  -44.0906 H         1 UNK         0.0600 
    171 H171       -3.2933  -15.2720  -41.7518 H         1 UNK         0.0600 
    172 H172       -2.4014  -13.7721  -41.5226 H         1 UNK         0.0600 
    173 H173       -3.7073  -13.8575  -42.7054 H         1 UNK         0.0600 
    174 H174       -1.8275  -12.7919  -43.8243 H         1 UNK         0.3000 
    175 H175        0.9199  -12.1136  -45.6502 H         1 UNK         0.0600 
    176 H176       -0.4026  -11.4098  -47.6596 H         1 UNK         0.0600 
    177 H177       -0.0512  -13.1291  -47.6758 H         1 UNK         0.0600 
    178 H178       -1.6578  -12.5697  -47.2319 H         1 UNK         0.0600 
    179 H179       -1.7805  -10.9933  -45.4188 H         1 UNK         0.3000 
    180 H180        0.9694   -9.5264  -42.7300 H         1 UNK         0.0600 
    181 H181        1.1764  -12.5487  -42.9559 H         1 UNK         0.0600 
    182 H182        0.1965  -11.7159  -41.7551 H         1 UNK         0.0600 
    183 H183        1.9384  -11.4941  -41.7815 H         1 UNK         0.0600 
    184 H184        2.5698  -11.1896  -44.4038 H         1 UNK         0.3000 
    185 H185        3.3851   -8.7523  -46.8293 H         1 UNK         0.0600 
    186 H186        4.6666   -7.7613  -44.9336 H         1 UNK         0.0600 
    187 H187        5.0806   -9.3683  -44.3487 H         1 UNK         0.0600 
    188 H188        5.6922   -8.8052  -45.9047 H         1 UNK         0.0600 
    189 H189        4.5612  -11.2366  -45.8453 H         1 UNK         0.3000 
    190 H190       -2.3463  -21.6329  -47.1390 H         1 UNK         0.3000 
    191 H191       -4.1161  -23.1795  -48.6479 H         1 UNK         0.0600 
    192 H192       -4.5471  -22.3085  -45.7348 H         1 UNK         0.0600 
    193 H193       -5.7704  -22.5761  -46.9583 H         1 UNK         0.0600 
    194 H194       -4.6784  -21.2112  -47.0928 H         1 UNK         0.0600 
    195 H195       -2.6950  -23.9205  -45.4365 H         1 UNK         0.3000 
    196 H196       -3.8966  -26.4653  -45.0850 H         1 UNK         0.0600 
    197 H197       -2.1877  -26.7223  -43.2849 H         1 UNK         0.0600 
    198 H198       -2.9431  -25.1364  -43.2229 H         1 UNK         0.0600 
    199 H199       -1.3210  -25.3142  -43.8862 H         1 UNK         0.0600 
    200 H200       -0.6928  -25.5550  -46.4455 H         1 UNK         0.3000 
    201 H201        0.2538  -28.1935  -46.8869 H         1 UNK         0.0600 
    202 H202        1.7473  -26.2272  -46.7993 H         1 UNK         0.0600 
    203 H203        1.0073  -25.5548  -48.2506 H         1 UNK         0.0600 
    204 H204        1.9380  -27.0460  -48.3420 H         1 UNK         0.0600 
    205 H205       -1.5007  -25.9300  -49.0611 H         1 UNK         0.3000 
    206 H206       -1.5428  -27.7118  -51.3273 H         1 UNK         0.0600 
    207 H207       -1.7403  -25.2337  -51.5304 H         1 UNK         0.0600 
    208 H208       -3.1452  -26.0256  -52.2286 H         1 UNK         0.0600 
    209 H209       -3.2649  -25.2654  -50.6461 H         1 UNK         0.0600 
    210 H210       -3.5094  -27.3879  -48.4811 H         1 UNK         0.3000 
    211 H211       -5.3566  -28.2555  -47.6528 H         1 UNK         0.0600 
    212 H212       -5.1872  -30.4693  -49.7707 H         1 UNK         0.0600 
    213 H213       -6.1558  -30.4963  -48.3047 H         1 UNK         0.0600 
    214 H214       -4.4025  -30.5058  -48.1922 H         1 UNK         0.0600 
    215 H215       -5.6543  -26.0661  -49.0407 H         1 UNK         0.3000 
    216 H216       -8.2275  -26.1675  -50.4079 H         1 UNK         0.0600 
    217 H217       -5.7187  -25.2424  -51.9305 H         1 UNK         0.0600 
    218 H218       -7.3694  -25.2611  -52.5490 H         1 UNK         0.0600 
    219 H219       -6.5415  -26.7691  -52.2307 H         1 UNK         0.0600 
    220 H220       -7.8763  -23.5857  -51.6139 H         1 UNK         0.3000 
    221 H221       -8.2855  -21.8434  -49.3343 H         1 UNK         0.0600 
    222 H222       -9.5865  -21.6235  -51.4643 H         1 UNK         0.0600 
    223 H223       -8.1035  -21.2585  -52.3465 H         1 UNK         0.0600 
    224 H224       -8.7021  -20.1477  -51.1207 H         1 UNK         0.0600 
    225 H225       -7.1247  -19.8629  -48.9696 H         1 UNK         0.3000 
    226 H226       -4.2593  -20.0539  -48.9707 H         1 UNK         0.0600 
    227 H227       -5.5592  -18.8985  -47.1826 H         1 UNK         0.0600 
    228 H228       -4.4369  -17.7853  -47.9359 H         1 UNK         0.0600 
    229 H229       -6.1433  -17.7089  -48.3477 H         1 UNK         0.0600 
    230 H230       -6.5310  -18.7151  -51.2406 H         1 UNK         0.3000 
    231 H231       -4.6424  -17.0403  -52.6986 H         1 UNK         0.0600 
    232 H232       -7.4851  -17.9592  -53.3766 H         1 UNK         0.0600 
    233 H233       -6.5773  -16.7026  -54.2107 H         1 UNK         0.0600 
    234 H234       -7.0612  -16.4648  -52.5411 H         1 UNK         0.0600 
    235 H235       -3.4692  -19.4763  -52.4256 H         1 UNK         0.3000 
    236 H236       -3.9132  -21.4060  -54.4464 H         1 UNK         0.0600 
    237 H237       -2.6811  -21.8526  -52.3384 H         1 UNK         0.0600 
    238 H238       -1.6672  -22.2494  -53.7172 H         1 UNK         0.0600 
    239 H239       -1.3914  -20.7555  -52.8291 H         1 UNK         0.0600 
    240 H240       -2.3775  -18.3404  -54.6550 H         1 UNK         0.3000 
    241 H241       -0.8150  -18.8029  -57.0561 H         1 UNK         0.0600 
    242 H242       -4.5880  -18.0052  -58.2764 H         1 UNK         0.3800 
    243 H243       -4.2706  -18.4910  -56.6311 H         1 UNK         0.3800 
    244 H244       -1.6740  -16.1551  -55.7752 H         1 UNK         0.0800 
    245 H245       -0.5125  -16.3340  -57.0617 H         1 UNK         0.0800 
    246 H246       -0.6921  -15.6730  -53.3812 H         1 UNK         0.0800 
    247 H247       -1.3609  -17.2867  -53.3732 H         1 UNK         0.0800 
@<TRIPOS>BOND
     1    1    2 1    
     2    1  127 1    
     3    1  128 1    
     4    1  129 1    
     5    2    3 2    
     6    2    4 am   BACKBONE|DICT|INTERRES
     7    4    5 1    
     8    4  130 1    
     9    5    6 1    
    10    5   65 1    
    11    5  131 1    
    12    6    7 1    
    13    6  132 1    
    14    6  133 1    
    15    7    8 1    
    16    8    9 1    
    17    8  134 1    
    18    8  135 1    
    19    9   10 ar   
    20    9   14 ar   
    21   10   11 ar   
    22   10  136 1    
    23   11   12 ar   
    24   11  126 1    
    25   12   13 ar   
    26   12  137 1    
    27   13   14 ar   
    28   13   15 1    
    29   14  138 1    
    30   15   16 1    
    31   15  139 1    
    32   15  140 1    
    33   16   17 1    
    34   17   18 1    
    35   17  141 1    
    36   17  142 1    
    37   18   19 1    
    38   18   67 1    
    39   18  143 1    
    40   19   20 am   BACKBONE|DICT|INTERRES
    41   19  144 1    
    42   20   21 2    
    43   20   22 1    
    44   22   23 1    
    45   22   24 1    
    46   22  145 1    
    47   23  146 1    
    48   23  147 1    
    49   23  148 1    
    50   24   25 am   BACKBONE|DICT|INTERRES
    51   24  149 1    
    52   25   26 2    
    53   25   27 1    
    54   27   28 1    
    55   27   29 1    
    56   27  150 1    
    57   28  151 1    
    58   28  152 1    
    59   28  153 1    
    60   29   30 am   BACKBONE|DICT|INTERRES
    61   29  154 1    
    62   30   31 2    
    63   30   32 1    
    64   32   33 1    
    65   32   34 1    
    66   32  155 1    
    67   33  156 1    
    68   33  157 1    
    69   33  158 1    
    70   34   35 am   BACKBONE|DICT|INTERRES
    71   34  159 1    
    72   35   36 2    
    73   35   37 1    
    74   37   38 1    
    75   37   39 1    
    76   37  160 1    
    77   38  161 1    
    78   38  162 1    
    79   38  163 1    
    80   39   40 am   BACKBONE|DICT|INTERRES
    81   39  164 1    
    82   40   41 2    
    83   40   42 1    
    84   42   43 1    
    85   42   44 1    
    86   42  165 1    
    87   43  166 1    
    88   43  167 1    
    89   43  168 1    
    90   44   45 am   BACKBONE|DICT|INTERRES
    91   44  169 1    
    92   45   46 2    
    93   45   47 1    
    94   47   48 1    
    95   47   49 1    
    96   47  170 1    
    97   48  171 1    
    98   48  172 1    
    99   48  173 1    
   100   49   50 am   BACKBONE|DICT|INTERRES
   101   49  174 1    
   102   50   51 2    
   103   50   52 1    
   104   52   53 1    
   105   52   54 1    
   106   52  175 1    
   107   53  176 1    
   108   53  177 1    
   109   53  178 1    
   110   54   55 am   BACKBONE|DICT|INTERRES
   111   54  179 1    
   112   55   56 2    
   113   55   57 1    
   114   57   58 1    
   115   57   59 1    
   116   57  180 1    
   117   58  181 1    
   118   58  182 1    
   119   58  183 1    
   120   59   60 am   BACKBONE|DICT|INTERRES
   121   59  184 1    
   122   60   61 2    
   123   60   62 1    
   124   62   63 1    
   125   62   64 1    
   126   62  185 1    
   127   63  186 1    
   128   63  187 1    
   129   63  188 1    
   130   64   65 am   BACKBONE|DICT|INTERRES
   131   64  189 1    
   132   65   66 2    
   133   67   68 2    
   134   67   69 am   BACKBONE|DICT|INTERRES
   135   69   70 1    
   136   69  190 1    
   137   70   71 1    
   138   70   72 1    
   139   70  191 1    
   140   71  192 1    
   141   71  193 1    
   142   71  194 1    
   143   72   73 2    
   144   72   74 am   BACKBONE|DICT|INTERRES
   145   74   75 1    
   146   74  195 1    
   147   75   76 1    
   148   75   77 1    
   149   75  196 1    
   150   76  197 1    
   151   76  198 1    
   152   76  199 1    
   153   77   78 2    
   154   77   79 am   BACKBONE|DICT|INTERRES
   155   79   80 1    
   156   79  200 1    
   157   80   81 1    
   158   80   82 1    
   159   80  201 1    
   160   81  202 1    
   161   81  203 1    
   162   81  204 1    
   163   82   83 2    
   164   82   84 am   BACKBONE|DICT|INTERRES
   165   84   85 1    
   166   84  205 1    
   167   85   86 1    
   168   85   87 1    
   169   85  206 1    
   170   86  207 1    
   171   86  208 1    
   172   86  209 1    
   173   87   88 2    
   174   87   89 am   BACKBONE|DICT|INTERRES
   175   89   90 1    
   176   89  210 1    
   177   90   91 1    
   178   90   92 1    
   179   90  211 1    
   180   91  212 1    
   181   91  213 1    
   182   91  214 1    
   183   92   93 2    
   184   92   94 am   BACKBONE|DICT|INTERRES
   185   94   95 1    
   186   94  215 1    
   187   95   96 1    
   188   95   97 1    
   189   95  216 1    
   190   96  217 1    
   191   96  218 1    
   192   96  219 1    
   193   97   98 2    
   194   97   99 am   BACKBONE|DICT|INTERRES
   195   99  100 1    
   196   99  220 1    
   197  100  101 1    
   198  100  102 1    
   199  100  221 1    
   200  101  222 1    
   201  101  223 1    
   202  101  224 1    
   203  102  103 2    
   204  102  104 am   BACKBONE|DICT|INTERRES
   205  104  105 1    
   206  104  225 1    
   207  105  106 1    
   208  105  107 1    
   209  105  226 1    
   210  106  227 1    
   211  106  228 1    
   212  106  229 1    
   213  107  108 2    
   214  107  109 am   BACKBONE|DICT|INTERRES
   215  109  110 1    
   216  109  230 1    
   217  110  111 1    
   218  110  112 1    
   219  110  231 1    
   220  111  232 1    
   221  111  233 1    
   222  111  234 1    
   223  112  113 2    
   224  112  114 am   BACKBONE|DICT|INTERRES
   225  114  115 1    
   226  114  235 1    
   227  115  116 1    
   228  115  117 1    
   229  115  236 1    
   230  116  237 1    
   231  116  238 1    
   232  116  239 1    
   233  117  118 2    
   234  117  119 am   BACKBONE|DICT|INTERRES
   235  119  120 1    
   236  119  240 1    
   237  120  121 1    
   238  120  124 1    
   239  120  241 1    
   240  121  122 am   BACKBONE|DICT|INTERRES
   241  121  123 2    
   242  122  242 1    
   243  122  243 1    
   244  124  125 1    
   245  124  244 1    
   246  124  245 1    
   247  125  126 1    
   248  126  246 1    
   249  126  247 1    
@<TRIPOS>SUBSTRUCTURE
     1 UNK         1 GROUP             0       ****    0 ROOT    
