@<TRIPOS>MOLECULE
3R540
247   249    1
SMALL
USER_CHARGES


@<TRIPOS>ATOM
      1 CA         -1.5392   -6.7143  -48.1205 C.3       0 UNK        -0.1800 
      2 C          -1.7048   -7.9803  -48.9495 C.2       0 UNK         0.5000 
      3 O          -1.3559   -7.9873  -50.1299 O.2       0 UNK        -0.5000 
      4 N          -2.2421   -9.0433  -48.3369 N.am      1 UNK        -0.5000 
      5 CA         -2.4385  -10.3651  -48.9423 C.3       1 UNK         0.1400 
      6 C6         -3.3775  -11.2321  -48.0619 C.3       23 UNK        -0.0398 
      7 S7         -3.7919  -12.8605  -48.7747 S.3       23 UNK        -0.2404 
      8 C8         -2.8864  -13.9603  -47.6417 C.3       23 UNK        -0.0205 
      9 C9         -2.8398  -15.3786  -48.1814 C.ar      23 UNK        -0.0193 
     10 C10        -1.8441  -15.7473  -49.0868 C.ar      23 UNK        -0.1150 
     11 C11        -1.8142  -17.0339  -49.6273 C.ar      23 UNK        -0.0193 
     12 C12        -2.7827  -17.9638  -49.2371 C.ar      23 UNK        -0.1150 
     13 C13        -3.7851  -17.6129  -48.3202 C.ar      23 UNK        -0.0193 
     14 C14        -3.8011  -16.3161  -47.7976 C.ar      23 UNK        -0.1150 
     15 C15        -4.9184  -18.5639  -47.9353 C.3       23 UNK        -0.0205 
     16 S16        -4.5339  -20.3372  -48.1077 S.3       23 UNK        -0.2404 
     17 C17        -4.5807  -20.9121  -46.3751 C.3       23 UNK        -0.0398 
     18 CA         -3.7713  -22.2193  -46.2085 C.3       11 UNK         0.1400 
     19 N          -2.3456  -21.9890  -46.4482 N.am      11 UNK        -0.5000 
     20 C          -1.6068  -22.7740  -47.2362 C.2       10 UNK         0.5000 
     21 O          -1.9341  -23.9170  -47.5524 O.2       10 UNK        -0.5000 
     22 CA         -0.3193  -22.1586  -47.8110 C.3       10 UNK         0.1400 
     23 CB         -0.6279  -20.8700  -48.5917 C.3       10 UNK        -0.1800 
     24 N           0.6725  -21.8672  -46.7860 N.am      10 UNK        -0.5000 
     25 C           1.3093  -22.7885  -46.0541 C.2       9 UNK         0.5000 
     26 O           1.1724  -24.0037  -46.1959 O.2       9 UNK        -0.5000 
     27 CA          2.2063  -22.2488  -44.9263 C.3       9 UNK         0.1400 
     28 CB          3.5594  -21.7807  -45.4820 C.3       9 UNK        -0.1800 
     29 N           1.5680  -21.1698  -44.1670 N.am      9 UNK        -0.5000 
     30 C           0.3892  -21.2868  -43.5374 C.2       8 UNK         0.5000 
     31 O          -0.2685  -22.3269  -43.5175 O.2       8 UNK        -0.5000 
     32 CA         -0.1764  -20.0329  -42.8511 C.3       8 UNK         0.1400 
     33 CB          0.5330  -19.7774  -41.5138 C.3       8 UNK        -0.1800 
     34 N          -0.0950  -18.8443  -43.6987 N.am      8 UNK        -0.5000 
     35 C          -0.7711  -18.6823  -44.8462 C.2       7 UNK         0.5000 
     36 O          -1.5775  -19.5019  -45.2863 O.2       7 UNK        -0.5000 
     37 CA         -0.4564  -17.4151  -45.6631 C.3       7 UNK         0.1400 
     38 CB         -1.1771  -16.1900  -45.0818 C.3       7 UNK        -0.1800 
     39 N           0.9785  -17.1428  -45.7348 N.am      7 UNK        -0.5000 
     40 C           1.8823  -17.9598  -46.2936 C.2       6 UNK         0.5000 
     41 O           1.6013  -19.0176  -46.8579 O.2       6 UNK        -0.5000 
     42 CA          3.3554  -17.5451  -46.1478 C.3       6 UNK         0.1400 
     43 CB          3.7292  -16.4681  -47.1786 C.3       6 UNK        -0.1800 
     44 N           3.6559  -17.0672  -44.7967 N.am      6 UNK        -0.5000 
     45 C           3.6928  -17.8513  -43.7094 C.2       5 UNK         0.5000 
     46 O           3.4932  -19.0641  -43.7351 O.2       5 UNK        -0.5000 
     47 CA          3.9651  -17.1637  -42.3594 C.3       5 UNK         0.1400 
     48 CB          5.4731  -16.9626  -42.1485 C.3       5 UNK        -0.1800 
     49 N           3.2820  -15.8775  -42.2325 N.am      5 UNK        -0.5000 
     50 C           1.9511  -15.7255  -42.1834 C.2       4 UNK         0.5000 
     51 O           1.1521  -16.6606  -42.2039 O.2       4 UNK        -0.5000 
     52 CA          1.4269  -14.2781  -42.1679 C.3       4 UNK         0.1400 
     53 CB          1.3747  -13.7359  -40.7318 C.3       4 UNK        -0.1800 
     54 N           2.2148  -13.3683  -43.0061 N.am      4 UNK        -0.5000 
     55 C           2.3793  -13.5131  -44.3270 C.2       3 UNK         0.5000 
     56 O           1.9223  -14.4605  -44.9728 O.2       3 UNK        -0.5000 
     57 CA          3.2321  -12.4481  -45.0417 C.3       3 UNK         0.1400 
     58 CB          4.6984  -12.9021  -45.1110 C.3       3 UNK        -0.1800 
     59 N           2.7397  -12.2186  -46.3994 N.am      3 UNK        -0.5000 
     60 C           1.5483  -11.6753  -46.6751 C.2       2 UNK         0.5000 
     61 O           0.8375  -11.1234  -45.8273 O.2       2 UNK        -0.5000 
     62 CA          1.0522  -11.8024  -48.1250 C.3       2 UNK         0.1400 
     63 CB          1.0306  -13.2845  -48.5660 C.3       2 UNK        -0.1800 
     64 N          -0.2816  -11.2106  -48.1690 N.am      2 UNK        -0.5000 
     65 C          -1.0796  -11.0440  -49.2283 C.2       1 UNK         0.5000 
     66 O          -0.7796  -11.3640  -50.3794 O.2       1 UNK        -0.5000 
     67 C          -4.0690  -22.9114  -44.8663 C.2       11 UNK         0.5000 
     68 O          -5.2045  -23.3532  -44.6845 O.2       11 UNK        -0.5000 
     69 N          -3.0841  -23.0306  -43.9647 N.am      12 UNK        -0.5000 
     70 CA         -3.2366  -23.7428  -42.6931 C.3       12 UNK         0.1400 
     71 CB         -2.8469  -22.8316  -41.5159 C.3       12 UNK        -0.1800 
     72 C          -2.4231  -25.0454  -42.6917 C.2       12 UNK         0.5000 
     73 O          -2.9804  -26.0977  -42.3786 O.2       12 UNK        -0.5000 
     74 N          -1.1301  -24.9628  -43.0368 N.am      13 UNK        -0.5000 
     75 CA         -0.2032  -26.0953  -42.9990 C.3       13 UNK         0.1400 
     76 CB          1.2468  -25.5944  -42.9299 C.3       13 UNK        -0.1800 
     77 C          -0.4173  -27.0585  -44.1782 C.2       13 UNK         0.5000 
     78 O          -0.7175  -28.2313  -43.9507 O.2       13 UNK        -0.5000 
     79 N          -0.2819  -26.5533  -45.4140 N.am      14 UNK        -0.5000 
     80 CA         -0.5246  -27.3310  -46.6347 C.3       14 UNK         0.1400 
     81 CB          0.2228  -26.6904  -47.8146 C.3       14 UNK        -0.1800 
     82 C          -2.0241  -27.4972  -46.9535 C.2       14 UNK         0.5000 
     83 O          -2.3787  -28.3986  -47.7143 O.2       14 UNK        -0.5000 
     84 N          -2.8668  -26.6379  -46.3596 N.am      15 UNK        -0.5000 
     85 CA         -4.3276  -26.5854  -46.4845 C.3       15 UNK         0.1400 
     86 CB         -4.9747  -27.8355  -45.8533 C.3       15 UNK        -0.1800 
     87 C          -4.8062  -26.3112  -47.9271 C.2       15 UNK         0.5000 
     88 O          -5.8225  -26.8579  -48.3614 O.2       15 UNK        -0.5000 
     89 N          -4.0564  -25.4650  -48.6427 N.am      16 UNK        -0.5000 
     90 CA         -4.3644  -24.9843  -49.9867 C.3       16 UNK         0.1400 
     91 CB         -3.0364  -24.6167  -50.6761 C.3       16 UNK        -0.1800 
     92 C          -5.3476  -23.7935  -49.9506 C.2       16 UNK         0.5000 
     93 O          -5.9361  -23.4938  -48.9088 O.2       16 UNK        -0.5000 
     94 N          -5.5012  -23.1299  -51.0996 N.am      17 UNK        -0.5000 
     95 CA         -6.2184  -21.8708  -51.2657 C.3       17 UNK         0.1400 
     96 CB         -7.5052  -22.1217  -52.0668 C.3       17 UNK        -0.1800 
     97 C          -5.2935  -20.9094  -52.0212 C.2       17 UNK         0.5000 
     98 O          -4.4770  -21.3672  -52.8268 O.2       17 UNK        -0.5000 
     99 N          -5.4528  -19.6011  -51.7786 N.am      18 UNK        -0.5000 
    100 CA        -4.6160  -18.5256  -52.3257 C.3       18 UNK         0.1400 
    101 CB        -5.1439  -17.1672  -51.8402 C.3       18 UNK        -0.1800 
    102 C         -4.5043  -18.5303  -53.8594 C.2       18 UNK         0.5000 
    103 O         -3.4161  -18.3086  -54.3883 O.2       18 UNK        -0.5000 
    104 N         -5.6143  -18.8438  -54.5413 N.am      19 UNK        -0.5000 
    105 CA        -5.7088  -18.9415  -56.0000 C.3       19 UNK         0.1400 
    106 CB        -7.1728  -19.2031  -56.3857 C.3       19 UNK        -0.1800 
    107 C         -4.7891  -20.0113  -56.6244 C.2       19 UNK         0.5000 
    108 O         -4.3911  -19.8588  -57.7799 O.2       19 UNK        -0.5000 
    109 N         -4.4641  -21.0583  -55.8552 N.am      20 UNK        -0.5000 
    110 CA        -3.5257  -22.1087  -56.2413 C.3       20 UNK         0.1400 
    111 CB        -4.0777  -23.4662  -55.7763 C.3       20 UNK        -0.1800 
    112 C         -2.1331  -21.8626  -55.6372 C.2       20 UNK         0.5000 
    113 O         -1.1295  -22.0924  -56.3130 O.2       20 UNK        -0.5000 
    114 N         -2.0957  -21.4318  -54.3695 N.am      21 UNK        -0.5000 
    115 CA        -0.8801  -21.3267  -53.5674 C.3       21 UNK         0.1400 
    116 CB        -1.2674  -21.2796  -52.0847 C.3       21 UNK        -0.1800 
    117 C          0.0182  -20.1281  -53.9126 C.2       21 UNK         0.5000 
    118 O          1.2375  -20.2482  -53.7809 O.2       21 UNK        -0.5000 
    119 N         -0.5736  -18.9964  -54.3117 N.am      22 UNK        -0.5000 
    120 CA         0.1561  -17.7353  -54.5263 C.3       22 UNK         0.1400 
    121 C         -0.4290  -16.8085  -55.6283 C.2       22 UNK         0.5000 
    122 N         -1.6784  -16.9585  -56.0447 N.am      22 UNK        -0.7600 
    123 O          0.2818  -15.9490  -56.1432 O.2       22 UNK        -0.5000 
    124 C124        0.4331  -16.9804  -53.1967 C.3       23 UNK        -0.0398 
    125 S125       -1.0751  -16.5729  -52.2446 S.3       23 UNK        -0.2404 
    126 C126       -0.7483  -17.3940  -50.6515 C.3       23 UNK        -0.0205 
    127 H127       -1.8965   -6.8477  -47.0990 H         1 UNK         0.0600 
    128 H128       -2.0982   -5.8944  -48.5716 H         1 UNK         0.0600 
    129 H129       -0.4881   -6.4290  -48.0779 H         1 UNK         0.0600 
    130 H130       -2.5101   -8.9595  -47.3666 H         1 UNK         0.3000 
    131 H131       -2.9350  -10.2147  -49.9036 H         1 UNK         0.0600 
    132 H132       -4.3196  -10.7025  -47.9142 H         1 UNK         0.0800 
    133 H133       -2.9583  -11.3642  -47.0631 H         1 UNK         0.0800 
    134 H134       -1.8712  -13.5903  -47.4993 H         1 UNK         0.0800 
    135 H135       -3.3615  -13.9427  -46.6596 H         1 UNK         0.0800 
    136 H136       -1.1107  -15.0206  -49.4029 H         1 UNK         0.1150 
    137 H137       -2.7682  -18.9504  -49.6751 H         1 UNK         0.1150 
    138 H138       -4.5821  -16.0243  -47.1095 H         1 UNK         0.1150 
    139 H139       -5.2427  -18.3592  -46.9141 H         1 UNK         0.0800 
    140 H140       -5.7747  -18.3420  -48.5727 H         1 UNK         0.0800 
    141 H141       -5.6288  -21.0604  -46.1088 H         1 UNK         0.0800 
    142 H142       -4.1946  -20.1353  -45.7131 H         1 UNK         0.0800 
    143 H143       -4.1511  -22.9123  -46.9622 H         1 UNK         0.0600 
    144 H144       -1.9932  -21.0732  -46.1759 H         1 UNK         0.3000 
    145 H145        0.1090  -22.8825  -48.5073 H         1 UNK         0.0600 
    146 H146       -0.9216  -20.0532  -47.9315 H         1 UNK         0.0600 
    147 H147        0.2402  -20.5360  -49.1598 H         1 UNK         0.0600 
    148 H148       -1.4470  -21.0263  -49.2933 H         1 UNK         0.0600 
    149 H149        0.8682  -20.8864  -46.6099 H         1 UNK         0.3000 
    150 H150        2.4004  -23.0634  -44.2289 H         1 UNK         0.0600 
    151 H151        4.2418  -21.5068  -44.6775 H         1 UNK         0.0600 
    152 H152        3.4500  -20.9172  -46.1380 H         1 UNK         0.0600 
    153 H153        4.0401  -22.5724  -46.0579 H         1 UNK         0.0600 
    154 H154        2.0801  -20.2938  -44.1089 H         1 UNK         0.3000 
    155 H155       -1.2318  -20.2197  -42.6416 H         1 UNK         0.0600 
    156 H156        0.4778  -20.6548  -40.8681 H         1 UNK         0.0600 
    157 H157        1.5872  -19.5377  -41.6554 H         1 UNK         0.0600 
    158 H158        0.0713  -18.9491  -40.9762 H         1 UNK         0.0600 
    159 H159        0.5133  -18.0981  -43.3751 H         1 UNK         0.3000 
    160 H160       -0.8179  -17.5745  -46.6813 H         1 UNK         0.0600 
    161 H161       -0.9751  -15.2980  -45.6749 H         1 UNK         0.0600 
    162 H162       -0.8648  -15.9858  -44.0575 H         1 UNK         0.0600 
    163 H163       -2.2571  -16.3413  -45.0747 H         1 UNK         0.0600 
    164 H164        1.3016  -16.2717  -45.3228 H         1 UNK         0.3000 
    165 H165        3.9715  -18.4256  -46.3419 H         1 UNK         0.0600 
    166 H166        4.7843  -16.2039  -47.1080 H         1 UNK         0.0600 
    167 H167        3.5507  -16.8250  -48.1937 H         1 UNK         0.0600 
    168 H168        3.1454  -15.5571  -47.0472 H         1 UNK         0.0600 
    169 H169        3.7580  -16.0703  -44.6805 H         1 UNK         0.3000 
    170 H170        3.5949  -17.8220  -41.5705 H         1 UNK         0.0600 
    171 H171        5.8990  -16.2876  -42.8920 H         1 UNK         0.0600 
    172 H172        5.6814  -16.5499  -41.1612 H         1 UNK         0.0600 
    173 H173        6.0067  -17.9112  -42.2221 H         1 UNK         0.0600 
    174 H174        3.8608  -15.0511  -42.2134 H         1 UNK         0.3000 
    175 H175        0.4092  -14.2942  -42.5634 H         1 UNK         0.0600 
    176 H176        0.9191  -12.7461  -40.7001 H         1 UNK         0.0600 
    177 H177        2.3699  -13.6628  -40.2913 H         1 UNK         0.0600 
    178 H178        0.7788  -14.3870  -40.0907 H         1 UNK         0.0600 
    179 H179        2.6259  -12.5705  -42.5429 H         1 UNK         0.3000 
    180 H180        3.1762  -11.5101  -44.4853 H         1 UNK         0.0600 
    181 H181        4.8072  -13.8353  -45.6653 H         1 UNK         0.0600 
    182 H182        5.1066  -13.0638  -44.1125 H         1 UNK         0.0600 
    183 H183        5.3208  -12.1501  -45.5964 H         1 UNK         0.0600 
    184 H184        3.2528  -12.6697  -47.1418 H         1 UNK         0.3000 
    185 H185        1.7136  -11.2272  -48.7751 H         1 UNK         0.0600 
    186 H186        0.4510  -13.9003  -47.8775 H         1 UNK         0.0600 
    187 H187        0.6152  -13.4091  -49.5649 H         1 UNK         0.0600 
    188 H188        2.0373  -13.7014  -48.5990 H         1 UNK         0.0600 
    189 H189       -0.5770  -10.8709  -47.2607 H         1 UNK         0.3000 
    190 H190       -2.1609  -22.6665  -44.1755 H         1 UNK         0.3000 
    191 H191       -4.2796  -24.0235  -42.5331 H         1 UNK         0.0600 
    192 H192       -3.4084  -21.8977  -41.5391 H         1 UNK         0.0600 
    193 H193       -3.0671  -23.3187  -40.5654 H         1 UNK         0.0600 
    194 H194       -1.7868  -22.5841  -41.5088 H         1 UNK         0.0600 
    195 H195       -0.7404  -24.0504  -43.2664 H         1 UNK         0.3000 
    196 H196       -0.3924  -26.6522  -42.0785 H         1 UNK         0.0600 
    197 H197        1.9337  -26.4241  -42.7597 H         1 UNK         0.0600 
    198 H198        1.3841  -24.8835  -42.1150 H         1 UNK         0.0600 
    199 H199        1.5510  -25.1103  -43.8544 H         1 UNK         0.0600 
    200 H200        0.0185  -25.5917  -45.5410 H         1 UNK         0.3000 
    201 H201       -0.1138  -28.3332  -46.4949 H         1 UNK         0.0600 
    202 H202        1.2934  -26.6338  -47.6175 H         1 UNK         0.0600 
    203 H203       -0.1301  -25.6813  -48.0210 H         1 UNK         0.0600 
    204 H204        0.0898  -27.2751  -48.7256 H         1 UNK         0.0600 
    205 H205       -2.4470  -25.9152  -45.7935 H         1 UNK         0.3000 
    206 H206       -4.6496  -25.7261  -45.8969 H         1 UNK         0.0600 
    207 H207       -4.6271  -27.9833  -44.8306 H         1 UNK         0.0600 
    208 H208       -6.0600  -27.7366  -45.8148 H         1 UNK         0.0600 
    209 H209       -4.7485  -28.7394  -46.4194 H         1 UNK         0.0600 
    210 H210       -3.2524  -25.0304  -48.1941 H         1 UNK         0.3000 
    211 H211       -4.8361  -25.7888  -50.5545 H         1 UNK         0.0600 
    212 H212       -2.5709  -23.7505  -50.2052 H         1 UNK         0.0600 
    213 H213       -3.1788  -24.3854  -51.7322 H         1 UNK         0.0600 
    214 H214       -2.3256  -25.4419  -50.6253 H         1 UNK         0.0600 
    215 H215       -4.9335  -23.3859  -51.8962 H         1 UNK         0.3000 
    216 H216       -6.4682  -21.4320  -50.2976 H         1 UNK         0.0600 
    217 H217       -8.0656  -21.1968  -52.2086 H         1 UNK         0.0600 
    218 H218       -8.1595  -22.8219  -51.5472 H         1 UNK         0.0600 
    219 H219       -7.2920  -22.5333  -53.0544 H         1 UNK         0.0600 
    220 H220       -6.1605  -19.3162  -51.1177 H         1 UNK         0.3000 
    221 H221       -3.6087  -18.6624  -51.9304 H         1 UNK         0.0600 
    222 H222       -6.1485  -16.9666  -52.2141 H         1 UNK         0.0600 
    223 H223       -5.1769  -17.1156  -50.7532 H         1 UNK         0.0600 
    224 H224       -4.4970  -16.3565  -52.1790 H         1 UNK         0.0600 
    225 H225       -6.4571  -19.0323  -54.0191 H         1 UNK         0.3000 
    226 H226       -5.4119  -17.9760  -56.4147 H         1 UNK         0.0600 
    227 H227       -7.8241  -18.4046  -56.0299 H         1 UNK         0.0600 
    228 H228       -7.2885  -19.2561  -57.4691 H         1 UNK         0.0600 
    229 H229       -7.5354  -20.1443  -55.9702 H         1 UNK         0.0600 
    230 H230       -4.7999  -21.0825  -54.9003 H         1 UNK         0.3000 
    231 H231       -3.4194  -22.1450  -57.3276 H         1 UNK         0.0600 
    232 H232       -4.2112  -23.5011  -54.6943 H         1 UNK         0.0600 
    233 H233       -3.4018  -24.2771  -56.0506 H         1 UNK         0.0600 
    234 H234       -5.0423  -23.6766  -56.2385 H         1 UNK         0.0600 
    235 H235       -2.9716  -21.2988  -53.8710 H         1 UNK         0.3000 
    236 H236       -0.2919  -22.2328  -53.7282 H         1 UNK         0.0600 
    237 H237       -1.8428  -22.1589  -51.8005 H         1 UNK         0.0600 
    238 H238       -0.3764  -21.2544  -51.4574 H         1 UNK         0.0600 
    239 H239       -1.8665  -20.3992  -51.8516 H         1 UNK         0.0600 
    240 H240       -1.5847  -18.9504  -54.3837 H         1 UNK         0.3000 
    241 H241        1.1329  -18.0036  -54.9344 H         1 UNK         0.0600 
    242 H242       -2.0273  -16.3565  -56.7726 H         1 UNK         0.3800 
    243 H243       -2.3251  -17.5617  -55.5403 H         1 UNK         0.3800 
    244 H244        1.0963  -17.5826  -52.5748 H         1 UNK         0.0800 
    245 H245        0.9796  -16.0554  -53.3874 H         1 UNK         0.0800 
    246 H246        0.2281  -17.0870  -50.2737 H         1 UNK         0.0800 
    247 H247       -0.7009  -18.4733  -50.8012 H         1 UNK         0.0800 
@<TRIPOS>BOND
     1    1    2 1    
     2    1  127 1    
     3    1  128 1    
     4    1  129 1    
     5    2    3 2    
     6    2    4 am   BACKBONE|DICT|INTERRES
     7    4    5 1    
     8    4  130 1    
     9    5    6 1    
    10    5   65 1    
    11    5  131 1    
    12    6    7 1    
    13    6  132 1    
    14    6  133 1    
    15    7    8 1    
    16    8    9 1    
    17    8  134 1    
    18    8  135 1    
    19    9   10 ar   
    20    9   14 ar   
    21   10   11 ar   
    22   10  136 1    
    23   11   12 ar   
    24   11  126 1    
    25   12   13 ar   
    26   12  137 1    
    27   13   14 ar   
    28   13   15 1    
    29   14  138 1    
    30   15   16 1    
    31   15  139 1    
    32   15  140 1    
    33   16   17 1    
    34   17   18 1    
    35   17  141 1    
    36   17  142 1    
    37   18   19 1    
    38   18   67 1    
    39   18  143 1    
    40   19   20 am   BACKBONE|DICT|INTERRES
    41   19  144 1    
    42   20   21 2    
    43   20   22 1    
    44   22   23 1    
    45   22   24 1    
    46   22  145 1    
    47   23  146 1    
    48   23  147 1    
    49   23  148 1    
    50   24   25 am   BACKBONE|DICT|INTERRES
    51   24  149 1    
    52   25   26 2    
    53   25   27 1    
    54   27   28 1    
    55   27   29 1    
    56   27  150 1    
    57   28  151 1    
    58   28  152 1    
    59   28  153 1    
    60   29   30 am   BACKBONE|DICT|INTERRES
    61   29  154 1    
    62   30   31 2    
    63   30   32 1    
    64   32   33 1    
    65   32   34 1    
    66   32  155 1    
    67   33  156 1    
    68   33  157 1    
    69   33  158 1    
    70   34   35 am   BACKBONE|DICT|INTERRES
    71   34  159 1    
    72   35   36 2    
    73   35   37 1    
    74   37   38 1    
    75   37   39 1    
    76   37  160 1    
    77   38  161 1    
    78   38  162 1    
    79   38  163 1    
    80   39   40 am   BACKBONE|DICT|INTERRES
    81   39  164 1    
    82   40   41 2    
    83   40   42 1    
    84   42   43 1    
    85   42   44 1    
    86   42  165 1    
    87   43  166 1    
    88   43  167 1    
    89   43  168 1    
    90   44   45 am   BACKBONE|DICT|INTERRES
    91   44  169 1    
    92   45   46 2    
    93   45   47 1    
    94   47   48 1    
    95   47   49 1    
    96   47  170 1    
    97   48  171 1    
    98   48  172 1    
    99   48  173 1    
   100   49   50 am   BACKBONE|DICT|INTERRES
   101   49  174 1    
   102   50   51 2    
   103   50   52 1    
   104   52   53 1    
   105   52   54 1    
   106   52  175 1    
   107   53  176 1    
   108   53  177 1    
   109   53  178 1    
   110   54   55 am   BACKBONE|DICT|INTERRES
   111   54  179 1    
   112   55   56 2    
   113   55   57 1    
   114   57   58 1    
   115   57   59 1    
   116   57  180 1    
   117   58  181 1    
   118   58  182 1    
   119   58  183 1    
   120   59   60 am   BACKBONE|DICT|INTERRES
   121   59  184 1    
   122   60   61 2    
   123   60   62 1    
   124   62   63 1    
   125   62   64 1    
   126   62  185 1    
   127   63  186 1    
   128   63  187 1    
   129   63  188 1    
   130   64   65 am   BACKBONE|DICT|INTERRES
   131   64  189 1    
   132   65   66 2    
   133   67   68 2    
   134   67   69 am   BACKBONE|DICT|INTERRES
   135   69   70 1    
   136   69  190 1    
   137   70   71 1    
   138   70   72 1    
   139   70  191 1    
   140   71  192 1    
   141   71  193 1    
   142   71  194 1    
   143   72   73 2    
   144   72   74 am   BACKBONE|DICT|INTERRES
   145   74   75 1    
   146   74  195 1    
   147   75   76 1    
   148   75   77 1    
   149   75  196 1    
   150   76  197 1    
   151   76  198 1    
   152   76  199 1    
   153   77   78 2    
   154   77   79 am   BACKBONE|DICT|INTERRES
   155   79   80 1    
   156   79  200 1    
   157   80   81 1    
   158   80   82 1    
   159   80  201 1    
   160   81  202 1    
   161   81  203 1    
   162   81  204 1    
   163   82   83 2    
   164   82   84 am   BACKBONE|DICT|INTERRES
   165   84   85 1    
   166   84  205 1    
   167   85   86 1    
   168   85   87 1    
   169   85  206 1    
   170   86  207 1    
   171   86  208 1    
   172   86  209 1    
   173   87   88 2    
   174   87   89 am   BACKBONE|DICT|INTERRES
   175   89   90 1    
   176   89  210 1    
   177   90   91 1    
   178   90   92 1    
   179   90  211 1    
   180   91  212 1    
   181   91  213 1    
   182   91  214 1    
   183   92   93 2    
   184   92   94 am   BACKBONE|DICT|INTERRES
   185   94   95 1    
   186   94  215 1    
   187   95   96 1    
   188   95   97 1    
   189   95  216 1    
   190   96  217 1    
   191   96  218 1    
   192   96  219 1    
   193   97   98 2    
   194   97   99 am   BACKBONE|DICT|INTERRES
   195   99  100 1    
   196   99  220 1    
   197  100  101 1    
   198  100  102 1    
   199  100  221 1    
   200  101  222 1    
   201  101  223 1    
   202  101  224 1    
   203  102  103 2    
   204  102  104 am   BACKBONE|DICT|INTERRES
   205  104  105 1    
   206  104  225 1    
   207  105  106 1    
   208  105  107 1    
   209  105  226 1    
   210  106  227 1    
   211  106  228 1    
   212  106  229 1    
   213  107  108 2    
   214  107  109 am   BACKBONE|DICT|INTERRES
   215  109  110 1    
   216  109  230 1    
   217  110  111 1    
   218  110  112 1    
   219  110  231 1    
   220  111  232 1    
   221  111  233 1    
   222  111  234 1    
   223  112  113 2    
   224  112  114 am   BACKBONE|DICT|INTERRES
   225  114  115 1    
   226  114  235 1    
   227  115  116 1    
   228  115  117 1    
   229  115  236 1    
   230  116  237 1    
   231  116  238 1    
   232  116  239 1    
   233  117  118 2    
   234  117  119 am   BACKBONE|DICT|INTERRES
   235  119  120 1    
   236  119  240 1    
   237  120  121 1    
   238  120  124 1    
   239  120  241 1    
   240  121  122 am   BACKBONE|DICT|INTERRES
   241  121  123 2    
   242  122  242 1    
   243  122  243 1    
   244  124  125 1    
   245  124  244 1    
   246  124  245 1    
   247  125  126 1    
   248  126  246 1    
   249  126  247 1    
@<TRIPOS>SUBSTRUCTURE
     1 UNK         1 GROUP             0       ****    0 ROOT    
