@<TRIPOS>MOLECULE
3R540
247   249    1
SMALL
USER_CHARGES


@<TRIPOS>ATOM
      1 CA          3.7619  -15.9304  -44.5807 C.3       0 UNK        -0.1800 
      2 C           3.2841  -14.4984  -44.7586 C.2       0 UNK         0.5000 
      3 O           3.2474  -13.7398  -43.7889 O.2       0 UNK        -0.5000 
      4 N           2.9299  -14.1402  -45.9998 N.am      1 UNK        -0.5000 
      5 CA          2.2808  -12.8870  -46.4234 C.3       1 UNK         0.1400 
      6 C6          1.7928  -12.9661  -47.8931 C.3       23 UNK        -0.0398 
      7 S7          0.8106  -14.4684  -48.2293 S.3       23 UNK        -0.2404 
      8 C8         -0.6385  -13.8089  -49.1043 C.3       23 UNK        -0.0205 
      9 C9         -1.5419  -14.9377  -49.5800 C.ar      23 UNK        -0.0193 
     10 C10        -1.2085  -15.6665  -50.7246 C.ar      23 UNK        -0.1150 
     11 C11        -2.0364  -16.6975  -51.1780 C.ar      23 UNK        -0.0193 
     12 C12        -3.1947  -17.0175  -50.4626 C.ar      23 UNK        -0.1150 
     13 C13        -3.5468  -16.2893  -49.3231 C.ar      23 UNK        -0.0193 
     14 C14        -2.7169  -15.2494  -48.8906 C.ar      23 UNK        -0.1150 
     15 C15        -4.8479  -16.5821  -48.5881 C.3       23 UNK        -0.0205 
     16 S16        -4.5594  -17.0571  -46.8558 S.3       23 UNK        -0.2404 
     17 C17        -4.8432  -18.8590  -46.8718 C.3       23 UNK        -0.0398 
     18 CA         -3.8044  -19.7003  -47.6594 C.3       11 UNK         0.1400 
     19 N          -2.4169  -19.2916  -47.4243 N.am      11 UNK        -0.5000 
     20 C          -1.3531  -19.7871  -48.0736 C.2       10 UNK         0.5000 
     21 O          -1.4229  -20.6187  -48.9788 O.2       10 UNK        -0.5000 
     22 CA          0.0258  -19.3181  -47.5873 C.3       10 UNK         0.1400 
     23 CB          0.4027  -17.9832  -48.2396 C.3       10 UNK        -0.1800 
     24 N           0.0657  -19.1934  -46.1298 N.am      10 UNK        -0.5000 
     25 C           0.1012  -20.2427  -45.2951 C.2       9 UNK         0.5000 
     26 O           0.1392  -21.4123  -45.6759 O.2       9 UNK        -0.5000 
     27 CA          0.0477  -19.9472  -43.7838 C.3       9 UNK         0.1400 
     28 CB          1.4572  -19.6831  -43.2383 C.3       9 UNK        -0.1800 
     29 N          -0.8221  -18.8219  -43.4412 N.am      9 UNK        -0.5000 
     30 C          -2.1428  -18.7884  -43.6664 C.2       8 UNK         0.5000 
     31 O          -2.7773  -19.7272  -44.1465 O.2       8 UNK        -0.5000 
     32 CA         -2.8758  -17.4740  -43.3425 C.3       8 UNK         0.1400 
     33 CB         -3.4066  -17.5022  -41.9017 C.3       8 UNK        -0.1800 
     34 N          -2.0805  -16.2569  -43.5317 N.am      8 UNK        -0.5000 
     35 C          -1.4134  -15.9004  -44.6418 C.2       7 UNK         0.5000 
     36 O          -1.3038  -16.6154  -45.6364 O.2       7 UNK        -0.5000 
     37 CA         -0.7262  -14.5274  -44.6191 C.3       7 UNK         0.1400 
     38 CB         -1.6812  -13.4712  -45.2114 C.3       7 UNK        -0.1800 
     39 N          -0.3174  -14.2096  -43.2492 N.am      7 UNK        -0.5000 
     40 C           0.1154  -13.0562  -42.7321 C.2       6 UNK         0.5000 
     41 O           0.2837  -12.0168  -43.3690 O.2       6 UNK        -0.5000 
     42 CA          0.4177  -13.0758  -41.2214 C.3       6 UNK         0.1400 
     43 CB         -0.8450  -13.3819  -40.3907 C.3       6 UNK        -0.1800 
     44 N           1.5271  -13.9616  -40.8504 N.am      6 UNK        -0.5000 
     45 C           1.6344  -15.2941  -40.9744 C.2       5 UNK         0.5000 
     46 O           0.7473  -16.0255  -41.4226 O.2       5 UNK        -0.5000 
     47 CA          2.9922  -15.8799  -40.5521 C.3       5 UNK         0.1400 
     48 CB          3.2046  -17.3387  -40.9957 C.3       5 UNK        -0.1800 
     49 N           4.0604  -15.0259  -41.0679 N.am      5 UNK        -0.5000 
     50 C           5.2597  -14.8502  -40.4995 C.2       4 UNK         0.5000 
     51 O           5.6385  -15.4521  -39.4942 O.2       4 UNK        -0.5000 
     52 CA          6.1804  -13.7993  -41.1484 C.3       4 UNK         0.1400 
     53 CB          7.0880  -14.4452  -42.2062 C.3       4 UNK        -0.1800 
     54 N           5.4209  -12.7148  -41.7700 N.am      4 UNK        -0.5000 
     55 C           4.8040  -11.7265  -41.1075 C.2       3 UNK         0.5000 
     56 O           4.8681  -11.5847  -39.8859 O.2       3 UNK        -0.5000 
     57 CA          3.9307  -10.7709  -41.9459 C.3       3 UNK         0.1400 
     58 CB          3.9380   -9.3202  -41.4212 C.3       3 UNK        -0.1800 
     59 N           4.2177  -10.8473  -43.3819 N.am      3 UNK        -0.5000 
     60 C           5.2785  -10.3747  -44.0550 C.2       2 UNK         0.5000 
     61 O           6.1708   -9.7020  -43.5381 O.2       2 UNK        -0.5000 
     62 CA          5.3865  -10.7511  -45.5530 C.3       2 UNK         0.1400 
     63 CB          6.8059  -11.2285  -45.9067 C.3       2 UNK        -0.1800 
     64 N           4.4399  -11.7961  -45.9543 N.am      2 UNK        -0.5000 
     65 C           3.1368  -11.6197  -46.2093 C.2       1 UNK         0.5000 
     66 O           2.5999  -10.5126  -46.2443 O.2       1 UNK        -0.5000 
     67 C          -3.9957  -21.1983  -47.3426 C.2       11 UNK         0.5000 
     68 O          -4.5663  -21.9330  -48.1501 O.2       11 UNK        -0.5000 
     69 N          -3.4729  -21.6212  -46.1816 N.am      12 UNK        -0.5000 
     70 CA         -3.4624  -23.0047  -45.7160 C.3       12 UNK         0.1400 
     71 CB         -2.9258  -23.0637  -44.2782 C.3       12 UNK        -0.1800 
     72 C          -2.6575  -23.9314  -46.6396 C.2       12 UNK         0.5000 
     73 O          -3.1469  -25.0088  -46.9713 O.2       12 UNK        -0.5000 
     74 N          -1.4671  -23.4897  -47.0720 N.am      13 UNK        -0.5000 
     75 CA         -0.6124  -24.2147  -48.0144 C.3       13 UNK         0.1400 
     76 CB          0.7351  -23.4938  -48.1643 C.3       13 UNK        -0.1800 
     77 C          -1.2777  -24.4207  -49.3864 C.2       13 UNK         0.5000 
     78 O          -1.2493  -25.5348  -49.9082 O.2       13 UNK        -0.5000 
     79 N          -1.9030  -23.3619  -49.9214 N.am      14 UNK        -0.5000 
     80 CA         -2.6545  -23.3851  -51.1781 C.3       14 UNK         0.1400 
     81 CB         -3.1030  -21.9583  -51.5268 C.3       14 UNK        -0.1800 
     82 C          -3.8627  -24.3398  -51.1458 C.2       14 UNK         0.5000 
     83 O          -4.1398  -25.0040  -52.1481 O.2       14 UNK        -0.5000 
     84 N          -4.5437  -24.4006  -49.9938 N.am      15 UNK        -0.5000 
     85 CA         -5.6436  -25.3236  -49.7288 C.3       15 UNK         0.1400 
     86 CB         -6.4262  -24.8511  -48.4942 C.3       15 UNK        -0.1800 
     87 C          -5.1559  -26.7730  -49.5548 C.2       15 UNK         0.5000 
     88 O          -5.7178  -27.6747  -50.1754 O.2       15 UNK        -0.5000 
     89 N          -4.1090  -26.9733  -48.7406 N.am      16 UNK        -0.5000 
     90 CA         -3.5153  -28.2787  -48.4323 C.3       16 UNK         0.1400 
     91 CB         -2.4707  -28.1207  -47.3174 C.3       16 UNK        -0.1800 
     92 C          -2.8925  -28.9744  -49.6550 C.2       16 UNK         0.5000 
     93 O          -3.0009  -30.1946  -49.7809 O.2       16 UNK        -0.5000 
     94 N          -2.2863  -28.1849  -50.5513 N.am      17 UNK        -0.5000 
     95 CA         -1.7593  -28.6377  -51.8399 C.3       17 UNK         0.1400 
     96 CB         -0.8137  -27.5579  -52.3909 C.3       17 UNK        -0.1800 
     97 C          -2.8582  -28.9534  -52.8755 C.2       17 UNK         0.5000 
     98 O          -2.5466  -29.5353  -53.9152 O.2       17 UNK        -0.5000 
     99 N          -4.1034  -28.5327  -52.5969 N.am      18 UNK        -0.5000 
    100 CA        -5.2801  -28.5695  -53.4729 C.3       18 UNK         0.1400 
    101 CB        -5.7037  -30.0218  -53.7749 C.3       18 UNK        -0.1800 
    102 C         -5.1019  -27.7122  -54.7444 C.2       18 UNK         0.5000 
    103 O         -5.7122  -27.9976  -55.7763 O.2       18 UNK        -0.5000 
    104 N         -4.2602  -26.6754  -54.6440 N.am      19 UNK        -0.5000 
    105 CA        -3.9481  -25.7450  -55.7228 C.3       19 UNK         0.1400 
    106 CB        -2.5615  -25.1315  -55.4678 C.3       19 UNK        -0.1800 
    107 C         -5.0103  -24.6427  -55.8365 C.2       19 UNK         0.5000 
    108 O         -5.3324  -24.2292  -56.9507 O.2       19 UNK        -0.5000 
    109 N         -5.5165  -24.1844  -54.6785 N.am      20 UNK        -0.5000 
    110 CA        -6.4751  -23.0835  -54.5095 C.3       20 UNK         0.1400 
    111 CB        -7.8650  -23.4849  -55.0444 C.3       20 UNK        -0.1800 
    112 C         -5.9604  -21.7486  -55.0961 C.2       20 UNK         0.5000 
    113 O         -6.7352  -20.9647  -55.6493 O.2       20 UNK        -0.5000 
    114 N         -4.6419  -21.5377  -54.9811 N.am      21 UNK        -0.5000 
    115 CA        -3.9111  -20.3712  -55.4681 C.3       21 UNK         0.1400 
    116 CB        -2.4087  -20.6025  -55.2393 C.3       21 UNK        -0.1800 
    117 C         -4.3589  -19.0597  -54.7985 C.2       21 UNK         0.5000 
    118 O         -4.7954  -19.0690  -53.6450 O.2       21 UNK        -0.5000 
    119 N         -4.2036  -17.9585  -55.5416 N.am      22 UNK        -0.5000 
    120 CA        -4.5226  -16.5755  -55.1417 C.3       22 UNK         0.1400 
    121 C         -6.0463  -16.2487  -55.0635 C.2       22 UNK         0.5000 
    122 N         -6.9447  -17.1381  -55.4694 N.am      22 UNK        -0.7600 
    123 O         -6.4244  -15.1521  -54.6599 O.2       22 UNK        -0.5000 
    124 C124       -3.7646  -16.1003  -53.8694 C.3       23 UNK        -0.0398 
    125 S125       -1.9582  -16.3892  -53.9313 S.3       23 UNK        -0.2404 
    126 C126       -1.6951  -17.4390  -52.4620 C.3       23 UNK        -0.0205 
    127 H127        4.1623  -16.3371  -45.5095 H         1 UNK         0.0600 
    128 H128        2.9285  -16.5566  -44.2647 H         1 UNK         0.0600 
    129 H129        4.5424  -15.9870  -43.8232 H         1 UNK         0.0600 
    130 H130        3.0013  -14.8305  -46.7344 H         1 UNK         0.3000 
    131 H131        1.4031  -12.7551  -45.7900 H         1 UNK         0.0600 
    132 H132        1.1968  -12.0856  -48.1402 H         1 UNK         0.0800 
    133 H133        2.6411  -12.9639  -48.5799 H         1 UNK         0.0800 
    134 H134       -0.3098  -13.2189  -49.9612 H         1 UNK         0.0800 
    135 H135       -1.1833  -13.1301  -48.4468 H         1 UNK         0.0800 
    136 H136       -0.3099  -15.4207  -51.2730 H         1 UNK         0.1150 
    137 H137       -3.8383  -17.8121  -50.8141 H         1 UNK         0.1150 
    138 H138       -2.9947  -14.6831  -48.0148 H         1 UNK         0.1150 
    139 H139       -5.4634  -15.6817  -48.6027 H         1 UNK         0.0800 
    140 H140       -5.4260  -17.3533  -49.0991 H         1 UNK         0.0800 
    141 H141       -5.8459  -19.0466  -47.2593 H         1 UNK         0.0800 
    142 H142       -4.8709  -19.1664  -45.8249 H         1 UNK         0.0800 
    143 H143       -3.9986  -19.5623  -48.7249 H         1 UNK         0.0600 
    144 H144       -2.2680  -18.5844  -46.7162 H         1 UNK         0.3000 
    145 H145        0.7651  -20.0617  -47.8917 H         1 UNK         0.0600 
    146 H146        1.3741  -17.6302  -47.8937 H         1 UNK         0.0600 
    147 H147        0.4557  -18.0803  -49.3246 H         1 UNK         0.0600 
    148 H148       -0.3350  -17.2111  -48.0215 H         1 UNK         0.0600 
    149 H149       -0.0742  -18.2624  -45.7536 H         1 UNK         0.3000 
    150 H150       -0.3481  -20.8361  -43.2884 H         1 UNK         0.0600 
    151 H151        2.1278  -20.5123  -43.4676 H         1 UNK         0.0600 
    152 H152        1.4423  -19.5692  -42.1548 H         1 UNK         0.0600 
    153 H153        1.8909  -18.7805  -43.6693 H         1 UNK         0.0600 
    154 H154       -0.3824  -18.0074  -43.0363 H         1 UNK         0.3000 
    155 H155       -3.7309  -17.4081  -44.0164 H         1 UNK         0.0600 
    156 H156       -2.5932  -17.5152  -41.1749 H         1 UNK         0.0600 
    157 H157       -4.0184  -18.3884  -41.7269 H         1 UNK         0.0600 
    158 H158       -4.0305  -16.6330  -41.6930 H         1 UNK         0.0600 
    159 H159       -2.1255  -15.5866  -42.7791 H         1 UNK         0.3000 
    160 H160        0.1669  -14.6047  -45.2372 H         1 UNK         0.0600 
    161 H161       -1.1663  -12.5359  -45.4275 H         1 UNK         0.0600 
    162 H162       -2.5112  -13.2553  -44.5382 H         1 UNK         0.0600 
    163 H163       -2.1055  -13.8142  -46.1535 H         1 UNK         0.0600 
    164 H164       -0.2501  -15.0128  -42.6276 H         1 UNK         0.3000 
    165 H165        0.7385  -12.0675  -40.9552 H         1 UNK         0.0600 
    166 H166       -0.6463  -13.2734  -39.3245 H         1 UNK         0.0600 
    167 H167       -1.6517  -12.6920  -40.6414 H         1 UNK         0.0600 
    168 H168       -1.2179  -14.3927  -40.5564 H         1 UNK         0.0600 
    169 H169        2.3309  -13.4854  -40.4676 H         1 UNK         0.3000 
    170 H170        3.0082  -15.8508  -39.4607 H         1 UNK         0.0600 
    171 H171        2.4260  -17.9856  -40.5907 H         1 UNK         0.0600 
    172 H172        3.1880  -17.4355  -42.0797 H         1 UNK         0.0600 
    173 H173        4.1601  -17.7251  -40.6413 H         1 UNK         0.0600 
    174 H174        3.8302  -14.4918  -41.8999 H         1 UNK         0.3000 
    175 H175        6.8138  -13.3790  -40.3643 H         1 UNK         0.0600 
    176 H176        7.6733  -15.2582  -41.7747 H         1 UNK         0.0600 
    177 H177        7.7921  -13.7201  -42.6149 H         1 UNK         0.0600 
    178 H178        6.5141  -14.8576  -43.0360 H         1 UNK         0.0600 
    179 H179        5.2731  -12.7736  -42.7670 H         1 UNK         0.3000 
    180 H180        2.9106  -11.1418  -41.8416 H         1 UNK         0.0600 
    181 H181        4.9456   -8.9069  -41.3752 H         1 UNK         0.0600 
    182 H182        3.5235   -9.2698  -40.4137 H         1 UNK         0.0600 
    183 H183        3.3336   -8.6687  -42.0522 H         1 UNK         0.0600 
    184 H184        3.5693  -11.4237  -43.9029 H         1 UNK         0.3000 
    185 H185        5.1783   -9.8466  -46.1281 H         1 UNK         0.0600 
    186 H186        7.5458  -10.4533  -45.7032 H         1 UNK         0.0600 
    187 H187        7.0880  -12.1112  -45.3313 H         1 UNK         0.0600 
    188 H188        6.8863  -11.4773  -46.9650 H         1 UNK         0.0600 
    189 H189        4.7866  -12.7443  -45.9410 H         1 UNK         0.3000 
    190 H190       -3.0594  -20.9344  -45.5551 H         1 UNK         0.3000 
    191 H191       -4.4952  -23.3588  -45.7081 H         1 UNK         0.0600 
    192 H192       -1.9033  -22.6907  -44.2136 H         1 UNK         0.0600 
    193 H193       -2.9273  -24.0876  -43.9023 H         1 UNK         0.0600 
    194 H194       -3.5412  -22.4682  -43.6036 H         1 UNK         0.0600 
    195 H195       -1.1068  -22.6101  -46.7165 H         1 UNK         0.3000 
    196 H196       -0.4193  -25.2023  -47.5909 H         1 UNK         0.0600 
    197 H197        1.3873  -24.0250  -48.8587 H         1 UNK         0.0600 
    198 H198        1.2581  -23.4342  -47.2098 H         1 UNK         0.0600 
    199 H199        0.6100  -22.4789  -48.5419 H         1 UNK         0.0600 
    200 H200       -1.8517  -22.4673  -49.4411 H         1 UNK         0.3000 
    201 H201       -1.9815  -23.7354  -51.9632 H         1 UNK         0.0600 
    202 H202       -2.2464  -21.3006  -51.6756 H         1 UNK         0.0600 
    203 H203       -3.7192  -21.5253  -50.7384 H         1 UNK         0.0600 
    204 H204       -3.6910  -21.9421  -52.4428 H         1 UNK         0.0600 
    205 H205       -4.2758  -23.7801  -49.2383 H         1 UNK         0.3000 
    206 H206       -6.3218  -25.3002  -50.5847 H         1 UNK         0.0600 
    207 H207       -6.8303  -23.8499  -48.6454 H         1 UNK         0.0600 
    208 H208       -7.2667  -25.5144  -48.2869 H         1 UNK         0.0600 
    209 H209       -5.8001  -24.8245  -47.6021 H         1 UNK         0.0600 
    210 H210       -3.7195  -26.1777  -48.2380 H         1 UNK         0.3000 
    211 H211       -4.3137  -28.9237  -48.0596 H         1 UNK         0.0600 
    212 H212       -1.6676  -27.4452  -47.6141 H         1 UNK         0.0600 
    213 H213       -2.0180  -29.0803  -47.0643 H         1 UNK         0.0600 
    214 H214       -2.9224  -27.7254  -46.4075 H         1 UNK         0.0600 
    215 H215       -2.1723  -27.1974  -50.3373 H         1 UNK         0.3000 
    216 H216       -1.1835  -29.5515  -51.6799 H         1 UNK         0.0600 
    217 H217       -0.3722  -27.8664  -53.3394 H         1 UNK         0.0600 
    218 H218        0.0069  -27.3630  -51.7002 H         1 UNK         0.0600 
    219 H219       -1.3373  -26.6163  -52.5628 H         1 UNK         0.0600 
    220 H220       -4.2622  -28.0937  -51.6980 H         1 UNK         0.3000 
    221 H221       -6.0894  -28.1027  -52.9101 H         1 UNK         0.0600 
    222 H222       -6.6644  -30.0491  -54.2902 H         1 UNK         0.0600 
    223 H223       -5.8133  -30.5983  -52.8563 H         1 UNK         0.0600 
    224 H224       -4.9796  -30.5338  -54.4090 H         1 UNK         0.0600 
    225 H225       -3.8584  -26.4715  -53.7374 H         1 UNK         0.3000 
    226 H226       -3.9142  -26.2876  -56.6700 H         1 UNK         0.0600 
    227 H227       -1.7915  -25.9026  -55.4347 H         1 UNK         0.0600 
    228 H228       -2.2905  -24.4350  -56.2623 H         1 UNK         0.0600 
    229 H229       -2.5262  -24.5846  -54.5248 H         1 UNK         0.0600 
    230 H230       -5.1616  -24.5925  -53.8188 H         1 UNK         0.3000 
    231 H231       -6.5695  -22.9239  -53.4343 H         1 UNK         0.0600 
    232 H232       -8.2012  -24.4225  -54.6018 H         1 UNK         0.0600 
    233 H233       -7.8625  -23.6074  -56.1279 H         1 UNK         0.0600 
    234 H234       -8.6109  -22.7269  -54.8028 H         1 UNK         0.0600 
    235 H235       -4.0941  -22.2428  -54.5146 H         1 UNK         0.3000 
    236 H236       -4.0943  -20.2947  -56.5419 H         1 UNK         0.0600 
    237 H237       -2.0657  -21.5078  -55.7410 H         1 UNK         0.0600 
    238 H238       -1.8203  -19.7721  -55.6321 H         1 UNK         0.0600 
    239 H239       -2.1721  -20.6946  -54.1789 H         1 UNK         0.0600 
    240 H240       -3.8341  -18.0555  -56.4765 H         1 UNK         0.3000 
    241 H241       -4.1603  -15.9614  -55.9667 H         1 UNK         0.0600 
    242 H242       -7.9250  -16.9080  -55.4251 H         1 UNK         0.3800 
    243 H243       -6.6588  -18.0513  -55.7875 H         1 UNK         0.3800 
    244 H244       -4.1902  -16.5796  -52.9889 H         1 UNK         0.0800 
    245 H245       -3.9123  -15.0296  -53.7205 H         1 UNK         0.0800 
    246 H246       -0.6509  -17.7527  -52.4301 H         1 UNK         0.0800 
    247 H247       -2.2865  -18.3513  -52.5540 H         1 UNK         0.0800 
@<TRIPOS>BOND
     1    1    2 1    
     2    1  127 1    
     3    1  128 1    
     4    1  129 1    
     5    2    3 2    
     6    2    4 am   BACKBONE|DICT|INTERRES
     7    4    5 1    
     8    4  130 1    
     9    5    6 1    
    10    5   65 1    
    11    5  131 1    
    12    6    7 1    
    13    6  132 1    
    14    6  133 1    
    15    7    8 1    
    16    8    9 1    
    17    8  134 1    
    18    8  135 1    
    19    9   10 ar   
    20    9   14 ar   
    21   10   11 ar   
    22   10  136 1    
    23   11   12 ar   
    24   11  126 1    
    25   12   13 ar   
    26   12  137 1    
    27   13   14 ar   
    28   13   15 1    
    29   14  138 1    
    30   15   16 1    
    31   15  139 1    
    32   15  140 1    
    33   16   17 1    
    34   17   18 1    
    35   17  141 1    
    36   17  142 1    
    37   18   19 1    
    38   18   67 1    
    39   18  143 1    
    40   19   20 am   BACKBONE|DICT|INTERRES
    41   19  144 1    
    42   20   21 2    
    43   20   22 1    
    44   22   23 1    
    45   22   24 1    
    46   22  145 1    
    47   23  146 1    
    48   23  147 1    
    49   23  148 1    
    50   24   25 am   BACKBONE|DICT|INTERRES
    51   24  149 1    
    52   25   26 2    
    53   25   27 1    
    54   27   28 1    
    55   27   29 1    
    56   27  150 1    
    57   28  151 1    
    58   28  152 1    
    59   28  153 1    
    60   29   30 am   BACKBONE|DICT|INTERRES
    61   29  154 1    
    62   30   31 2    
    63   30   32 1    
    64   32   33 1    
    65   32   34 1    
    66   32  155 1    
    67   33  156 1    
    68   33  157 1    
    69   33  158 1    
    70   34   35 am   BACKBONE|DICT|INTERRES
    71   34  159 1    
    72   35   36 2    
    73   35   37 1    
    74   37   38 1    
    75   37   39 1    
    76   37  160 1    
    77   38  161 1    
    78   38  162 1    
    79   38  163 1    
    80   39   40 am   BACKBONE|DICT|INTERRES
    81   39  164 1    
    82   40   41 2    
    83   40   42 1    
    84   42   43 1    
    85   42   44 1    
    86   42  165 1    
    87   43  166 1    
    88   43  167 1    
    89   43  168 1    
    90   44   45 am   BACKBONE|DICT|INTERRES
    91   44  169 1    
    92   45   46 2    
    93   45   47 1    
    94   47   48 1    
    95   47   49 1    
    96   47  170 1    
    97   48  171 1    
    98   48  172 1    
    99   48  173 1    
   100   49   50 am   BACKBONE|DICT|INTERRES
   101   49  174 1    
   102   50   51 2    
   103   50   52 1    
   104   52   53 1    
   105   52   54 1    
   106   52  175 1    
   107   53  176 1    
   108   53  177 1    
   109   53  178 1    
   110   54   55 am   BACKBONE|DICT|INTERRES
   111   54  179 1    
   112   55   56 2    
   113   55   57 1    
   114   57   58 1    
   115   57   59 1    
   116   57  180 1    
   117   58  181 1    
   118   58  182 1    
   119   58  183 1    
   120   59   60 am   BACKBONE|DICT|INTERRES
   121   59  184 1    
   122   60   61 2    
   123   60   62 1    
   124   62   63 1    
   125   62   64 1    
   126   62  185 1    
   127   63  186 1    
   128   63  187 1    
   129   63  188 1    
   130   64   65 am   BACKBONE|DICT|INTERRES
   131   64  189 1    
   132   65   66 2    
   133   67   68 2    
   134   67   69 am   BACKBONE|DICT|INTERRES
   135   69   70 1    
   136   69  190 1    
   137   70   71 1    
   138   70   72 1    
   139   70  191 1    
   140   71  192 1    
   141   71  193 1    
   142   71  194 1    
   143   72   73 2    
   144   72   74 am   BACKBONE|DICT|INTERRES
   145   74   75 1    
   146   74  195 1    
   147   75   76 1    
   148   75   77 1    
   149   75  196 1    
   150   76  197 1    
   151   76  198 1    
   152   76  199 1    
   153   77   78 2    
   154   77   79 am   BACKBONE|DICT|INTERRES
   155   79   80 1    
   156   79  200 1    
   157   80   81 1    
   158   80   82 1    
   159   80  201 1    
   160   81  202 1    
   161   81  203 1    
   162   81  204 1    
   163   82   83 2    
   164   82   84 am   BACKBONE|DICT|INTERRES
   165   84   85 1    
   166   84  205 1    
   167   85   86 1    
   168   85   87 1    
   169   85  206 1    
   170   86  207 1    
   171   86  208 1    
   172   86  209 1    
   173   87   88 2    
   174   87   89 am   BACKBONE|DICT|INTERRES
   175   89   90 1    
   176   89  210 1    
   177   90   91 1    
   178   90   92 1    
   179   90  211 1    
   180   91  212 1    
   181   91  213 1    
   182   91  214 1    
   183   92   93 2    
   184   92   94 am   BACKBONE|DICT|INTERRES
   185   94   95 1    
   186   94  215 1    
   187   95   96 1    
   188   95   97 1    
   189   95  216 1    
   190   96  217 1    
   191   96  218 1    
   192   96  219 1    
   193   97   98 2    
   194   97   99 am   BACKBONE|DICT|INTERRES
   195   99  100 1    
   196   99  220 1    
   197  100  101 1    
   198  100  102 1    
   199  100  221 1    
   200  101  222 1    
   201  101  223 1    
   202  101  224 1    
   203  102  103 2    
   204  102  104 am   BACKBONE|DICT|INTERRES
   205  104  105 1    
   206  104  225 1    
   207  105  106 1    
   208  105  107 1    
   209  105  226 1    
   210  106  227 1    
   211  106  228 1    
   212  106  229 1    
   213  107  108 2    
   214  107  109 am   BACKBONE|DICT|INTERRES
   215  109  110 1    
   216  109  230 1    
   217  110  111 1    
   218  110  112 1    
   219  110  231 1    
   220  111  232 1    
   221  111  233 1    
   222  111  234 1    
   223  112  113 2    
   224  112  114 am   BACKBONE|DICT|INTERRES
   225  114  115 1    
   226  114  235 1    
   227  115  116 1    
   228  115  117 1    
   229  115  236 1    
   230  116  237 1    
   231  116  238 1    
   232  116  239 1    
   233  117  118 2    
   234  117  119 am   BACKBONE|DICT|INTERRES
   235  119  120 1    
   236  119  240 1    
   237  120  121 1    
   238  120  124 1    
   239  120  241 1    
   240  121  122 am   BACKBONE|DICT|INTERRES
   241  121  123 2    
   242  122  242 1    
   243  122  243 1    
   244  124  125 1    
   245  124  244 1    
   246  124  245 1    
   247  125  126 1    
   248  126  246 1    
   249  126  247 1    
@<TRIPOS>SUBSTRUCTURE
     1 UNK         1 GROUP             0       ****    0 ROOT    
