@<TRIPOS>MOLECULE
3R540
247   249    1
SMALL
USER_CHARGES


@<TRIPOS>ATOM
      1 CA          4.1205  -18.0994  -45.7410 C.3       0 UNK        -0.1800 
      2 C           5.1337  -17.8199  -46.8467 C.2       0 UNK         0.5000 
      3 O           5.8548  -18.7286  -47.2524 O.2       0 UNK        -0.5000 
      4 N           5.2240  -16.5914  -47.3704 N.am      1 UNK        -0.5000 
      5 CA          4.5220  -15.3848  -46.9186 C.3       1 UNK         0.1400 
      6 C6          4.4403  -14.3297  -48.0528 C.3       23 UNK        -0.0398 
      7 S7          2.9772  -14.6004  -49.1005 S.3       23 UNK        -0.2404 
      8 C8          3.6020  -15.7268  -50.3857 C.3       23 UNK        -0.0205 
      9 C9          2.6187  -16.8595  -50.6408 C.ar      23 UNK        -0.0193 
     10 C10         1.3428  -16.5806  -51.1386 C.ar      23 UNK        -0.1150 
     11 C11         0.4250  -17.6080  -51.3686 C.ar      23 UNK        -0.0193 
     12 C12         0.7978  -18.9307  -51.1067 C.ar      23 UNK        -0.1150 
     13 C13         2.0790  -19.2279  -50.6252 C.ar      23 UNK        -0.0193 
     14 C14         2.9825  -18.1859  -50.3912 C.ar      23 UNK        -0.1150 
     15 C15         2.4956  -20.6782  -50.3984 C.3       23 UNK        -0.0205 
     16 S16         3.1239  -21.0216  -48.7160 S.3       23 UNK        -0.2404 
     17 C17         1.7320  -20.5035  -47.6572 C.3       23 UNK        -0.0398 
     18 CA          0.7690  -21.6449  -47.2498 C.3       11 UNK         0.1400 
     19 N          -0.1251  -21.2304  -46.1644 N.am      11 UNK        -0.5000 
     20 C          -1.0089  -22.0201  -45.5378 C.2       10 UNK         0.5000 
     21 O          -1.1300  -23.2223  -45.7597 O.2       10 UNK        -0.5000 
     22 CA         -1.9561  -21.3512  -44.5272 C.3       10 UNK         0.1400 
     23 CB         -1.2719  -21.1888  -43.1621 C.3       10 UNK        -0.1800 
     24 N          -2.4530  -20.0579  -44.9956 N.am      10 UNK        -0.5000 
     25 C          -3.2217  -19.8876  -46.0816 C.2       9 UNK         0.5000 
     26 O          -3.6520  -20.8142  -46.7701 O.2       9 UNK        -0.5000 
     27 CA         -3.5116  -18.4342  -46.5013 C.3       9 UNK         0.1400 
     28 CB         -4.6364  -17.8285  -45.6510 C.3       9 UNK        -0.1800 
     29 N          -2.3282  -17.5773  -46.4392 N.am      9 UNK        -0.5000 
     30 C          -1.2178  -17.7778  -47.1635 C.2       8 UNK         0.5000 
     31 O          -1.0895  -18.6974  -47.9706 O.2       8 UNK        -0.5000 
     32 CA         -0.0307  -16.8404  -46.8796 C.3       8 UNK         0.1400 
     33 CB         -0.2183  -15.4772  -47.5610 C.3       8 UNK        -0.1800 
     34 N           0.1655  -16.6444  -45.4429 N.am      8 UNK        -0.5000 
     35 C           0.5372  -17.6102  -44.5911 C.2       7 UNK         0.5000 
     36 O           0.8034  -18.7606  -44.9348 O.2       7 UNK        -0.5000 
     37 CA          0.5769  -17.2353  -43.1011 C.3       7 UNK         0.1400 
     38 CB          1.8767  -16.4898  -42.7680 C.3       7 UNK        -0.1800 
     39 N          -0.5751  -16.4202  -42.7140 N.am      7 UNK        -0.5000 
     40 C          -1.8350  -16.8814  -42.6678 C.2       6 UNK         0.5000 
     41 O          -2.1417  -18.0471  -42.9121 O.2       6 UNK        -0.5000 
     42 CA         -2.9482  -15.8692  -42.3366 C.3       6 UNK         0.1400 
     43 CB         -3.1868  -15.8120  -40.8206 C.3       6 UNK        -0.1800 
     44 N          -2.6696  -14.5210  -42.8289 N.am      6 UNK        -0.5000 
     45 C          -2.4759  -14.1879  -44.1131 C.2       5 UNK         0.5000 
     46 O          -2.5799  -14.9844  -45.0461 O.2       5 UNK        -0.5000 
     47 CA         -2.0447  -12.7343  -44.3938 C.3       5 UNK         0.1400 
     48 CB         -3.2491  -11.8950  -44.8443 C.3       5 UNK        -0.1800 
     49 N          -1.4042  -12.0821  -43.2444 N.am      5 UNK        -0.5000 
     50 C          -0.2338  -12.4570  -42.7108 C.2       4 UNK         0.5000 
     51 O           0.4408  -13.3991  -43.1337 O.2       4 UNK        -0.5000 
     52 CA          0.2270  -11.7009  -41.4556 C.3       4 UNK         0.1400 
     53 CB          0.1540  -12.6177  -40.2238 C.3       4 UNK        -0.1800 
     54 N           1.6016  -11.2469  -41.6322 N.am      4 UNK        -0.5000 
     55 C           1.9525  -10.0916  -42.2119 C.2       3 UNK         0.5000 
     56 O           1.1465   -9.2268  -42.5583 O.2       3 UNK        -0.5000 
     57 CA          3.4589   -9.8696  -42.4613 C.3       3 UNK         0.1400 
     58 CB          4.0933   -9.1093  -41.2865 C.3       3 UNK        -0.1800 
     59 N           4.2018  -11.1143  -42.6860 N.am      3 UNK        -0.5000 
     60 C           4.0189  -11.9234  -43.7378 C.2       2 UNK         0.5000 
     61 O           3.2321  -11.6775  -44.6572 O.2       2 UNK        -0.5000 
     62 CA          4.8401  -13.2240  -43.7598 C.3       2 UNK         0.1400 
     63 CB          4.6352  -14.0588  -42.4811 C.3       2 UNK        -0.1800 
     64 N           4.4223  -13.9981  -44.9225 N.am      2 UNK        -0.5000 
     65 C           5.1969  -14.7927  -45.6640 C.2       1 UNK         0.5000 
     66 O           6.3779  -15.0399  -45.4072 O.2       1 UNK        -0.5000 
     67 C          -0.0190  -22.1904  -48.4580 C.2       11 UNK         0.5000 
     68 O           0.2779  -23.2900  -48.9254 O.2       11 UNK        -0.5000 
     69 N          -1.0277  -21.4343  -48.9173 N.am      12 UNK        -0.5000 
     70 CA         -1.9107  -21.8165  -50.0209 C.3       12 UNK         0.1400 
     71 CB         -2.8671  -20.6605  -50.3462 C.3       12 UNK        -0.1800 
     72 C          -2.6923  -23.1125  -49.7426 C.2       12 UNK         0.5000 
     73 O          -2.7931  -23.9592  -50.6312 O.2       12 UNK        -0.5000 
     74 N          -3.1911  -23.2600  -48.5073 N.am      13 UNK        -0.5000 
     75 CA         -3.8546  -24.4686  -48.0226 C.3       13 UNK         0.1400 
     76 CB         -4.4972  -24.1925  -46.6549 C.3       13 UNK        -0.1800 
     77 C          -2.9016  -25.6772  -47.9581 C.2       13 UNK         0.5000 
     78 O          -3.2338  -26.7371  -48.4920 O.2       13 UNK        -0.5000 
     79 N          -1.7276  -25.4856  -47.3370 N.am      14 UNK        -0.5000 
     80 CA         -0.6813  -26.4970  -47.1598 C.3       14 UNK         0.1400 
     81 CB          0.4379  -25.9363  -46.2699 C.3       14 UNK        -0.1800 
     82 C          -0.0986  -27.0238  -48.4818 C.2       14 UNK         0.5000 
     83 O           0.2414  -28.2043  -48.5632 O.2       14 UNK        -0.5000 
     84 N          -0.0528  -26.1703  -49.5125 N.am      15 UNK        -0.5000 
     85 CA          0.3353  -26.4910  -50.8891 C.3       15 UNK         0.1400 
     86 CB          0.7247  -25.1818  -51.5992 C.3       15 UNK        -0.1800 
     87 C          -0.7408  -27.2901  -51.6671 C.2       15 UNK         0.5000 
     88 O          -0.9091  -27.0802  -52.8686 O.2       15 UNK        -0.5000 
     89 N          -1.4467  -28.1941  -50.9715 N.am      16 UNK        -0.5000 
     90 CA         -2.5315  -29.0592  -51.4441 C.3       16 UNK         0.1400 
     91 CB         -1.9857  -30.1265  -52.4159 C.3       16 UNK        -0.1800 
     92 C          -3.7244  -28.2666  -52.0181 C.2       16 UNK         0.5000 
     93 O          -4.2701  -28.6448  -53.0566 O.2       16 UNK        -0.5000 
     94 N          -4.0965  -27.1785  -51.3243 N.am      17 UNK        -0.5000 
     95 CA         -5.1309  -26.2059  -51.6938 C.3       17 UNK         0.1400 
     96 CB         -6.5356  -26.8345  -51.5891 C.3       17 UNK        -0.1800 
     97 C          -4.8500  -25.5636  -53.0682 C.2       17 UNK         0.5000 
     98 O          -5.6515  -25.6890  -53.9965 O.2       17 UNK        -0.5000 
     99 N          -3.6895  -24.9026  -53.1700 N.am      18 UNK        -0.5000 
    100 CA        -3.1973  -24.2346  -54.3779 C.3       18 UNK         0.1400 
    101 CB        -1.7447  -23.7883  -54.1512 C.3       18 UNK        -0.1800 
    102 C         -4.0589  -23.0318  -54.8034 C.2       18 UNK         0.5000 
    103 O         -4.1344  -22.7253  -55.9941 O.2       18 UNK        -0.5000 
    104 N         -4.6978  -22.3859  -53.8245 N.am      19 UNK        -0.5000 
    105 CA        -5.6337  -21.2856  -53.9894 C.3       19 UNK         0.1400 
    106 CB        -4.8641  -19.9691  -54.1930 C.3       19 UNK        -0.1800 
    107 C         -6.5124  -21.2227  -52.7356 C.2       19 UNK         0.5000 
    108 O         -6.0938  -21.6834  -51.6689 O.2       19 UNK        -0.5000 
    109 N         -7.6999  -20.6243  -52.8723 N.am      20 UNK        -0.5000 
    110 CA        -8.6325  -20.3629  -51.7777 C.3       20 UNK         0.1400 
    111 CB       -10.0373  -20.1369  -52.3636 C.3       20 UNK        -0.1800 
    112 C         -8.1425  -19.1606  -50.9504 C.2       20 UNK         0.5000 
    113 O         -8.5614  -18.0295  -51.2025 O.2       20 UNK        -0.5000 
    114 N         -7.2009  -19.4227  -50.0325 N.am      21 UNK        -0.5000 
    115 CA        -6.5286  -18.4557  -49.1543 C.3       21 UNK         0.1400 
    116 CB        -7.5124  -17.9174  -48.0945 C.3       21 UNK        -0.1800 
    117 C         -5.8091  -17.3326  -49.9366 C.2       21 UNK         0.5000 
    118 O         -5.8791  -16.1642  -49.5534 O.2       21 UNK        -0.5000 
    119 N         -5.1701  -17.7216  -51.0483 N.am      22 UNK        -0.5000 
    120 CA        -4.5447  -16.8486  -52.0608 C.3       22 UNK         0.1400 
    121 C         -5.5513  -16.0540  -52.9506 C.2       22 UNK         0.5000 
    122 N         -6.8586  -16.2703  -52.8603 N.am      22 UNK        -0.7600 
    123 O         -5.1369  -15.2445  -53.7756 O.2       22 UNK        -0.5000 
    124 C124       -3.4128  -15.9331  -51.5127 C.3       23 UNK        -0.0398 
    125 S125       -2.1150  -16.8280  -50.5963 S.3       23 UNK        -0.2404 
    126 C126       -0.9532  -17.2749  -51.9236 C.3       23 UNK        -0.0205 
    127 H127        3.1127  -17.8761  -46.0868 H         1 UNK         0.0600 
    128 H128        4.3331  -17.5031  -44.8543 H         1 UNK         0.0600 
    129 H129        4.1469  -19.1499  -45.4510 H         1 UNK         0.0600 
    130 H130        5.9314  -16.4316  -48.0719 H         1 UNK         0.3000 
    131 H131        3.5051  -15.6553  -46.6269 H         1 UNK         0.0600 
    132 H132        5.3482  -14.3099  -48.6578 H         1 UNK         0.0800 
    133 H133        4.3331  -13.3187  -47.6542 H         1 UNK         0.0800 
    134 H134        4.5756  -16.1263  -50.1004 H         1 UNK         0.0800 
    135 H135        3.7578  -15.1662  -51.3083 H         1 UNK         0.0800 
    136 H136        1.0598  -15.5562  -51.3369 H         1 UNK         0.1150 
    137 H137        0.0930  -19.7287  -51.2902 H         1 UNK         0.1150 
    138 H138        3.9712  -18.4124  -50.0168 H         1 UNK         0.1150 
    139 H139        1.6709  -21.3566  -50.6187 H         1 UNK         0.0800 
    140 H140        3.2812  -20.9246  -51.1136 H         1 UNK         0.0800 
    141 H141        1.2002  -19.6792  -48.1272 H         1 UNK         0.0800 
    142 H142        2.1804  -20.0836  -46.7577 H         1 UNK         0.0800 
    143 H143        1.3716  -22.4665  -46.8570 H         1 UNK         0.0600 
    144 H144       -0.0586  -20.2590  -45.8767 H         1 UNK         0.3000 
    145 H145       -2.8177  -22.0090  -44.3964 H         1 UNK         0.0600 
    146 H146       -1.9672  -20.8013  -42.4174 H         1 UNK         0.0600 
    147 H147       -0.4232  -20.5067  -43.2140 H         1 UNK         0.0600 
    148 H148       -0.9023  -22.1467  -42.7941 H         1 UNK         0.0600 
    149 H149       -2.1845  -19.2457  -44.4479 H         1 UNK         0.3000 
    150 H150       -3.8355  -18.4494  -47.5424 H         1 UNK         0.0600 
    151 H151       -5.5419  -18.4328  -45.7151 H         1 UNK         0.0600 
    152 H152       -4.8874  -16.8223  -45.9877 H         1 UNK         0.0600 
    153 H153       -4.3577  -17.7700  -44.5993 H         1 UNK         0.0600 
    154 H154       -2.3694  -16.7723  -45.8211 H         1 UNK         0.3000 
    155 H155        0.8728  -17.3002  -47.2859 H         1 UNK         0.0600 
    156 H156       -1.1718  -15.0164  -47.3029 H         1 UNK         0.0600 
    157 H157       -0.1894  -15.5835  -48.6455 H         1 UNK         0.0600 
    158 H158        0.5738  -14.7825  -47.2831 H         1 UNK         0.0600 
    159 H159       -0.0814  -15.7395  -45.0692 H         1 UNK         0.3000 
    160 H160        0.5536  -18.1584  -42.5179 H         1 UNK         0.0600 
    161 H161        1.9907  -15.5909  -43.3744 H         1 UNK         0.0600 
    162 H162        2.7458  -17.1215  -42.9540 H         1 UNK         0.0600 
    163 H163        1.9078  -16.1949  -41.7191 H         1 UNK         0.0600 
    164 H164       -0.4014  -15.4371  -42.5487 H         1 UNK         0.3000 
    165 H165       -3.8660  -16.2147  -42.8157 H         1 UNK         0.0600 
    166 H166       -4.0264  -15.1607  -40.5771 H         1 UNK         0.0600 
    167 H167       -3.4197  -16.8016  -40.4248 H         1 UNK         0.0600 
    168 H168       -2.3091  -15.4434  -40.2880 H         1 UNK         0.0600 
    169 H169       -2.5740  -13.7969  -42.1331 H         1 UNK         0.3000 
    170 H170       -1.3211  -12.7629  -45.2113 H         1 UNK         0.0600 
    171 H171       -3.7320  -12.3412  -45.7149 H         1 UNK         0.0600 
    172 H172       -4.0005  -11.8137  -44.0578 H         1 UNK         0.0600 
    173 H173       -2.9447  -10.8866  -45.1252 H         1 UNK         0.0600 
    174 H174       -1.8996  -11.3002  -42.8400 H         1 UNK         0.3000 
    175 H175       -0.4268  -10.8433  -41.2828 H         1 UNK         0.0600 
    176 H176        0.7892  -13.4978  -40.3346 H         1 UNK         0.0600 
    177 H177        0.4678  -12.0907  -39.3226 H         1 UNK         0.0600 
    178 H178       -0.8654  -12.9677  -40.0565 H         1 UNK         0.0600 
    179 H179        2.3256  -11.9188  -41.4272 H         1 UNK         0.3000 
    180 H180        3.5553   -9.2532  -43.3577 H         1 UNK         0.0600 
    181 H181        5.1390   -8.8746  -41.4864 H         1 UNK         0.0600 
    182 H182        4.0483   -9.6862  -40.3619 H         1 UNK         0.0600 
    183 H183        3.5780   -8.1644  -41.1091 H         1 UNK         0.0600 
    184 H184        4.8730  -11.3720  -41.9768 H         1 UNK         0.3000 
    185 H185        5.8934  -12.9530  -43.8573 H         1 UNK         0.0600 
    186 H186        3.5774  -14.1977  -42.2579 H         1 UNK         0.0600 
    187 H187        5.0910  -15.0450  -42.5718 H         1 UNK         0.0600 
    188 H188        5.0905  -13.5749  -41.6168 H         1 UNK         0.0600 
    189 H189        3.4897  -13.7634  -45.2407 H         1 UNK         0.3000 
    190 H190       -1.1867  -20.5215  -48.4957 H         1 UNK         0.3000 
    191 H191       -1.2824  -21.9936  -50.8960 H         1 UNK         0.0600 
    192 H192       -2.3157  -19.7603  -50.6117 H         1 UNK         0.0600 
    193 H193       -3.5131  -20.4185  -49.5021 H         1 UNK         0.0600 
    194 H194       -3.5068  -20.9113  -51.1921 H         1 UNK         0.0600 
    195 H195       -3.0941  -22.4941  -47.8486 H         1 UNK         0.3000 
    196 H196       -4.6559  -24.7126  -48.7219 H         1 UNK         0.0600 
    197 H197       -5.2245  -23.3830  -46.7192 H         1 UNK         0.0600 
    198 H198       -3.7556  -23.9135  -45.9065 H         1 UNK         0.0600 
    199 H199       -5.0220  -25.0742  -46.2852 H         1 UNK         0.0600 
    200 H200       -1.5427  -24.5801  -46.9092 H         1 UNK         0.3000 
    201 H201       -1.1328  -27.3456  -46.6423 H         1 UNK         0.0600 
    202 H202        0.0588  -25.6634  -45.2850 H         1 UNK         0.0600 
    203 H203        0.8943  -25.0498  -46.7118 H         1 UNK         0.0600 
    204 H204        1.2275  -26.6736  -46.1199 H         1 UNK         0.0600 
    205 H205       -0.3070  -25.2031  -49.3374 H         1 UNK         0.3000 
    206 H206        1.2243  -27.1233  -50.8527 H         1 UNK         0.0600 
    207 H207       -0.1196  -24.4940  -51.6543 H         1 UNK         0.0600 
    208 H208        1.5319  -24.6736  -51.0713 H         1 UNK         0.0600 
    209 H209        1.0726  -25.3662  -52.6162 H         1 UNK         0.0600 
    210 H210       -1.1991  -28.3016  -49.9946 H         1 UNK         0.3000 
    211 H211       -2.9108  -29.5797  -50.5636 H         1 UNK         0.0600 
    212 H212       -1.6278  -29.6827  -53.3454 H         1 UNK         0.0600 
    213 H213       -2.7584  -30.8510  -52.6754 H         1 UNK         0.0600 
    214 H214       -1.1602  -30.6807  -51.9693 H         1 UNK         0.0600 
    215 H215       -3.5921  -26.9727  -50.4672 H         1 UNK         0.3000 
    216 H216       -5.0816  -25.4008  -50.9607 H         1 UNK         0.0600 
    217 H217       -7.3090  -26.0898  -51.7811 H         1 UNK         0.0600 
    218 H218       -6.7125  -27.2363  -50.5915 H         1 UNK         0.0600 
    219 H219       -6.6766  -27.6436  -52.3061 H         1 UNK         0.0600 
    220 H220       -3.1237  -24.8004  -52.3318 H         1 UNK         0.3000 
    221 H221       -3.2127  -24.9593  -55.1943 H         1 UNK         0.0600 
    222 H222       -1.6580  -23.1185  -53.2948 H         1 UNK         0.0600 
    223 H223       -1.0943  -24.6443  -53.9777 H         1 UNK         0.0600 
    224 H224       -1.3549  -23.2610  -55.0228 H         1 UNK         0.0600 
    225 H225       -4.6177  -22.7229  -52.8729 H         1 UNK         0.3000 
    226 H226       -6.2736  -21.4800  -54.8527 H         1 UNK         0.0600 
    227 H227       -4.3000  -19.9820  -55.1256 H         1 UNK         0.0600 
    228 H228       -5.5424  -19.1162  -54.2383 H         1 UNK         0.0600 
    229 H229       -4.1574  -19.7943  -53.3818 H         1 UNK         0.0600 
    230 H230       -7.9580  -20.2474  -53.7731 H         1 UNK         0.3000 
    231 H231       -8.6792  -21.2361  -51.1231 H         1 UNK         0.0600 
    232 H232      -10.7581  -19.9206  -51.5741 H         1 UNK         0.0600 
    233 H233      -10.3902  -21.0234  -52.8910 H         1 UNK         0.0600 
    234 H234      -10.0569  -19.3013  -53.0645 H         1 UNK         0.0600 
    235 H235       -6.8636  -20.3765  -49.9768 H         1 UNK         0.3000 
    236 H236       -5.7529  -19.0147  -48.6318 H         1 UNK         0.0600 
    237 H237       -8.3230  -17.3463  -48.5479 H         1 UNK         0.0600 
    238 H238       -7.9554  -18.7307  -47.5199 H         1 UNK         0.0600 
    239 H239       -7.0090  -17.2580  -47.3872 H         1 UNK         0.0600 
    240 H240       -5.1849  -18.7043  -51.2740 H         1 UNK         0.3000 
    241 H241       -4.0647  -17.5332  -52.7584 H         1 UNK         0.0600 
    242 H242       -7.4786  -15.7486  -53.4590 H         1 UNK         0.3800 
    243 H243       -7.2546  -16.9080  -52.1785 H         1 UNK         0.3800 
    244 H244       -3.8278  -15.1746  -50.8483 H         1 UNK         0.0800 
    245 H245       -2.9382  -15.3793  -52.3240 H         1 UNK         0.0800 
    246 H246       -1.3544  -18.1210  -52.4833 H         1 UNK         0.0800 
    247 H247       -0.8640  -16.4507  -52.6325 H         1 UNK         0.0800 
@<TRIPOS>BOND
     1    1    2 1    
     2    1  127 1    
     3    1  128 1    
     4    1  129 1    
     5    2    3 2    
     6    2    4 am   BACKBONE|DICT|INTERRES
     7    4    5 1    
     8    4  130 1    
     9    5    6 1    
    10    5   65 1    
    11    5  131 1    
    12    6    7 1    
    13    6  132 1    
    14    6  133 1    
    15    7    8 1    
    16    8    9 1    
    17    8  134 1    
    18    8  135 1    
    19    9   10 ar   
    20    9   14 ar   
    21   10   11 ar   
    22   10  136 1    
    23   11   12 ar   
    24   11  126 1    
    25   12   13 ar   
    26   12  137 1    
    27   13   14 ar   
    28   13   15 1    
    29   14  138 1    
    30   15   16 1    
    31   15  139 1    
    32   15  140 1    
    33   16   17 1    
    34   17   18 1    
    35   17  141 1    
    36   17  142 1    
    37   18   19 1    
    38   18   67 1    
    39   18  143 1    
    40   19   20 am   BACKBONE|DICT|INTERRES
    41   19  144 1    
    42   20   21 2    
    43   20   22 1    
    44   22   23 1    
    45   22   24 1    
    46   22  145 1    
    47   23  146 1    
    48   23  147 1    
    49   23  148 1    
    50   24   25 am   BACKBONE|DICT|INTERRES
    51   24  149 1    
    52   25   26 2    
    53   25   27 1    
    54   27   28 1    
    55   27   29 1    
    56   27  150 1    
    57   28  151 1    
    58   28  152 1    
    59   28  153 1    
    60   29   30 am   BACKBONE|DICT|INTERRES
    61   29  154 1    
    62   30   31 2    
    63   30   32 1    
    64   32   33 1    
    65   32   34 1    
    66   32  155 1    
    67   33  156 1    
    68   33  157 1    
    69   33  158 1    
    70   34   35 am   BACKBONE|DICT|INTERRES
    71   34  159 1    
    72   35   36 2    
    73   35   37 1    
    74   37   38 1    
    75   37   39 1    
    76   37  160 1    
    77   38  161 1    
    78   38  162 1    
    79   38  163 1    
    80   39   40 am   BACKBONE|DICT|INTERRES
    81   39  164 1    
    82   40   41 2    
    83   40   42 1    
    84   42   43 1    
    85   42   44 1    
    86   42  165 1    
    87   43  166 1    
    88   43  167 1    
    89   43  168 1    
    90   44   45 am   BACKBONE|DICT|INTERRES
    91   44  169 1    
    92   45   46 2    
    93   45   47 1    
    94   47   48 1    
    95   47   49 1    
    96   47  170 1    
    97   48  171 1    
    98   48  172 1    
    99   48  173 1    
   100   49   50 am   BACKBONE|DICT|INTERRES
   101   49  174 1    
   102   50   51 2    
   103   50   52 1    
   104   52   53 1    
   105   52   54 1    
   106   52  175 1    
   107   53  176 1    
   108   53  177 1    
   109   53  178 1    
   110   54   55 am   BACKBONE|DICT|INTERRES
   111   54  179 1    
   112   55   56 2    
   113   55   57 1    
   114   57   58 1    
   115   57   59 1    
   116   57  180 1    
   117   58  181 1    
   118   58  182 1    
   119   58  183 1    
   120   59   60 am   BACKBONE|DICT|INTERRES
   121   59  184 1    
   122   60   61 2    
   123   60   62 1    
   124   62   63 1    
   125   62   64 1    
   126   62  185 1    
   127   63  186 1    
   128   63  187 1    
   129   63  188 1    
   130   64   65 am   BACKBONE|DICT|INTERRES
   131   64  189 1    
   132   65   66 2    
   133   67   68 2    
   134   67   69 am   BACKBONE|DICT|INTERRES
   135   69   70 1    
   136   69  190 1    
   137   70   71 1    
   138   70   72 1    
   139   70  191 1    
   140   71  192 1    
   141   71  193 1    
   142   71  194 1    
   143   72   73 2    
   144   72   74 am   BACKBONE|DICT|INTERRES
   145   74   75 1    
   146   74  195 1    
   147   75   76 1    
   148   75   77 1    
   149   75  196 1    
   150   76  197 1    
   151   76  198 1    
   152   76  199 1    
   153   77   78 2    
   154   77   79 am   BACKBONE|DICT|INTERRES
   155   79   80 1    
   156   79  200 1    
   157   80   81 1    
   158   80   82 1    
   159   80  201 1    
   160   81  202 1    
   161   81  203 1    
   162   81  204 1    
   163   82   83 2    
   164   82   84 am   BACKBONE|DICT|INTERRES
   165   84   85 1    
   166   84  205 1    
   167   85   86 1    
   168   85   87 1    
   169   85  206 1    
   170   86  207 1    
   171   86  208 1    
   172   86  209 1    
   173   87   88 2    
   174   87   89 am   BACKBONE|DICT|INTERRES
   175   89   90 1    
   176   89  210 1    
   177   90   91 1    
   178   90   92 1    
   179   90  211 1    
   180   91  212 1    
   181   91  213 1    
   182   91  214 1    
   183   92   93 2    
   184   92   94 am   BACKBONE|DICT|INTERRES
   185   94   95 1    
   186   94  215 1    
   187   95   96 1    
   188   95   97 1    
   189   95  216 1    
   190   96  217 1    
   191   96  218 1    
   192   96  219 1    
   193   97   98 2    
   194   97   99 am   BACKBONE|DICT|INTERRES
   195   99  100 1    
   196   99  220 1    
   197  100  101 1    
   198  100  102 1    
   199  100  221 1    
   200  101  222 1    
   201  101  223 1    
   202  101  224 1    
   203  102  103 2    
   204  102  104 am   BACKBONE|DICT|INTERRES
   205  104  105 1    
   206  104  225 1    
   207  105  106 1    
   208  105  107 1    
   209  105  226 1    
   210  106  227 1    
   211  106  228 1    
   212  106  229 1    
   213  107  108 2    
   214  107  109 am   BACKBONE|DICT|INTERRES
   215  109  110 1    
   216  109  230 1    
   217  110  111 1    
   218  110  112 1    
   219  110  231 1    
   220  111  232 1    
   221  111  233 1    
   222  111  234 1    
   223  112  113 2    
   224  112  114 am   BACKBONE|DICT|INTERRES
   225  114  115 1    
   226  114  235 1    
   227  115  116 1    
   228  115  117 1    
   229  115  236 1    
   230  116  237 1    
   231  116  238 1    
   232  116  239 1    
   233  117  118 2    
   234  117  119 am   BACKBONE|DICT|INTERRES
   235  119  120 1    
   236  119  240 1    
   237  120  121 1    
   238  120  124 1    
   239  120  241 1    
   240  121  122 am   BACKBONE|DICT|INTERRES
   241  121  123 2    
   242  122  242 1    
   243  122  243 1    
   244  124  125 1    
   245  124  244 1    
   246  124  245 1    
   247  125  126 1    
   248  126  246 1    
   249  126  247 1    
@<TRIPOS>SUBSTRUCTURE
     1 UNK         1 GROUP             0       ****    0 ROOT    
