@<TRIPOS>MOLECULE
3R540
247   249    1
SMALL
USER_CHARGES


@<TRIPOS>ATOM
      1 CA         -5.3822  -11.2708  -49.2389 C.3       0 UNK        -0.1800 
      2 C          -4.3494  -11.5603  -48.1607 C.2       0 UNK         0.5000 
      3 O          -3.1624  -11.6532  -48.4638 O.2       0 UNK        -0.5000 
      4 N          -4.7895  -11.6798  -46.9017 N.am      1 UNK        -0.5000 
      5 CA         -3.9765  -12.0204  -45.7233 C.3       1 UNK         0.1400 
      6 C6         -4.8906  -12.1727  -44.4777 C.3       23 UNK        -0.0398 
      7 S7         -4.1429  -13.0485  -43.0597 S.3       23 UNK        -0.2404 
      8 C8         -4.6546  -14.7742  -43.3549 C.3       23 UNK        -0.0205 
      9 C9         -3.8359  -15.3983  -44.4724 C.ar      23 UNK        -0.0193 
     10 C10        -4.3764  -15.5538  -45.7517 C.ar      23 UNK        -0.1150 
     11 C11        -3.5864  -16.0282  -46.8030 C.ar      23 UNK        -0.0193 
     12 C12        -2.2521  -16.3739  -46.5514 C.ar      23 UNK        -0.1150 
     13 C13        -1.7035  -16.2364  -45.2724 C.ar      23 UNK        -0.0193 
     14 C14        -2.5077  -15.7586  -44.2360 C.ar      23 UNK        -0.1150 
     15 C15        -0.2262  -16.5121  -45.0106 C.3       23 UNK        -0.0205 
     16 S16         0.2933  -18.2258  -45.3396 S.3       23 UNK        -0.2404 
     17 C17        -0.9056  -19.2316  -44.4049 C.3       23 UNK        -0.0398 
     18 CA         -1.7874  -20.0932  -45.3405 C.3       11 UNK         0.1400 
     19 N          -1.0008  -20.9908  -46.2041 N.am      11 UNK        -0.5000 
     20 C          -1.5200  -21.7322  -47.1927 C.2       10 UNK         0.5000 
     21 O          -2.7023  -21.6741  -47.5206 O.2       10 UNK        -0.5000 
     22 CA         -0.6179  -22.7904  -47.8528 C.3       10 UNK         0.1400 
     23 CB          0.1404  -22.2486  -49.0693 C.3       10 UNK        -0.1800 
     24 N           0.3327  -23.3592  -46.9032 N.am      10 UNK        -0.5000 
     25 C           0.0238  -24.2956  -45.9995 C.2       9 UNK         0.5000 
     26 O          -1.0916  -24.8054  -45.9059 O.2       9 UNK        -0.5000 
     27 CA          1.1343  -24.7012  -45.0123 C.3       9 UNK         0.1400 
     28 CB          2.0220  -25.7970  -45.6199 C.3       9 UNK        -0.1800 
     29 N           1.9699  -23.5708  -44.5986 N.am      9 UNK        -0.5000 
     30 C           1.5256  -22.5402  -43.8667 C.2       8 UNK         0.5000 
     31 O           0.3734  -22.4557  -43.4424 O.2       8 UNK        -0.5000 
     32 CA          2.5142  -21.3903  -43.5922 C.3       8 UNK         0.1400 
     33 CB          3.3542  -21.6956  -42.3432 C.3       8 UNK        -0.1800 
     34 N           3.4108  -21.0283  -44.6970 N.am      8 UNK        -0.5000 
     35 C           3.0573  -20.7883  -45.9673 C.2       7 UNK         0.5000 
     36 O           1.9375  -21.0132  -46.4238 O.2       7 UNK        -0.5000 
     37 CA          4.1197  -20.1142  -46.8508 C.3       7 UNK         0.1400 
     38 CB          3.9386  -20.4315  -48.3460 C.3       7 UNK        -0.1800 
     39 N           4.0311  -18.6702  -46.6523 N.am      7 UNK        -0.5000 
     40 C           4.6017  -17.9959  -45.6481 C.2       6 UNK         0.5000 
     41 O           5.3862  -18.5169  -44.8522 O.2       6 UNK        -0.5000 
     42 CA          4.2262  -16.5027  -45.5047 C.3       6 UNK         0.1400 
     43 CB          5.0959  -15.7707  -44.4664 C.3       6 UNK        -0.1800 
     44 N           4.2801  -15.7574  -46.7666 N.am      6 UNK        -0.5000 
     45 C           3.3412  -15.7839  -47.7187 C.2       5 UNK         0.5000 
     46 O           2.3623  -16.5302  -47.6844 O.2       5 UNK        -0.5000 
     47 CA          3.5398  -14.8479  -48.9222 C.3       5 UNK         0.1400 
     48 CB          4.1934  -15.5994  -50.0918 C.3       5 UNK        -0.1800 
     49 N           2.2488  -14.3193  -49.3545 N.am      5 UNK        -0.5000 
     50 C           1.5920  -13.3318  -48.7361 C.2       4 UNK         0.5000 
     51 O           2.0643  -12.6593  -47.8153 O.2       4 UNK        -0.5000 
     52 CA          0.1402  -13.1124  -49.1989 C.3       4 UNK         0.1400 
     53 CB         -0.7935  -14.0538  -48.4290 C.3       4 UNK        -0.1800 
     54 N          -0.3517  -11.7474  -49.0245 N.am      4 UNK        -0.5000 
     55 C           0.1565  -10.6425  -49.5828 C.2       3 UNK         0.5000 
     56 O           1.1506  -10.6348  -50.3105 O.2       3 UNK        -0.5000 
     57 CA         -0.5894   -9.3225  -49.3165 C.3       3 UNK         0.1400 
     58 CB         -1.5634   -9.0274  -50.4689 C.3       3 UNK        -0.1800 
     59 N          -1.3480   -9.3375  -48.0621 N.am      3 UNK        -0.5000 
     60 C          -0.9591   -8.7383  -46.9283 C.2       2 UNK         0.5000 
     61 O           0.1242   -8.1663  -46.7993 O.2       2 UNK        -0.5000 
     62 CA         -1.9481   -8.7342  -45.7432 C.3       2 UNK         0.1400 
     63 CB         -2.6419   -7.3670  -45.6364 C.3       2 UNK        -0.1800 
     64 N          -2.9772   -9.7714  -45.8332 N.am      2 UNK        -0.5000 
     65 C          -2.7945  -11.0507  -45.4789 C.2       1 UNK         0.5000 
     66 O          -1.7367  -11.4794  -45.0167 O.2       1 UNK        -0.5000 
     67 C          -2.8451  -20.8716  -44.5227 C.2       11 UNK         0.5000 
     68 O          -3.9607  -20.3841  -44.3409 O.2       11 UNK        -0.5000 
     69 N          -2.4893  -22.0900  -44.0894 N.am      12 UNK        -0.5000 
     70 CA         -3.3805  -23.0620  -43.4514 C.3       12 UNK         0.1400 
     71 CB         -2.5249  -24.0404  -42.6302 C.3       12 UNK        -0.1800 
     72 C          -4.2755  -23.8319  -44.4498 C.2       12 UNK         0.5000 
     73 O          -5.1530  -24.5765  -44.0111 O.2       12 UNK        -0.5000 
     74 N          -4.0398  -23.6503  -45.7579 N.am      13 UNK        -0.5000 
     75 CA         -4.7175  -24.2739  -46.8979 C.3       13 UNK         0.1400 
     76 CB         -6.1740  -23.7785  -47.0056 C.3       13 UNK        -0.1800 
     77 C          -4.5935  -25.8113  -46.9266 C.2       13 UNK         0.5000 
     78 O          -5.5546  -26.5000  -47.2789 O.2       13 UNK        -0.5000 
     79 N          -3.4062  -26.3296  -46.5770 N.am      14 UNK        -0.5000 
     80 CA         -3.0634  -27.7524  -46.6296 C.3       14 UNK         0.1400 
     81 CB         -1.6347  -27.9599  -46.1051 C.3       14 UNK        -0.1800 
     82 C          -3.2058  -28.3075  -48.0583 C.2       14 UNK         0.5000 
     83 O          -2.6435  -27.7334  -48.9938 O.2       14 UNK        -0.5000 
     84 N          -4.0124  -29.3690  -48.2027 N.am      15 UNK        -0.5000 
     85 CA         -4.4086  -30.0130  -49.4646 C.3       15 UNK         0.1400 
     86 CB         -3.1984  -30.7233  -50.1067 C.3       15 UNK        -0.1800 
     87 C          -5.1265  -29.0657  -50.4568 C.2       15 UNK         0.5000 
     88 O          -5.1445  -29.3422  -51.6570 O.2       15 UNK        -0.5000 
     89 N          -5.6814  -27.9561  -49.9407 N.am      16 UNK        -0.5000 
     90 CA         -6.2844  -26.8302  -50.6619 C.3       16 UNK         0.1400 
     91 CB         -7.5472  -27.2734  -51.4291 C.3       16 UNK        -0.1800 
     92 C          -5.2930  -26.0494  -51.5551 C.2       16 UNK         0.5000 
     93 O          -5.7286  -25.2622  -52.3967 O.2       16 UNK        -0.5000 
     94 N          -3.9796  -26.2297  -51.3485 N.am      17 UNK        -0.5000 
     95 CA         -2.9017  -25.6160  -52.1311 C.3       17 UNK         0.1400 
     96 CB         -1.6717  -26.5400  -52.0837 C.3       17 UNK        -0.1800 
     97 C          -2.5779  -24.1801  -51.6650 C.2       17 UNK         0.5000 
     98 O          -1.4077  -23.8143  -51.5460 O.2       17 UNK        -0.5000 
     99 N          -3.6230  -23.3871  -51.3949 N.am      18 UNK        -0.5000 
    100 CA        -3.5343  -22.0506  -50.8064 C.3       18 UNK         0.1400 
    101 CB        -4.9336  -21.5866  -50.3791 C.3       18 UNK        -0.1800 
    102 C         -2.8600  -21.0019  -51.7057 C.2       18 UNK         0.5000 
    103 O         -2.2655  -20.0562  -51.1888 O.2       18 UNK        -0.5000 
    104 N         -2.9284  -21.2005  -53.0294 N.am      19 UNK        -0.5000 
    105 CA        -2.3779  -20.3116  -54.0567 C.3       19 UNK         0.1400 
    106 CB        -2.7240  -20.8772  -55.4419 C.3       19 UNK        -0.1800 
    107 C         -0.8611  -20.0569  -53.9438 C.2       19 UNK         0.5000 
    108 O         -0.3995  -18.9967  -54.3662 O.2       19 UNK        -0.5000 
    109 N         -0.1198  -21.0010  -53.3454 N.am      20 UNK        -0.5000 
    110 CA         1.3135  -20.8770  -53.0677 C.3       20 UNK         0.1400 
    111 CB         1.8605  -22.2428  -52.6281 C.3       20 UNK        -0.1800 
    112 C          1.6527  -19.7836  -52.0316 C.2       20 UNK         0.5000 
    113 O          2.7673  -19.2607  -52.0581 O.2       20 UNK        -0.5000 
    114 N          0.6902  -19.4428  -51.1648 N.am      21 UNK        -0.5000 
    115 CA         0.7638  -18.3076  -50.2498 C.3       21 UNK         0.1400 
    116 CB         0.2085  -18.7094  -48.8744 C.3       21 UNK        -0.1800 
    117 C         -0.0496  -17.1314  -50.8028 C.2       21 UNK         0.5000 
    118 O          0.4696  -16.0205  -50.9190 O.2       21 UNK        -0.5000 
    119 N         -1.3256  -17.4066  -51.0913 N.am      22 UNK        -0.5000 
    120 CA        -2.3792  -16.4142  -51.3306 C.3       22 UNK         0.1400 
    121 C         -2.4490  -15.8639  -52.7830 C.2       22 UNK         0.5000 
    122 N         -1.6969  -16.3882  -53.7423 N.am      22 UNK        -0.7600 
    123 O         -3.1992  -14.9282  -53.0452 O.2       22 UNK        -0.5000 
    124 C124       -3.7615  -16.9466  -50.8604 C.3       23 UNK        -0.0398 
    125 S125       -3.7443  -17.5723  -49.1397 S.3       23 UNK        -0.2404 
    126 C126       -4.1573  -16.0576  -48.2180 C.3       23 UNK        -0.0205 
    127 H127       -5.3758  -12.0663  -49.9839 H         1 UNK         0.0600 
    128 H128       -5.1471  -10.3316  -49.7396 H         1 UNK         0.0600 
    129 H129       -6.3891  -11.1962  -48.8277 H         1 UNK         0.0600 
    130 H130       -5.7781  -11.5687  -46.7272 H         1 UNK         0.3000 
    131 H131       -3.5248  -12.9881  -45.9420 H         1 UNK         0.0600 
    132 H132       -5.2259  -11.1929  -44.1333 H         1 UNK         0.0800 
    133 H133       -5.8005  -12.7095  -44.7496 H         1 UNK         0.0800 
    134 H134       -5.7224  -14.8189  -43.5748 H         1 UNK         0.0800 
    135 H135       -4.5077  -15.3480  -42.4388 H         1 UNK         0.0800 
    136 H136       -5.3974  -15.2531  -45.9399 H         1 UNK         0.1150 
    137 H137       -1.6286  -16.7199  -47.3608 H         1 UNK         0.1150 
    138 H138       -2.0883  -15.6174  -43.2497 H         1 UNK         0.1150 
    139 H139        0.3680  -15.8482  -45.6405 H         1 UNK         0.0800 
    140 H140        0.0361  -16.2669  -43.9805 H         1 UNK         0.0800 
    141 H141       -1.5246  -18.5782  -43.7883 H         1 UNK         0.0800 
    142 H142       -0.3532  -19.8626  -43.7091 H         1 UNK         0.0800 
    143 H143       -2.3328  -19.4137  -45.9998 H         1 UNK         0.0600 
    144 H144       -0.0002  -21.0342  -46.0364 H         1 UNK         0.3000 
    145 H145       -1.2728  -23.5875  -48.2130 H         1 UNK         0.0600 
    146 H146        0.5821  -23.0707  -49.6306 H         1 UNK         0.0600 
    147 H147       -0.5230  -21.7116  -49.7459 H         1 UNK         0.0600 
    148 H148        0.9476  -21.5765  -48.7876 H         1 UNK         0.0600 
    149 H149        1.2313  -22.8955  -46.8420 H         1 UNK         0.3000 
    150 H150        0.6510  -25.1094  -44.1221 H         1 UNK         0.0600 
    151 H151        1.4266  -26.6618  -45.9156 H         1 UNK         0.0600 
    152 H152        2.7647  -26.1458  -44.9022 H         1 UNK         0.0600 
    153 H153        2.5502  -25.4431  -46.5061 H         1 UNK         0.0600 
    154 H154        2.9263  -23.5592  -44.9212 H         1 UNK         0.3000 
    155 H155        1.9165  -20.5025  -43.3801 H         1 UNK         0.0600 
    156 H156        4.0264  -22.5386  -42.5077 H         1 UNK         0.0600 
    157 H157        2.7172  -21.9437  -41.4930 H         1 UNK         0.0600 
    158 H158        3.9583  -20.8355  -42.0536 H         1 UNK         0.0600 
    159 H159        4.3493  -20.7688  -44.4252 H         1 UNK         0.3000 
    160 H160        5.1051  -20.4759  -46.5497 H         1 UNK         0.0600 
    161 H161        3.0103  -20.0248  -48.7440 H         1 UNK         0.0600 
    162 H162        3.9262  -21.5082  -48.5191 H         1 UNK         0.0600 
    163 H163        4.7563  -20.0162  -48.9350 H         1 UNK         0.0600 
    164 H164        3.3421  -18.1735  -47.2094 H         1 UNK         0.3000 
    165 H165        3.1972  -16.4801  -45.1386 H         1 UNK         0.0600 
    166 H166        4.7750  -14.7362  -44.3421 H         1 UNK         0.0600 
    167 H167        5.0256  -16.2472  -43.4877 H         1 UNK         0.0600 
    168 H168        6.1475  -15.7644  -44.7557 H         1 UNK         0.0600 
    169 H169        5.0808  -15.1546  -46.8890 H         1 UNK         0.3000 
    170 H170        4.1886  -14.0188  -48.6323 H         1 UNK         0.0600 
    171 H171        5.1635  -16.0053  -49.8026 H         1 UNK         0.0600 
    172 H172        3.5780  -16.4323  -50.4330 H         1 UNK         0.0600 
    173 H173        4.3580  -14.9369  -50.9417 H         1 UNK         0.0600 
    174 H174        1.7368  -14.8847  -50.0273 H         1 UNK         0.3000 
    175 H175        0.0776  -13.3488  -50.2630 H         1 UNK         0.0600 
    176 H176       -0.8247  -13.8090  -47.3662 H         1 UNK         0.0600 
    177 H177       -1.8093  -13.9978  -48.8154 H         1 UNK         0.0600 
    178 H178       -0.4653  -15.0892  -48.5180 H         1 UNK         0.0600 
    179 H179       -1.2199  -11.6590  -48.5080 H         1 UNK         0.3000 
    180 H180        0.1558   -8.5244  -49.2979 H         1 UNK         0.0600 
    181 H181       -2.0582   -8.0660  -50.3298 H         1 UNK         0.0600 
    182 H182       -2.3357   -9.7936  -50.5496 H         1 UNK         0.0600 
    183 H183       -1.0389   -8.9873  -51.4245 H         1 UNK         0.0600 
    184 H184       -2.2190   -9.8541  -48.0715 H         1 UNK         0.3000 
    185 H185       -1.3672   -8.8886  -44.8313 H         1 UNK         0.0600 
    186 H186       -1.9109   -6.5639  -45.5331 H         1 UNK         0.0600 
    187 H187       -3.2441   -7.1507  -46.5197 H         1 UNK         0.0600 
    188 H188       -3.2951   -7.3229  -44.7646 H         1 UNK         0.0600 
    189 H189       -3.8691   -9.4985  -46.2200 H         1 UNK         0.3000 
    190 H190       -1.5250  -22.3818  -44.2106 H         1 UNK         0.3000 
    191 H191       -4.0423  -22.5306  -42.7646 H         1 UNK         0.0600 
    192 H192       -3.1500  -24.7525  -42.0901 H         1 UNK         0.0600 
    193 H193       -1.9218  -23.5126  -41.8912 H         1 UNK         0.0600 
    194 H194       -1.8486  -24.6133  -43.2652 H         1 UNK         0.0600 
    195 H195       -3.3120  -22.9946  -46.0121 H         1 UNK         0.3000 
    196 H196       -4.1926  -23.9241  -47.7878 H         1 UNK         0.0600 
    197 H197       -6.7839  -24.1296  -46.1729 H         1 UNK         0.0600 
    198 H198       -6.2175  -22.6893  -47.0190 H         1 UNK         0.0600 
    199 H199       -6.6411  -24.1312  -47.9258 H         1 UNK         0.0600 
    200 H200       -2.6501  -25.6991  -46.3168 H         1 UNK         0.3000 
    201 H201       -3.7514  -28.2809  -45.9668 H         1 UNK         0.0600 
    202 H202       -0.9002  -27.4573  -46.7356 H         1 UNK         0.0600 
    203 H203       -1.3772  -29.0193  -46.0823 H         1 UNK         0.0600 
    204 H204       -1.5253  -27.5747  -45.0910 H         1 UNK         0.0600 
    205 H205       -4.4519  -29.7472  -47.3746 H         1 UNK         0.3000 
    206 H206       -5.1391  -30.7788  -49.2001 H         1 UNK         0.0600 
    207 H207       -2.7076  -31.3876  -49.3954 H         1 UNK         0.0600 
    208 H208       -3.5060  -31.3331  -50.9569 H         1 UNK         0.0600 
    209 H209       -2.4559  -30.0110  -50.4680 H         1 UNK         0.0600 
    210 H210       -5.6006  -27.8120  -48.9396 H         1 UNK         0.3000 
    211 H211       -6.6035  -26.1254  -49.8929 H         1 UNK         0.0600 
    212 H212       -8.0895  -26.4121  -51.8209 H         1 UNK         0.0600 
    213 H213       -8.2331  -27.8170  -50.7793 H         1 UNK         0.0600 
    214 H214       -7.3049  -27.9161  -52.2756 H         1 UNK         0.0600 
    215 H215       -3.6830  -26.8461  -50.5991 H         1 UNK         0.3000 
    216 H216       -3.2195  -25.5469  -53.1733 H         1 UNK         0.0600 
    217 H217       -1.2621  -26.6111  -51.0754 H         1 UNK         0.0600 
    218 H218       -0.8782  -26.1720  -52.7354 H         1 UNK         0.0600 
    219 H219       -1.9217  -27.5481  -52.4149 H         1 UNK         0.0600 
    220 H220       -4.5500  -23.7556  -51.5733 H         1 UNK         0.3000 
    221 H221       -2.9158  -22.1401  -49.9175 H         1 UNK         0.0600 
    222 H222       -5.3736  -22.2751  -49.6577 H         1 UNK         0.0600 
    223 H223       -5.6106  -21.5096  -51.2306 H         1 UNK         0.0600 
    224 H224       -4.8885  -20.6063  -49.9019 H         1 UNK         0.0600 
    225 H225       -3.4235  -22.0165  -53.3576 H         1 UNK         0.3000 
    226 H226       -2.8739  -19.3448  -53.9482 H         1 UNK         0.0600 
    227 H227       -2.2839  -21.8635  -55.5943 H         1 UNK         0.0600 
    228 H228       -3.8025  -20.9652  -55.5749 H         1 UNK         0.0600 
    229 H229       -2.3531  -20.2257  -56.2345 H         1 UNK         0.0600 
    230 H230       -0.5786  -21.8359  -53.0061 H         1 UNK         0.3000 
    231 H231        1.8112  -20.6001  -53.9994 H         1 UNK         0.0600 
    232 H232        1.3479  -22.6135  -51.7420 H         1 UNK         0.0600 
    233 H233        2.9243  -22.1843  -52.3943 H         1 UNK         0.0600 
    234 H234        1.7412  -22.9862  -53.4164 H         1 UNK         0.0600 
    235 H235       -0.2134  -19.8945  -51.2432 H         1 UNK         0.3000 
    236 H236        1.7948  -17.9771  -50.1139 H         1 UNK         0.0600 
    237 H237        0.8765  -19.3876  -48.3508 H         1 UNK         0.0600 
    238 H238        0.1046  -17.8326  -48.2377 H         1 UNK         0.0600 
    239 H239       -0.7723  -19.1815  -48.9403 H         1 UNK         0.0600 
    240 H240       -1.6581  -18.3627  -50.9875 H         1 UNK         0.3000 
    241 H241       -2.1477  -15.5464  -50.7111 H         1 UNK         0.0600 
    242 H242       -1.7540  -16.0065  -54.6727 H         1 UNK         0.3800 
    243 H243       -1.0841  -17.1745  -53.5681 H         1 UNK         0.3800 
    244 H244       -4.0834  -17.7661  -51.5053 H         1 UNK         0.0800 
    245 H245       -4.5269  -16.1737  -50.9492 H         1 UNK         0.0800 
    246 H246       -5.2434  -15.9565  -48.1986 H         1 UNK         0.0800 
    247 H247       -3.7795  -15.1862  -48.7518 H         1 UNK         0.0800 
@<TRIPOS>BOND
     1    1    2 1    
     2    1  127 1    
     3    1  128 1    
     4    1  129 1    
     5    2    3 2    
     6    2    4 am   BACKBONE|DICT|INTERRES
     7    4    5 1    
     8    4  130 1    
     9    5    6 1    
    10    5   65 1    
    11    5  131 1    
    12    6    7 1    
    13    6  132 1    
    14    6  133 1    
    15    7    8 1    
    16    8    9 1    
    17    8  134 1    
    18    8  135 1    
    19    9   10 ar   
    20    9   14 ar   
    21   10   11 ar   
    22   10  136 1    
    23   11   12 ar   
    24   11  126 1    
    25   12   13 ar   
    26   12  137 1    
    27   13   14 ar   
    28   13   15 1    
    29   14  138 1    
    30   15   16 1    
    31   15  139 1    
    32   15  140 1    
    33   16   17 1    
    34   17   18 1    
    35   17  141 1    
    36   17  142 1    
    37   18   19 1    
    38   18   67 1    
    39   18  143 1    
    40   19   20 am   BACKBONE|DICT|INTERRES
    41   19  144 1    
    42   20   21 2    
    43   20   22 1    
    44   22   23 1    
    45   22   24 1    
    46   22  145 1    
    47   23  146 1    
    48   23  147 1    
    49   23  148 1    
    50   24   25 am   BACKBONE|DICT|INTERRES
    51   24  149 1    
    52   25   26 2    
    53   25   27 1    
    54   27   28 1    
    55   27   29 1    
    56   27  150 1    
    57   28  151 1    
    58   28  152 1    
    59   28  153 1    
    60   29   30 am   BACKBONE|DICT|INTERRES
    61   29  154 1    
    62   30   31 2    
    63   30   32 1    
    64   32   33 1    
    65   32   34 1    
    66   32  155 1    
    67   33  156 1    
    68   33  157 1    
    69   33  158 1    
    70   34   35 am   BACKBONE|DICT|INTERRES
    71   34  159 1    
    72   35   36 2    
    73   35   37 1    
    74   37   38 1    
    75   37   39 1    
    76   37  160 1    
    77   38  161 1    
    78   38  162 1    
    79   38  163 1    
    80   39   40 am   BACKBONE|DICT|INTERRES
    81   39  164 1    
    82   40   41 2    
    83   40   42 1    
    84   42   43 1    
    85   42   44 1    
    86   42  165 1    
    87   43  166 1    
    88   43  167 1    
    89   43  168 1    
    90   44   45 am   BACKBONE|DICT|INTERRES
    91   44  169 1    
    92   45   46 2    
    93   45   47 1    
    94   47   48 1    
    95   47   49 1    
    96   47  170 1    
    97   48  171 1    
    98   48  172 1    
    99   48  173 1    
   100   49   50 am   BACKBONE|DICT|INTERRES
   101   49  174 1    
   102   50   51 2    
   103   50   52 1    
   104   52   53 1    
   105   52   54 1    
   106   52  175 1    
   107   53  176 1    
   108   53  177 1    
   109   53  178 1    
   110   54   55 am   BACKBONE|DICT|INTERRES
   111   54  179 1    
   112   55   56 2    
   113   55   57 1    
   114   57   58 1    
   115   57   59 1    
   116   57  180 1    
   117   58  181 1    
   118   58  182 1    
   119   58  183 1    
   120   59   60 am   BACKBONE|DICT|INTERRES
   121   59  184 1    
   122   60   61 2    
   123   60   62 1    
   124   62   63 1    
   125   62   64 1    
   126   62  185 1    
   127   63  186 1    
   128   63  187 1    
   129   63  188 1    
   130   64   65 am   BACKBONE|DICT|INTERRES
   131   64  189 1    
   132   65   66 2    
   133   67   68 2    
   134   67   69 am   BACKBONE|DICT|INTERRES
   135   69   70 1    
   136   69  190 1    
   137   70   71 1    
   138   70   72 1    
   139   70  191 1    
   140   71  192 1    
   141   71  193 1    
   142   71  194 1    
   143   72   73 2    
   144   72   74 am   BACKBONE|DICT|INTERRES
   145   74   75 1    
   146   74  195 1    
   147   75   76 1    
   148   75   77 1    
   149   75  196 1    
   150   76  197 1    
   151   76  198 1    
   152   76  199 1    
   153   77   78 2    
   154   77   79 am   BACKBONE|DICT|INTERRES
   155   79   80 1    
   156   79  200 1    
   157   80   81 1    
   158   80   82 1    
   159   80  201 1    
   160   81  202 1    
   161   81  203 1    
   162   81  204 1    
   163   82   83 2    
   164   82   84 am   BACKBONE|DICT|INTERRES
   165   84   85 1    
   166   84  205 1    
   167   85   86 1    
   168   85   87 1    
   169   85  206 1    
   170   86  207 1    
   171   86  208 1    
   172   86  209 1    
   173   87   88 2    
   174   87   89 am   BACKBONE|DICT|INTERRES
   175   89   90 1    
   176   89  210 1    
   177   90   91 1    
   178   90   92 1    
   179   90  211 1    
   180   91  212 1    
   181   91  213 1    
   182   91  214 1    
   183   92   93 2    
   184   92   94 am   BACKBONE|DICT|INTERRES
   185   94   95 1    
   186   94  215 1    
   187   95   96 1    
   188   95   97 1    
   189   95  216 1    
   190   96  217 1    
   191   96  218 1    
   192   96  219 1    
   193   97   98 2    
   194   97   99 am   BACKBONE|DICT|INTERRES
   195   99  100 1    
   196   99  220 1    
   197  100  101 1    
   198  100  102 1    
   199  100  221 1    
   200  101  222 1    
   201  101  223 1    
   202  101  224 1    
   203  102  103 2    
   204  102  104 am   BACKBONE|DICT|INTERRES
   205  104  105 1    
   206  104  225 1    
   207  105  106 1    
   208  105  107 1    
   209  105  226 1    
   210  106  227 1    
   211  106  228 1    
   212  106  229 1    
   213  107  108 2    
   214  107  109 am   BACKBONE|DICT|INTERRES
   215  109  110 1    
   216  109  230 1    
   217  110  111 1    
   218  110  112 1    
   219  110  231 1    
   220  111  232 1    
   221  111  233 1    
   222  111  234 1    
   223  112  113 2    
   224  112  114 am   BACKBONE|DICT|INTERRES
   225  114  115 1    
   226  114  235 1    
   227  115  116 1    
   228  115  117 1    
   229  115  236 1    
   230  116  237 1    
   231  116  238 1    
   232  116  239 1    
   233  117  118 2    
   234  117  119 am   BACKBONE|DICT|INTERRES
   235  119  120 1    
   236  119  240 1    
   237  120  121 1    
   238  120  124 1    
   239  120  241 1    
   240  121  122 am   BACKBONE|DICT|INTERRES
   241  121  123 2    
   242  122  242 1    
   243  122  243 1    
   244  124  125 1    
   245  124  244 1    
   246  124  245 1    
   247  125  126 1    
   248  126  246 1    
   249  126  247 1    
@<TRIPOS>SUBSTRUCTURE
     1 UNK         1 GROUP             0       ****    0 ROOT    
