@<TRIPOS>MOLECULE
3R540
247   249    1
SMALL
USER_CHARGES


@<TRIPOS>ATOM
      1 CA         -4.1787  -18.4809  -42.9696 C.3       0 UNK        -0.1800 
      2 C          -4.3534  -17.3477  -43.9687 C.2       0 UNK         0.5000 
      3 O          -5.2854  -17.3742  -44.7721 O.2       0 UNK        -0.5000 
      4 N          -3.4614  -16.3563  -43.9224 N.am      1 UNK        -0.5000 
      5 CA         -3.4846  -15.1548  -44.7559 C.3       1 UNK         0.1400 
      6 C6         -2.9909  -15.3998  -46.2110 C.3       23 UNK        -0.0398 
      7 S7         -1.2912  -16.0535  -46.3537 S.3       23 UNK        -0.2404 
      8 C8         -1.5821  -17.8489  -46.3250 C.3       23 UNK        -0.0205 
      9 C9         -0.9775  -18.5308  -47.5387 C.ar      23 UNK        -0.0193 
     10 C10        -1.6644  -18.5268  -48.7549 C.ar      23 UNK        -0.1150 
     11 C11        -1.1123  -19.1376  -49.8839 C.ar      23 UNK        -0.0193 
     12 C12         0.1401  -19.7516  -49.7867 C.ar      23 UNK        -0.1150 
     13 C13         0.8429  -19.7525  -48.5788 C.ar      23 UNK        -0.0193 
     14 C14         0.2721  -19.1499  -47.4530 C.ar      23 UNK        -0.1150 
     15 C15         2.2456  -20.3422  -48.5165 C.3       23 UNK        -0.0205 
     16 S16         2.2488  -22.1547  -48.3821 S.3       23 UNK        -0.2404 
     17 C17         1.7207  -22.3826  -46.6518 C.3       23 UNK        -0.0398 
     18 CA          0.6325  -23.4640  -46.4751 C.3       11 UNK         0.1400 
     19 N           0.4213  -23.7696  -45.0597 N.am      11 UNK        -0.5000 
     20 C          -0.2454  -24.8346  -44.5944 C.2       10 UNK         0.5000 
     21 O          -0.7245  -25.7124  -45.3111 O.2       10 UNK        -0.5000 
     22 CA         -0.4556  -24.8905  -43.0702 C.3       10 UNK         0.1400 
     23 CB          0.7906  -25.4500  -42.3683 C.3       10 UNK        -0.1800 
     24 N          -0.7827  -23.5761  -42.5120 N.am      10 UNK        -0.5000 
     25 C          -1.9123  -22.9080  -42.7850 C.2       9 UNK         0.5000 
     26 O          -2.8179  -23.3630  -43.4811 O.2       9 UNK        -0.5000 
     27 CA         -2.0378  -21.4783  -42.2322 C.3       9 UNK         0.1400 
     28 CB         -2.7513  -21.4792  -40.8730 C.3       9 UNK        -0.1800 
     29 N          -0.7573  -20.7790  -42.1108 N.am      9 UNK        -0.5000 
     30 C           0.0127  -20.4131  -43.1438 C.2       8 UNK         0.5000 
     31 O          -0.2546  -20.6649  -44.3207 O.2       8 UNK        -0.5000 
     32 CA          1.3233  -19.6852  -42.7909 C.3       8 UNK         0.1400 
     33 CB          2.5357  -20.4521  -43.3423 C.3       8 UNK        -0.1800 
     34 N           1.3860  -18.3039  -43.2681 N.am      8 UNK        -0.5000 
     35 C           0.5169  -17.3187  -43.0113 C.2       7 UNK         0.5000 
     36 O          -0.5341  -17.4765  -42.3892 O.2       7 UNK        -0.5000 
     37 CA          0.8796  -15.9024  -43.5053 C.3       7 UNK         0.1400 
     38 CB          1.5782  -15.0968  -42.3953 C.3       7 UNK        -0.1800 
     39 N           1.6369  -15.8230  -44.7623 N.am      7 UNK        -0.5000 
     40 C           2.8902  -16.2090  -45.0394 C.2       6 UNK         0.5000 
     41 O           3.6072  -16.8265  -44.2519 O.2       6 UNK        -0.5000 
     42 CA          3.4383  -15.8564  -46.4386 C.3       6 UNK         0.1400 
     43 CB          3.4456  -17.0916  -47.3480 C.3       6 UNK        -0.1800 
     44 N           2.7027  -14.7812  -47.1118 N.am      6 UNK        -0.5000 
     45 C           2.7474  -13.4920  -46.7516 C.2       5 UNK         0.5000 
     46 O           3.4475  -13.0796  -45.8237 O.2       5 UNK        -0.5000 
     47 CA          1.8842  -12.5104  -47.5720 C.3       5 UNK         0.1400 
     48 CB          0.5026  -13.0894  -47.9348 C.3       5 UNK        -0.1800 
     49 N           1.6810  -11.2819  -46.8105 N.am      5 UNK        -0.5000 
     50 C           2.3441  -10.1317  -46.9878 C.2       4 UNK         0.5000 
     51 O           3.1465   -9.9384  -47.9025 O.2       4 UNK        -0.5000 
     52 CA          2.0646   -8.9959  -45.9799 C.3       4 UNK         0.1400 
     53 CB          1.1145   -7.9557  -46.5938 C.3       4 UNK        -0.1800 
     54 N           1.4850   -9.4756  -44.7243 N.am      4 UNK        -0.5000 
     55 C           2.1557  -10.1339  -43.7683 C.2       3 UNK         0.5000 
     56 O           3.3775  -10.2845  -43.7740 O.2       3 UNK        -0.5000 
     57 CA          1.3222  -10.7334  -42.6152 C.3       3 UNK         0.1400 
     58 CB          1.4758   -9.8864  -41.3424 C.3       3 UNK        -0.1800 
     59 N          -0.1072  -10.8768  -42.9184 N.am      3 UNK        -0.5000 
     60 C          -0.6241  -11.6930  -43.8466 C.2       2 UNK         0.5000 
     61 O           0.0553  -12.4189  -44.5745 O.2       2 UNK        -0.5000 
     62 CA         -2.1493  -11.6055  -44.0441 C.3       2 UNK         0.1400 
     63 CB         -2.4887  -10.4260  -44.9700 C.3       2 UNK        -0.1800 
     64 N          -2.7355  -12.8214  -44.6103 N.am      2 UNK        -0.5000 
     65 C          -2.7574  -14.0177  -44.0090 C.2       1 UNK         0.5000 
     66 O          -2.2752  -14.2269  -42.8914 O.2       1 UNK        -0.5000 
     67 C          -0.6946  -23.0893  -47.1655 C.2       11 UNK         0.5000 
     68 O          -0.9451  -23.5544  -48.2775 O.2       11 UNK        -0.5000 
     69 N          -1.5403  -22.3134  -46.4709 N.am      12 UNK        -0.5000 
     70 CA         -2.8880  -21.9495  -46.9090 C.3       12 UNK         0.1400 
     71 CB         -3.5041  -20.9626  -45.9044 C.3       12 UNK        -0.1800 
     72 C          -3.7991  -23.1800  -47.0831 C.2       12 UNK         0.5000 
     73 O          -4.4760  -23.2943  -48.1035 O.2       12 UNK        -0.5000 
     74 N          -3.7751  -24.0857  -46.0943 N.am      13 UNK        -0.5000 
     75 CA         -4.5334  -25.3367  -46.0817 C.3       13 UNK         0.1400 
     76 CB         -4.4504  -25.9716  -44.6852 C.3       13 UNK        -0.1800 
     77 C          -4.0703  -26.3324  -47.1596 C.2       13 UNK         0.5000 
     78 O          -4.9120  -26.9573  -47.8063 O.2       13 UNK        -0.5000 
     79 N          -2.7479  -26.4545  -47.3440 N.am      14 UNK        -0.5000 
     80 CA         -2.1360  -27.2762  -48.3908 C.3       14 UNK         0.1400 
     81 CB         -0.6347  -27.4292  -48.1006 C.3       14 UNK        -0.1800 
     82 C          -2.3446  -26.6992  -49.8036 C.2       14 UNK         0.5000 
     83 O          -2.4171  -27.4651  -50.7652 O.2       14 UNK        -0.5000 
     84 N          -2.4162  -25.3633  -49.8904 N.am      15 UNK        -0.5000 
     85 CA         -2.4811  -24.5380  -51.0962 C.3       15 UNK         0.1400 
     86 CB         -3.8238  -24.7221  -51.8309 C.3       15 UNK        -0.1800 
     87 C          -1.2492  -24.7433  -51.9950 C.2       15 UNK         0.5000 
     88 O          -1.3819  -24.9100  -53.2077 O.2       15 UNK        -0.5000 
     89 N          -0.0628  -24.7434  -51.3700 N.am      16 UNK        -0.5000 
     90 CA          1.2185  -25.0831  -51.9969 C.3       16 UNK         0.1400 
     91 CB          2.3006  -25.1724  -50.9117 C.3       16 UNK        -0.1800 
     92 C           1.6526  -24.1254  -53.1244 C.2       16 UNK         0.5000 
     93 O           2.3748  -24.5471  -54.0285 O.2       16 UNK        -0.5000 
     94 N           1.1889  -22.8692  -53.0700 N.am      17 UNK        -0.5000 
     95 CA          1.3939  -21.8673  -54.1192 C.3       17 UNK         0.1400 
     96 CB          1.2652  -20.4666  -53.5021 C.3       17 UNK        -0.1800 
     97 C           0.4219  -22.0255  -55.3082 C.2       17 UNK         0.5000 
     98 O           0.6398  -21.3929  -56.3420 O.2       17 UNK        -0.5000 
     99 N          -0.6312  -22.8431  -55.1412 N.am      18 UNK        -0.5000 
    100 CA        -1.6992  -23.1464  -56.1025 C.3       18 UNK         0.1400 
    101 CB        -1.1355  -23.9105  -57.3187 C.3       18 UNK        -0.1800 
    102 C         -2.5532  -21.9240  -56.5073 C.2       18 UNK         0.5000 
    103 O         -3.1652  -21.9312  -57.5774 O.2       18 UNK        -0.5000 
    104 N         -2.5890  -20.8983  -55.6483 N.am      19 UNK        -0.5000 
    105 CA        -3.3636  -19.6773  -55.8432 C.3       19 UNK         0.1400 
    106 CB        -2.6145  -18.5092  -55.1815 C.3       19 UNK        -0.1800 
    107 C         -4.7641  -19.8224  -55.2295 C.2       19 UNK         0.5000 
    108 O         -4.9344  -20.5288  -54.2335 O.2       19 UNK        -0.5000 
    109 N         -5.7332  -19.0838  -55.7850 N.am      20 UNK        -0.5000 
    110 CA        -7.1006  -18.9792  -55.2606 C.3       20 UNK         0.1400 
    111 CB        -7.9821  -18.2741  -56.3029 C.3       20 UNK        -0.1800 
    112 C         -7.1783  -18.2489  -53.9024 C.2       20 UNK         0.5000 
    113 O         -8.1558  -18.4175  -53.1733 O.2       20 UNK        -0.5000 
    114 N         -6.1402  -17.4627  -53.5860 N.am      21 UNK        -0.5000 
    115 CA        -5.9599  -16.7518  -52.3219 C.3       21 UNK         0.1400 
    116 CB        -4.8786  -15.6773  -52.5209 C.3       21 UNK        -0.1800 
    117 C         -5.5884  -17.6675  -51.1375 C.2       21 UNK         0.5000 
    118 O         -5.6629  -17.2137  -49.9949 O.2       21 UNK        -0.5000 
    119 N         -5.1675  -18.9119  -51.4088 N.am      22 UNK        -0.5000 
    120 CA        -4.8061  -19.8971  -50.3820 C.3       22 UNK         0.1400 
    121 C         -6.0752  -20.4242  -49.6549 C.2       22 UNK         0.5000 
    122 N         -6.3207  -20.0036  -48.4212 N.am      22 UNK        -0.7600 
    123 O         -6.8374  -21.2164  -50.2031 O.2       22 UNK        -0.5000 
    124 C124       -3.9668  -21.0671  -50.9570 C.3       23 UNK        -0.0398 
    125 S125       -2.3974  -20.6866  -51.8279 S.3       23 UNK        -0.2404 
    126 C126       -1.8221  -19.0613  -51.2275 C.3       23 UNK        -0.0205 
    127 H127       -3.1565  -18.5262  -42.5928 H         1 UNK         0.0600 
    128 H128       -4.4141  -19.4350  -43.4399 H         1 UNK         0.0600 
    129 H129       -4.8520  -18.3435  -42.1238 H         1 UNK         0.0600 
    130 H130       -2.7321  -16.3506  -43.2181 H         1 UNK         0.3000 
    131 H131       -4.5244  -14.8263  -44.8181 H         1 UNK         0.0600 
    132 H132       -3.6772  -16.0759  -46.7220 H         1 UNK         0.0800 
    133 H133       -3.0379  -14.4766  -46.7895 H         1 UNK         0.0800 
    134 H134       -1.1660  -18.2629  -45.4057 H         1 UNK         0.0800 
    135 H135       -2.6504  -18.0595  -46.2965 H         1 UNK         0.0800 
    136 H136       -2.6142  -18.0162  -48.8230 H         1 UNK         0.1150 
    137 H137        0.5822  -20.2073  -50.6601 H         1 UNK         0.1150 
    138 H138        0.8085  -19.1366  -46.5145 H         1 UNK         0.1150 
    139 H139        2.7939  -20.0576  -49.4157 H         1 UNK         0.0800 
    140 H140        2.8037  -19.9243  -47.6785 H         1 UNK         0.0800 
    141 H141        1.3807  -21.4353  -46.2368 H         1 UNK         0.0800 
    142 H142        2.6082  -22.6569  -46.0801 H         1 UNK         0.0800 
    143 H143        0.9953  -24.3785  -46.9498 H         1 UNK         0.0600 
    144 H144        0.7285  -23.0718  -44.3994 H         1 UNK         0.3000 
    145 H145       -1.2921  -25.5643  -42.8725 H         1 UNK         0.0600 
    146 H146        0.6229  -25.5599  -41.2967 H         1 UNK         0.0600 
    147 H147        1.0476  -26.4357  -42.7586 H         1 UNK         0.0600 
    148 H148        1.6588  -24.8048  -42.5080 H         1 UNK         0.0600 
    149 H149       -0.0918  -23.1396  -41.9199 H         1 UNK         0.3000 
    150 H150       -2.6515  -20.9202  -42.9389 H         1 UNK         0.0600 
    151 H151       -2.1699  -22.0018  -40.1125 H         1 UNK         0.0600 
    152 H152       -3.7218  -21.9728  -40.9422 H         1 UNK         0.0600 
    153 H153       -2.9304  -20.4628  -40.5217 H         1 UNK         0.0600 
    154 H154       -0.4728  -20.5252  -41.1757 H         1 UNK         0.3000 
    155 H155        1.4172  -19.6521  -41.7038 H         1 UNK         0.0600 
    156 H156        2.5716  -20.4167  -44.4312 H         1 UNK         0.0600 
    157 H157        2.5112  -21.5010  -43.0441 H         1 UNK         0.0600 
    158 H158        3.4689  -20.0307  -42.9679 H         1 UNK         0.0600 
    159 H159        2.2398  -18.0329  -43.7458 H         1 UNK         0.3000 
    160 H160       -0.0645  -15.4019  -43.7142 H         1 UNK         0.0600 
    161 H161        2.5226  -15.5510  -42.0946 H         1 UNK         0.0600 
    162 H162        0.9477  -15.0308  -41.5078 H         1 UNK         0.0600 
    163 H163        1.7842  -14.0791  -42.7249 H         1 UNK         0.0600 
    164 H164        1.1341  -15.3682  -45.5116 H         1 UNK         0.3000 
    165 H165        4.4724  -15.5320  -46.3038 H         1 UNK         0.0600 
    166 H166        3.9608  -16.8874  -48.2867 H         1 UNK         0.0600 
    167 H167        3.9591  -17.9278  -46.8718 H         1 UNK         0.0600 
    168 H168        2.4325  -17.4119  -47.5866 H         1 UNK         0.0600 
    169 H169        2.1134  -15.0535  -47.8852 H         1 UNK         0.3000 
    170 H170        2.4209  -12.2994  -48.4988 H         1 UNK         0.0600 
    171 H171        0.5854  -13.9527  -48.5955 H         1 UNK         0.0600 
    172 H172       -0.0492  -13.4010  -47.0481 H         1 UNK         0.0600 
    173 H173       -0.1054  -12.3501  -48.4564 H         1 UNK         0.0600 
    174 H174        1.1093  -11.3911  -45.9802 H         1 UNK         0.3000 
    175 H175        3.0156   -8.5060  -45.7607 H         1 UNK         0.0600 
    176 H176        0.1409   -8.3883  -46.8278 H         1 UNK         0.0600 
    177 H177        0.9561   -7.1168  -45.9157 H         1 UNK         0.0600 
    178 H178        1.5247   -7.5503  -47.5197 H         1 UNK         0.0600 
    179 H179        0.4867   -9.3757  -44.6205 H         1 UNK         0.3000 
    180 H180        1.7233  -11.7277  -42.4128 H         1 UNK         0.0600 
    181 H181        1.0732   -8.8817  -41.4769 H         1 UNK         0.0600 
    182 H182        2.5257   -9.7846  -41.0641 H         1 UNK         0.0600 
    183 H183        0.9617  -10.3456  -40.4978 H         1 UNK         0.0600 
    184 H184       -0.7335  -10.2988  -42.3762 H         1 UNK         0.3000 
    185 H185       -2.6133  -11.4335  -43.0706 H         1 UNK         0.0600 
    186 H186       -2.1163   -9.4844  -44.5646 H         1 UNK         0.0600 
    187 H187       -2.0492  -10.5533  -45.9606 H         1 UNK         0.0600 
    188 H188       -3.5666  -10.3173  -45.0927 H         1 UNK         0.0600 
    189 H189       -3.1404  -12.7260  -45.5293 H         1 UNK         0.3000 
    190 H190       -1.2260  -21.9238  -45.5889 H         1 UNK         0.3000 
    191 H191       -2.7890  -21.4455  -47.8726 H         1 UNK         0.0600 
    192 H192       -2.7768  -20.2264  -45.5701 H         1 UNK         0.0600 
    193 H193       -4.3399  -20.4249  -46.3512 H         1 UNK         0.0600 
    194 H194       -3.8839  -21.4657  -45.0156 H         1 UNK         0.0600 
    195 H195       -3.2331  -23.8799  -45.2591 H         1 UNK         0.3000 
    196 H196       -5.5790  -25.0940  -46.2820 H         1 UNK         0.0600 
    197 H197       -5.0156  -26.9035  -44.6441 H         1 UNK         0.0600 
    198 H198       -4.8631  -25.3072  -43.9258 H         1 UNK         0.0600 
    199 H199       -3.4205  -26.1978  -44.4065 H         1 UNK         0.0600 
    200 H200       -2.1142  -25.9584  -46.7247 H         1 UNK         0.3000 
    201 H201       -2.5935  -28.2673  -48.3625 H         1 UNK         0.0600 
    202 H202       -0.1503  -28.0491  -48.8561 H         1 UNK         0.0600 
    203 H203       -0.4665  -27.9037  -47.1337 H         1 UNK         0.0600 
    204 H204       -0.1269  -26.4638  -48.0924 H         1 UNK         0.0600 
    205 H205       -2.2699  -24.8360  -49.0358 H         1 UNK         0.3000 
    206 H206       -2.4255  -23.5077  -50.7510 H         1 UNK         0.0600 
    207 H207       -4.6638  -24.5311  -51.1627 H         1 UNK         0.0600 
    208 H208       -3.9088  -24.0258  -52.6662 H         1 UNK         0.0600 
    209 H209       -3.9335  -25.7301  -52.2313 H         1 UNK         0.0600 
    210 H210       -0.0510  -24.5685  -50.3736 H         1 UNK         0.3000 
    211 H211        1.1065  -26.0737  -52.4426 H         1 UNK         0.0600 
    212 H212        2.4736  -24.2056  -50.4408 H         1 UNK         0.0600 
    213 H213        3.2500  -25.5042  -51.3340 H         1 UNK         0.0600 
    214 H214        2.0252  -25.8835  -50.1324 H         1 UNK         0.0600 
    215 H215        0.6064  -22.6051  -52.2889 H         1 UNK         0.3000 
    216 H216        2.4080  -21.9685  -54.5117 H         1 UNK         0.0600 
    217 H217        1.4675  -19.6922  -54.2430 H         1 UNK         0.0600 
    218 H218        1.9747  -20.3265  -52.6865 H         1 UNK         0.0600 
    219 H219        0.2627  -20.2919  -53.1151 H         1 UNK         0.0600 
    220 H220       -0.7036  -23.3567  -54.2692 H         1 UNK         0.3000 
    221 H221       -2.3817  -23.8209  -55.5838 H         1 UNK         0.0600 
    222 H222       -0.4949  -23.2779  -57.9335 H         1 UNK         0.0600 
    223 H223       -0.5512  -24.7750  -57.0032 H         1 UNK         0.0600 
    224 H224       -1.9387  -24.2803  -57.9569 H         1 UNK         0.0600 
    225 H225       -2.1210  -20.9969  -54.7594 H         1 UNK         0.3000 
    226 H226       -3.4596  -19.4666  -56.9105 H         1 UNK         0.0600 
    227 H227       -1.6025  -18.4161  -55.5764 H         1 UNK         0.0600 
    228 H228       -3.1222  -17.5619  -55.3662 H         1 UNK         0.0600 
    229 H229       -2.5407  -18.6356  -54.1014 H         1 UNK         0.0600 
    230 H230       -5.5213  -18.5244  -56.5991 H         1 UNK         0.3000 
    231 H231       -7.4869  -19.9898  -55.1111 H         1 UNK         0.0600 
    232 H232       -7.6350  -17.2598  -56.5039 H         1 UNK         0.0600 
    233 H233       -9.0151  -18.2053  -55.9590 H         1 UNK         0.0600 
    234 H234       -7.9917  -18.8202  -57.2464 H         1 UNK         0.0600 
    235 H235       -5.3940  -17.3760  -54.2588 H         1 UNK         0.3000 
    236 H236       -6.8984  -16.2540  -52.0692 H         1 UNK         0.0600 
    237 H237       -5.1551  -14.9797  -53.3118 H         1 UNK         0.0600 
    238 H238       -4.7346  -15.0927  -51.6112 H         1 UNK         0.0600 
    239 H239       -3.9160  -16.1190  -52.7823 H         1 UNK         0.0600 
    240 H240       -5.1541  -19.2409  -52.3655 H         1 UNK         0.3000 
    241 H241       -4.1900  -19.3985  -49.6357 H         1 UNK         0.0600 
    242 H242       -7.1417  -20.3430  -47.9459 H         1 UNK         0.3800 
    243 H243       -5.7585  -19.2868  -47.9904 H         1 UNK         0.3800 
    244 H244       -3.7157  -21.7471  -50.1439 H         1 UNK         0.0800 
    245 H245       -4.5747  -21.6507  -51.6506 H         1 UNK         0.0800 
    246 H246       -1.1138  -18.6669  -51.9567 H         1 UNK         0.0800 
    247 H247       -2.6320  -18.3354  -51.2048 H         1 UNK         0.0800 
@<TRIPOS>BOND
     1    1    2 1    
     2    1  127 1    
     3    1  128 1    
     4    1  129 1    
     5    2    3 2    
     6    2    4 am   BACKBONE|DICT|INTERRES
     7    4    5 1    
     8    4  130 1    
     9    5    6 1    
    10    5   65 1    
    11    5  131 1    
    12    6    7 1    
    13    6  132 1    
    14    6  133 1    
    15    7    8 1    
    16    8    9 1    
    17    8  134 1    
    18    8  135 1    
    19    9   10 ar   
    20    9   14 ar   
    21   10   11 ar   
    22   10  136 1    
    23   11   12 ar   
    24   11  126 1    
    25   12   13 ar   
    26   12  137 1    
    27   13   14 ar   
    28   13   15 1    
    29   14  138 1    
    30   15   16 1    
    31   15  139 1    
    32   15  140 1    
    33   16   17 1    
    34   17   18 1    
    35   17  141 1    
    36   17  142 1    
    37   18   19 1    
    38   18   67 1    
    39   18  143 1    
    40   19   20 am   BACKBONE|DICT|INTERRES
    41   19  144 1    
    42   20   21 2    
    43   20   22 1    
    44   22   23 1    
    45   22   24 1    
    46   22  145 1    
    47   23  146 1    
    48   23  147 1    
    49   23  148 1    
    50   24   25 am   BACKBONE|DICT|INTERRES
    51   24  149 1    
    52   25   26 2    
    53   25   27 1    
    54   27   28 1    
    55   27   29 1    
    56   27  150 1    
    57   28  151 1    
    58   28  152 1    
    59   28  153 1    
    60   29   30 am   BACKBONE|DICT|INTERRES
    61   29  154 1    
    62   30   31 2    
    63   30   32 1    
    64   32   33 1    
    65   32   34 1    
    66   32  155 1    
    67   33  156 1    
    68   33  157 1    
    69   33  158 1    
    70   34   35 am   BACKBONE|DICT|INTERRES
    71   34  159 1    
    72   35   36 2    
    73   35   37 1    
    74   37   38 1    
    75   37   39 1    
    76   37  160 1    
    77   38  161 1    
    78   38  162 1    
    79   38  163 1    
    80   39   40 am   BACKBONE|DICT|INTERRES
    81   39  164 1    
    82   40   41 2    
    83   40   42 1    
    84   42   43 1    
    85   42   44 1    
    86   42  165 1    
    87   43  166 1    
    88   43  167 1    
    89   43  168 1    
    90   44   45 am   BACKBONE|DICT|INTERRES
    91   44  169 1    
    92   45   46 2    
    93   45   47 1    
    94   47   48 1    
    95   47   49 1    
    96   47  170 1    
    97   48  171 1    
    98   48  172 1    
    99   48  173 1    
   100   49   50 am   BACKBONE|DICT|INTERRES
   101   49  174 1    
   102   50   51 2    
   103   50   52 1    
   104   52   53 1    
   105   52   54 1    
   106   52  175 1    
   107   53  176 1    
   108   53  177 1    
   109   53  178 1    
   110   54   55 am   BACKBONE|DICT|INTERRES
   111   54  179 1    
   112   55   56 2    
   113   55   57 1    
   114   57   58 1    
   115   57   59 1    
   116   57  180 1    
   117   58  181 1    
   118   58  182 1    
   119   58  183 1    
   120   59   60 am   BACKBONE|DICT|INTERRES
   121   59  184 1    
   122   60   61 2    
   123   60   62 1    
   124   62   63 1    
   125   62   64 1    
   126   62  185 1    
   127   63  186 1    
   128   63  187 1    
   129   63  188 1    
   130   64   65 am   BACKBONE|DICT|INTERRES
   131   64  189 1    
   132   65   66 2    
   133   67   68 2    
   134   67   69 am   BACKBONE|DICT|INTERRES
   135   69   70 1    
   136   69  190 1    
   137   70   71 1    
   138   70   72 1    
   139   70  191 1    
   140   71  192 1    
   141   71  193 1    
   142   71  194 1    
   143   72   73 2    
   144   72   74 am   BACKBONE|DICT|INTERRES
   145   74   75 1    
   146   74  195 1    
   147   75   76 1    
   148   75   77 1    
   149   75  196 1    
   150   76  197 1    
   151   76  198 1    
   152   76  199 1    
   153   77   78 2    
   154   77   79 am   BACKBONE|DICT|INTERRES
   155   79   80 1    
   156   79  200 1    
   157   80   81 1    
   158   80   82 1    
   159   80  201 1    
   160   81  202 1    
   161   81  203 1    
   162   81  204 1    
   163   82   83 2    
   164   82   84 am   BACKBONE|DICT|INTERRES
   165   84   85 1    
   166   84  205 1    
   167   85   86 1    
   168   85   87 1    
   169   85  206 1    
   170   86  207 1    
   171   86  208 1    
   172   86  209 1    
   173   87   88 2    
   174   87   89 am   BACKBONE|DICT|INTERRES
   175   89   90 1    
   176   89  210 1    
   177   90   91 1    
   178   90   92 1    
   179   90  211 1    
   180   91  212 1    
   181   91  213 1    
   182   91  214 1    
   183   92   93 2    
   184   92   94 am   BACKBONE|DICT|INTERRES
   185   94   95 1    
   186   94  215 1    
   187   95   96 1    
   188   95   97 1    
   189   95  216 1    
   190   96  217 1    
   191   96  218 1    
   192   96  219 1    
   193   97   98 2    
   194   97   99 am   BACKBONE|DICT|INTERRES
   195   99  100 1    
   196   99  220 1    
   197  100  101 1    
   198  100  102 1    
   199  100  221 1    
   200  101  222 1    
   201  101  223 1    
   202  101  224 1    
   203  102  103 2    
   204  102  104 am   BACKBONE|DICT|INTERRES
   205  104  105 1    
   206  104  225 1    
   207  105  106 1    
   208  105  107 1    
   209  105  226 1    
   210  106  227 1    
   211  106  228 1    
   212  106  229 1    
   213  107  108 2    
   214  107  109 am   BACKBONE|DICT|INTERRES
   215  109  110 1    
   216  109  230 1    
   217  110  111 1    
   218  110  112 1    
   219  110  231 1    
   220  111  232 1    
   221  111  233 1    
   222  111  234 1    
   223  112  113 2    
   224  112  114 am   BACKBONE|DICT|INTERRES
   225  114  115 1    
   226  114  235 1    
   227  115  116 1    
   228  115  117 1    
   229  115  236 1    
   230  116  237 1    
   231  116  238 1    
   232  116  239 1    
   233  117  118 2    
   234  117  119 am   BACKBONE|DICT|INTERRES
   235  119  120 1    
   236  119  240 1    
   237  120  121 1    
   238  120  124 1    
   239  120  241 1    
   240  121  122 am   BACKBONE|DICT|INTERRES
   241  121  123 2    
   242  122  242 1    
   243  122  243 1    
   244  124  125 1    
   245  124  244 1    
   246  124  245 1    
   247  125  126 1    
   248  126  246 1    
   249  126  247 1    
@<TRIPOS>SUBSTRUCTURE
     1 UNK         1 GROUP             0       ****    0 ROOT    
