@<TRIPOS>MOLECULE
3R540
247   249    1
SMALL
USER_CHARGES


@<TRIPOS>ATOM
      1 CA         -3.1684  -16.4624  -50.3876 C.3       0 UNK        -0.1800 
      2 C          -2.0421  -15.4579  -50.5782 C.2       0 UNK         0.5000 
      3 O          -1.4588  -15.3895  -51.6598 O.2       0 UNK        -0.5000 
      4 N          -1.7512  -14.6781  -49.5344 N.am      1 UNK        -0.5000 
      5 CA         -0.7513  -13.6131  -49.5025 C.3       1 UNK         0.1400 
      6 C6          0.7004  -14.1352  -49.3269 C.3       23 UNK        -0.0398 
      7 S7          0.9481  -15.1784  -47.8412 S.3       23 UNK        -0.2404 
      8 C8          2.2340  -16.3447  -48.3892 C.3       23 UNK        -0.0205 
      9 C9          1.8083  -17.1472  -49.6080 C.ar      23 UNK        -0.0193 
     10 C10         2.5125  -17.0309  -50.8094 C.ar      23 UNK        -0.1150 
     11 C11         2.0876  -17.7171  -51.9509 C.ar      23 UNK        -0.0193 
     12 C12         0.9663  -18.5490  -51.8715 C.ar      23 UNK        -0.1150 
     13 C13         0.2664  -18.6886  -50.6699 C.ar      23 UNK        -0.0193 
     14 C14         0.6927  -17.9844  -49.5422 C.ar      23 UNK        -0.1150 
     15 C15        -0.9663  -19.5742  -50.5950 C.3       23 UNK        -0.0205 
     16 S16        -0.5655  -21.2582  -50.0485 S.3       23 UNK        -0.2404 
     17 C17        -0.3387  -20.9946  -48.2576 C.3       23 UNK        -0.0398 
     18 CA         -0.5986  -22.2729  -47.4310 C.3       11 UNK         0.1400 
     19 N           0.0179  -22.1910  -46.1056 N.am      11 UNK        -0.5000 
     20 C           0.1480  -23.2214  -45.2592 C.2       10 UNK         0.5000 
     21 O          -0.2154  -24.3679  -45.5179 O.2       10 UNK        -0.5000 
     22 CA          0.7247  -22.9064  -43.8683 C.3       10 UNK         0.1400 
     23 CB          2.2519  -22.7553  -43.9250 C.3       10 UNK        -0.1800 
     24 N           0.1237  -21.7072  -43.2836 N.am      10 UNK        -0.5000 
     25 C          -1.1737  -21.5985  -42.9632 C.2       9 UNK         0.5000 
     26 O          -1.9785  -22.5258  -43.0618 O.2       9 UNK        -0.5000 
     27 CA         -1.6644  -20.2164  -42.4935 C.3       9 UNK         0.1400 
     28 CB         -1.3711  -20.0149  -40.9996 C.3       9 UNK        -0.1800 
     29 N          -1.0897  -19.1102  -43.2628 N.am      9 UNK        -0.5000 
     30 C          -1.2982  -18.9003  -44.5712 C.2       8 UNK         0.5000 
     31 O          -2.0204  -19.6088  -45.2697 O.2       8 UNK        -0.5000 
     32 CA         -0.5298  -17.7377  -45.2253 C.3       8 UNK         0.1400 
     33 CB         -1.1856  -16.3892  -44.8910 C.3       8 UNK        -0.1800 
     34 N           0.8796  -17.7181  -44.8362 N.am      8 UNK        -0.5000 
     35 C           1.7527  -18.7047  -45.0847 C.2       7 UNK         0.5000 
     36 O           1.4788  -19.7138  -45.7339 O.2       7 UNK        -0.5000 
     37 CA          3.1462  -18.5713  -44.4469 C.3       7 UNK         0.1400 
     38 CB          4.0662  -17.6706  -45.2847 C.3       7 UNK        -0.1800 
     39 N           3.0676  -18.0603  -43.0788 N.am      7 UNK        -0.5000 
     40 C           2.5746  -18.7525  -42.0421 C.2       6 UNK         0.5000 
     41 O           2.1673  -19.9108  -42.1248 O.2       6 UNK        -0.5000 
     42 CA          2.4862  -18.0093  -40.6968 C.3       6 UNK         0.1400 
     43 CB          3.8328  -18.0599  -39.9599 C.3       6 UNK        -0.1800 
     44 N           2.0713  -16.6146  -40.8557 N.am      6 UNK        -0.5000 
     45 C           0.8557  -16.2317  -41.2717 C.2       5 UNK         0.5000 
     46 O          -0.0579  -17.0162  -41.5228 O.2       5 UNK        -0.5000 
     47 CA          0.6433  -14.7221  -41.4919 C.3       5 UNK         0.1400 
     48 CB          0.2133  -14.0402  -40.1848 C.3       5 UNK        -0.1800 
     49 N           1.8266  -14.0431  -42.0304 N.am      5 UNK        -0.5000 
     50 C           2.3736  -14.3118  -43.2226 C.2       4 UNK         0.5000 
     51 O           1.9520  -15.1812  -43.9863 O.2       4 UNK        -0.5000 
     52 CA          3.6277  -13.5055  -43.5991 C.3       4 UNK         0.1400 
     53 CB          4.8782  -14.1974  -43.0345 C.3       4 UNK        -0.1800 
     54 N           3.7785  -13.3911  -45.0516 N.am      4 UNK        -0.5000 
     55 C           3.1151  -12.5797  -45.8874 C.2       3 UNK         0.5000 
     56 O           3.2916  -12.6358  -47.1063 O.2       3 UNK        -0.5000 
     57 CA          2.1507  -11.5119  -45.3329 C.3       3 UNK         0.1400 
     58 CB          2.9172  -10.2362  -44.9296 C.3       3 UNK        -0.1800 
     59 N           1.1831  -11.1942  -46.3762 N.am      3 UNK        -0.5000 
     60 C           0.0165  -10.5601  -46.2141 C.2       2 UNK         0.5000 
     61 O          -0.3971  -10.1542  -45.1274 O.2       2 UNK        -0.5000 
     62 CA         -0.8336  -10.3393  -47.4810 C.3       2 UNK         0.1400 
     63 CB         -0.5172   -8.9721  -48.1070 C.3       2 UNK        -0.1800 
     64 N          -0.6328  -11.3851  -48.4879 N.am      2 UNK        -0.5000 
     65 C          -1.1484  -12.6179  -48.3970 C.2       1 UNK         0.5000 
     66 O          -1.9020  -12.9785  -47.4873 O.2       1 UNK        -0.5000 
     67 C          -2.1004  -22.6264  -47.3579 C.2       11 UNK         0.5000 
     68 O          -2.5750  -23.4087  -48.1797 O.2       11 UNK        -0.5000 
     69 N          -2.8184  -22.0991  -46.3554 N.am      12 UNK        -0.5000 
     70 CA         -4.2187  -22.4297  -46.0864 C.3       12 UNK         0.1400 
     71 CB         -4.7758  -21.5425  -44.9648 C.3       12 UNK        -0.1800 
     72 C          -4.4367  -23.9227  -45.7822 C.2       12 UNK         0.5000 
     73 O          -5.4089  -24.5023  -46.2674 O.2       12 UNK        -0.5000 
     74 N          -3.5089  -24.5262  -45.0301 N.am      13 UNK        -0.5000 
     75 CA         -3.4873  -25.9620  -44.7658 C.3       13 UNK         0.1400 
     76 CB         -2.5767  -26.2460  -43.5606 C.3       13 UNK        -0.1800 
     77 C          -3.0480  -26.7749  -45.9988 C.2       13 UNK         0.5000 
     78 O          -3.7196  -27.7422  -46.3598 O.2       13 UNK        -0.5000 
     79 N          -1.9233  -26.3800  -46.6107 N.am      14 UNK        -0.5000 
     80 CA         -1.2591  -27.1227  -47.6826 C.3       14 UNK         0.1400 
     81 CB          0.1759  -26.5989  -47.8472 C.3       14 UNK        -0.1800 
     82 C          -1.9938  -27.0870  -49.0340 C.2       14 UNK         0.5000 
     83 O          -2.0198  -28.1046  -49.7276 O.2       14 UNK        -0.5000 
     84 N          -2.5560  -25.9274  -49.3949 N.am      15 UNK        -0.5000 
     85 CA         -3.1533  -25.6557  -50.7028 C.3       15 UNK         0.1400 
     86 CB         -2.4195  -24.4728  -51.3616 C.3       15 UNK        -0.1800 
     87 C          -4.6710  -25.4256  -50.6028 C.2       15 UNK         0.5000 
     88 O          -5.2114  -24.6265  -51.3688 O.2       15 UNK        -0.5000 
     89 N          -5.3269  -26.1431  -49.6768 N.am      16 UNK        -0.5000 
     90 CA         -6.7805  -26.2924  -49.5237 C.3       16 UNK         0.1400 
     91 CB         -7.3260  -27.2006  -50.6449 C.3       16 UNK        -0.1800 
     92 C          -7.5313  -24.9478  -49.4418 C.2       16 UNK         0.5000 
     93 O          -8.2572  -24.5823  -50.3683 O.2       16 UNK        -0.5000 
     94 N          -7.3027  -24.2250  -48.3379 N.am      17 UNK        -0.5000 
     95 CA         -7.7848  -22.8683  -48.0572 C.3       17 UNK         0.1400 
     96 CB         -9.3268  -22.7929  -48.0429 C.3       17 UNK        -0.1800 
     97 C          -7.1226  -21.8075  -48.9607 C.2       17 UNK         0.5000 
     98 O          -7.7399  -20.7858  -49.2647 O.2       17 UNK        -0.5000 
     99 N          -5.8588  -22.0661  -49.3340 N.am      18 UNK        -0.5000 
    100 CA        -4.9580  -21.2002  -50.0977 C.3       18 UNK         0.1400 
    101 CB        -4.6160  -19.9267  -49.2955 C.3       18 UNK        -0.1800 
    102 C         -5.4818  -20.9083  -51.5169 C.2       18 UNK         0.5000 
    103 O         -5.4905  -19.7563  -51.9538 O.2       18 UNK        -0.5000 
    104 N         -5.9136  -21.9692  -52.2134 N.am      19 UNK        -0.5000 
    105 CA        -6.4255  -21.9109  -53.5835 C.3       19 UNK         0.1400 
    106 CB        -7.0623  -23.2617  -53.9427 C.3       19 UNK        -0.1800 
    107 C         -5.3367  -21.5311  -54.6044 C.2       19 UNK         0.5000 
    108 O         -5.6180  -20.8059  -55.5592 O.2       19 UNK        -0.5000 
    109 N         -4.1022  -21.9886  -54.3589 N.am      20 UNK        -0.5000 
    110 CA        -2.9042  -21.6493  -55.1257 C.3       20 UNK         0.1400 
    111 CB        -1.9404  -22.8497  -55.0928 C.3       20 UNK        -0.1800 
    112 C         -2.2640  -20.3560  -54.5809 C.2       20 UNK         0.5000 
    113 O         -1.1121  -20.3733  -54.1460 O.2       20 UNK        -0.5000 
    114 N         -3.0409  -19.2649  -54.5765 N.am      21 UNK        -0.5000 
    115 CA        -2.6445  -17.9403  -54.0945 C.3       21 UNK         0.1400 
    116 CB        -3.8765  -17.0228  -54.0937 C.3       21 UNK        -0.1800 
    117 C         -1.4978  -17.3159  -54.9128 C.2       21 UNK         0.5000 
    118 O         -1.3440  -17.6197  -56.0993 O.2       21 UNK        -0.5000 
    119 N         -0.7228  -16.4475  -54.2566 N.am      22 UNK        -0.5000 
    120 CA         0.4207  -15.7326  -54.8374 C.3       22 UNK         0.1400 
    121 C          0.0115  -14.6340  -55.8602 C.2       22 UNK         0.5000 
    122 N          0.9204  -14.2400  -56.7419 N.am      22 UNK        -0.7600 
    123 O         -1.1002  -14.1093  -55.8446 O.2       22 UNK        -0.5000 
    124 C124        1.3434  -15.1711  -53.7170 C.3       23 UNK        -0.0398 
    125 S125        3.0457  -15.8226  -53.8002 S.3       23 UNK        -0.2404 
    126 C126        2.8291  -17.5608  -53.2741 C.3       23 UNK        -0.0205 
    127 H127       -3.3038  -16.7184  -49.3365 H         1 UNK         0.0600 
    128 H128       -4.1042  -16.0531  -50.7679 H         1 UNK         0.0600 
    129 H129       -2.9559  -17.3783  -50.9348 H         1 UNK         0.0600 
    130 H130       -2.2773  -14.7491  -48.6722 H         1 UNK         0.3000 
    131 H131       -0.8102  -13.0728  -50.4499 H         1 UNK         0.0600 
    132 H132        0.9720  -14.6974  -50.2191 H         1 UNK         0.0800 
    133 H133        1.4088  -13.3066  -49.2843 H         1 UNK         0.0800 
    134 H134        2.4463  -17.0352  -47.5748 H         1 UNK         0.0800 
    135 H135        3.1555  -15.7928  -48.5807 H         1 UNK         0.0800 
    136 H136        3.3756  -16.3827  -50.8674 H         1 UNK         0.1150 
    137 H137        0.6324  -19.0855  -52.7478 H         1 UNK         0.1150 
    138 H138        0.1467  -18.0693  -48.6142 H         1 UNK         0.1150 
    139 H139       -1.6944  -19.1331  -49.9163 H         1 UNK         0.0800 
    140 H140       -1.4487  -19.6322  -51.5699 H         1 UNK         0.0800 
    141 H141       -0.9683  -20.1753  -47.9063 H         1 UNK         0.0800 
    142 H142        0.6921  -20.6656  -48.1195 H         1 UNK         0.0800 
    143 H143       -0.1044  -23.1013  -47.9430 H         1 UNK         0.0600 
    144 H144        0.3774  -21.2812  -45.8282 H         1 UNK         0.3000 
    145 H145        0.4929  -23.7497  -43.2143 H         1 UNK         0.0600 
    146 H146        2.6693  -22.6038  -42.9294 H         1 UNK         0.0600 
    147 H147        2.7170  -23.6502  -44.3402 H         1 UNK         0.0600 
    148 H148        2.5531  -21.9110  -44.5449 H         1 UNK         0.0600 
    149 H149        0.7415  -20.9194  -43.1167 H         1 UNK         0.3000 
    150 H150       -2.7470  -20.1870  -42.6317 H         1 UNK         0.0600 
    151 H151       -1.8029  -20.8202  -40.4040 H         1 UNK         0.0600 
    152 H152       -1.7968  -19.0789  -40.6378 H         1 UNK         0.0600 
    153 H153       -0.2998  -19.9945  -40.7985 H         1 UNK         0.0600 
    154 H154       -0.5197  -18.4470  -42.7455 H         1 UNK         0.3000 
    155 H155       -0.5704  -17.8745  -46.3074 H         1 UNK         0.0600 
    156 H156       -1.2142  -16.2074  -43.8173 H         1 UNK         0.0600 
    157 H157       -2.2126  -16.3564  -45.2563 H         1 UNK         0.0600 
    158 H158       -0.6502  -15.5601  -45.3528 H         1 UNK         0.0600 
    159 H159        1.2083  -16.8860  -44.3534 H         1 UNK         0.3000 
    160 H160        3.5935  -19.5669  -44.4113 H         1 UNK         0.0600 
    161 H161        5.0543  -17.5866  -44.8322 H         1 UNK         0.0600 
    162 H162        3.6617  -16.6644  -45.3960 H         1 UNK         0.0600 
    163 H163        4.2042  -18.0833  -46.2846 H         1 UNK         0.0600 
    164 H164        3.3266  -17.0960  -42.9385 H         1 UNK         0.3000 
    165 H165        1.7410  -18.5192  -40.0824 H         1 UNK         0.0600 
    166 H166        3.7595  -17.6016  -38.9735 H         1 UNK         0.0600 
    167 H167        4.1588  -19.0907  -39.8146 H         1 UNK         0.0600 
    168 H168        4.6171  -17.5424  -40.5137 H         1 UNK         0.0600 
    169 H169        2.7626  -15.9049  -40.6646 H         1 UNK         0.3000 
    170 H170       -0.1651  -14.6064  -42.2168 H         1 UNK         0.0600 
    171 H171       -0.6784  -14.5146  -39.7725 H         1 UNK         0.0600 
    172 H172        0.9943  -14.0933  -39.4254 H         1 UNK         0.0600 
    173 H173       -0.0262  -12.9893  -40.3484 H         1 UNK         0.0600 
    174 H174        2.2356  -13.3269  -41.4473 H         1 UNK         0.3000 
    175 H175        3.5582  -12.5121  -43.1549 H         1 UNK         0.0600 
    176 H176        4.8244  -14.2865  -41.9487 H         1 UNK         0.0600 
    177 H177        5.7796  -13.6294  -43.2659 H         1 UNK         0.0600 
    178 H178        5.0038  -15.2019  -43.4407 H         1 UNK         0.0600 
    179 H179        4.3863  -14.0796  -45.4673 H         1 UNK         0.3000 
    180 H180        1.6059  -11.9075  -44.4757 H         1 UNK         0.0600 
    181 H181        3.4044   -9.7765  -45.7904 H         1 UNK         0.0600 
    182 H182        3.6930  -10.4483  -44.1942 H         1 UNK         0.0600 
    183 H183        2.2519   -9.4941  -44.4884 H         1 UNK         0.0600 
    184 H184        1.4492  -11.5320  -47.2924 H         1 UNK         0.3000 
    185 H185       -1.8838  -10.3384  -47.1803 H         1 UNK         0.0600 
    186 H186       -0.6804   -8.1673  -47.3889 H         1 UNK         0.0600 
    187 H187        0.5202   -8.9101  -48.4384 H         1 UNK         0.0600 
    188 H188       -1.1578   -8.7737  -48.9665 H         1 UNK         0.0600 
    189 H189       -0.0410  -11.1480  -49.2713 H         1 UNK         0.3000 
    190 H190       -2.3916  -21.3949  -45.7592 H         1 UNK         0.3000 
    191 H191       -4.7792  -22.1977  -46.9879 H         1 UNK         0.0600 
    192 H192       -4.2648  -21.7141  -44.0187 H         1 UNK         0.0600 
    193 H193       -5.8360  -21.7412  -44.8032 H         1 UNK         0.0600 
    194 H194       -4.6782  -20.4855  -45.2130 H         1 UNK         0.0600 
    195 H195       -2.7475  -23.9732  -44.6554 H         1 UNK         0.3000 
    196 H196       -4.4983  -26.2789  -44.5003 H         1 UNK         0.0600 
    197 H197       -2.5559  -27.3117  -43.3299 H         1 UNK         0.0600 
    198 H198       -2.9313  -25.7265  -42.6701 H         1 UNK         0.0600 
    199 H199       -1.5495  -25.9290  -43.7424 H         1 UNK         0.0600 
    200 H200       -1.4157  -25.5814  -46.2357 H         1 UNK         0.3000 
    201 H201       -1.1968  -28.1681  -47.3729 H         1 UNK         0.0600 
    202 H202        0.7413  -26.6992  -46.9205 H         1 UNK         0.0600 
    203 H203        0.1884  -25.5471  -48.1345 H         1 UNK         0.0600 
    204 H204        0.7114  -27.1564  -48.6167 H         1 UNK         0.0600 
    205 H205       -2.5148  -25.1287  -48.7635 H         1 UNK         0.3000 
    206 H206       -3.0277  -26.5161  -51.3625 H         1 UNK         0.0600 
    207 H207       -1.3468  -24.6568  -51.4209 H         1 UNK         0.0600 
    208 H208       -2.7761  -24.3111  -52.3788 H         1 UNK         0.0600 
    209 H209       -2.5674  -23.5455  -50.8101 H         1 UNK         0.0600 
    210 H210       -4.7655  -26.7208  -49.0663 H         1 UNK         0.3000 
    211 H211       -6.9458  -26.8048  -48.5746 H         1 UNK         0.0600 
    212 H212       -7.1744  -26.7615  -51.6319 H         1 UNK         0.0600 
    213 H213       -8.3962  -27.3721  -50.5231 H         1 UNK         0.0600 
    214 H214       -6.8381  -28.1753  -50.6345 H         1 UNK         0.0600 
    215 H215       -6.6621  -24.5945  -47.6371 H         1 UNK         0.3000 
    216 H216       -7.4481  -22.6416  -47.0447 H         1 UNK         0.0600 
    217 H217       -9.6644  -21.8339  -47.6483 H         1 UNK         0.0600 
    218 H218       -9.7545  -23.5710  -47.4108 H         1 UNK         0.0600 
    219 H219       -9.7516  -22.8978  -49.0413 H         1 UNK         0.0600 
    220 H220       -5.4773  -22.9652  -49.0770 H         1 UNK         0.3000 
    221 H221       -4.0297  -21.7572  -50.2282 H         1 UNK         0.0600 
    222 H222       -5.5014  -19.3311  -49.0737 H         1 UNK         0.0600 
    223 H223       -4.1278  -20.1703  -48.3521 H         1 UNK         0.0600 
    224 H224       -3.9374  -19.2877  -49.8557 H         1 UNK         0.0600 
    225 H225       -5.8493  -22.8950  -51.7951 H         1 UNK         0.3000 
    226 H226       -7.2024  -21.1447  -53.6219 H         1 UNK         0.0600 
    227 H227       -7.8639  -23.5159  -53.2485 H         1 UNK         0.0600 
    228 H228       -7.4926  -23.2374  -54.9446 H         1 UNK         0.0600 
    229 H229       -6.3315  -24.0710  -53.9169 H         1 UNK         0.0600 
    230 H230       -3.9631  -22.5469  -53.5297 H         1 UNK         0.3000 
    231 H231       -3.1737  -21.4688  -56.1685 H         1 UNK         0.0600 
    232 H232       -2.4172  -23.7505  -55.4792 H         1 UNK         0.0600 
    233 H233       -1.5912  -23.0610  -54.0816 H         1 UNK         0.0600 
    234 H234       -1.0608  -22.6586  -55.7088 H         1 UNK         0.0600 
    235 H235       -3.9759  -19.3486  -54.9534 H         1 UNK         0.3000 
    236 H236       -2.2986  -18.0543  -53.0671 H         1 UNK         0.0600 
    237 H237       -3.6265  -16.0325  -53.7103 H         1 UNK         0.0600 
    238 H238       -4.2820  -16.8944  -55.0980 H         1 UNK         0.0600 
    239 H239       -4.6666  -17.4249  -53.4590 H         1 UNK         0.0600 
    240 H240       -0.9660  -16.1842  -53.3042 H         1 UNK         0.3000 
    241 H241        0.9733  -16.4783  -55.4122 H         1 UNK         0.0600 
    242 H242        0.6805  -13.5201  -57.4061 H         1 UNK         0.3800 
    243 H243        1.8454  -14.6421  -56.7609 H         1 UNK         0.3800 
    244 H244        1.4099  -14.0820  -53.7507 H         1 UNK         0.0800 
    245 H245        0.9465  -15.3829  -52.7244 H         1 UNK         0.0800 
    246 H246        3.8121  -18.0237  -53.1804 H         1 UNK         0.0800 
    247 H247        2.3119  -18.1020  -54.0679 H         1 UNK         0.0800 
@<TRIPOS>BOND
     1    1    2 1    
     2    1  127 1    
     3    1  128 1    
     4    1  129 1    
     5    2    3 2    
     6    2    4 am   BACKBONE|DICT|INTERRES
     7    4    5 1    
     8    4  130 1    
     9    5    6 1    
    10    5   65 1    
    11    5  131 1    
    12    6    7 1    
    13    6  132 1    
    14    6  133 1    
    15    7    8 1    
    16    8    9 1    
    17    8  134 1    
    18    8  135 1    
    19    9   10 ar   
    20    9   14 ar   
    21   10   11 ar   
    22   10  136 1    
    23   11   12 ar   
    24   11  126 1    
    25   12   13 ar   
    26   12  137 1    
    27   13   14 ar   
    28   13   15 1    
    29   14  138 1    
    30   15   16 1    
    31   15  139 1    
    32   15  140 1    
    33   16   17 1    
    34   17   18 1    
    35   17  141 1    
    36   17  142 1    
    37   18   19 1    
    38   18   67 1    
    39   18  143 1    
    40   19   20 am   BACKBONE|DICT|INTERRES
    41   19  144 1    
    42   20   21 2    
    43   20   22 1    
    44   22   23 1    
    45   22   24 1    
    46   22  145 1    
    47   23  146 1    
    48   23  147 1    
    49   23  148 1    
    50   24   25 am   BACKBONE|DICT|INTERRES
    51   24  149 1    
    52   25   26 2    
    53   25   27 1    
    54   27   28 1    
    55   27   29 1    
    56   27  150 1    
    57   28  151 1    
    58   28  152 1    
    59   28  153 1    
    60   29   30 am   BACKBONE|DICT|INTERRES
    61   29  154 1    
    62   30   31 2    
    63   30   32 1    
    64   32   33 1    
    65   32   34 1    
    66   32  155 1    
    67   33  156 1    
    68   33  157 1    
    69   33  158 1    
    70   34   35 am   BACKBONE|DICT|INTERRES
    71   34  159 1    
    72   35   36 2    
    73   35   37 1    
    74   37   38 1    
    75   37   39 1    
    76   37  160 1    
    77   38  161 1    
    78   38  162 1    
    79   38  163 1    
    80   39   40 am   BACKBONE|DICT|INTERRES
    81   39  164 1    
    82   40   41 2    
    83   40   42 1    
    84   42   43 1    
    85   42   44 1    
    86   42  165 1    
    87   43  166 1    
    88   43  167 1    
    89   43  168 1    
    90   44   45 am   BACKBONE|DICT|INTERRES
    91   44  169 1    
    92   45   46 2    
    93   45   47 1    
    94   47   48 1    
    95   47   49 1    
    96   47  170 1    
    97   48  171 1    
    98   48  172 1    
    99   48  173 1    
   100   49   50 am   BACKBONE|DICT|INTERRES
   101   49  174 1    
   102   50   51 2    
   103   50   52 1    
   104   52   53 1    
   105   52   54 1    
   106   52  175 1    
   107   53  176 1    
   108   53  177 1    
   109   53  178 1    
   110   54   55 am   BACKBONE|DICT|INTERRES
   111   54  179 1    
   112   55   56 2    
   113   55   57 1    
   114   57   58 1    
   115   57   59 1    
   116   57  180 1    
   117   58  181 1    
   118   58  182 1    
   119   58  183 1    
   120   59   60 am   BACKBONE|DICT|INTERRES
   121   59  184 1    
   122   60   61 2    
   123   60   62 1    
   124   62   63 1    
   125   62   64 1    
   126   62  185 1    
   127   63  186 1    
   128   63  187 1    
   129   63  188 1    
   130   64   65 am   BACKBONE|DICT|INTERRES
   131   64  189 1    
   132   65   66 2    
   133   67   68 2    
   134   67   69 am   BACKBONE|DICT|INTERRES
   135   69   70 1    
   136   69  190 1    
   137   70   71 1    
   138   70   72 1    
   139   70  191 1    
   140   71  192 1    
   141   71  193 1    
   142   71  194 1    
   143   72   73 2    
   144   72   74 am   BACKBONE|DICT|INTERRES
   145   74   75 1    
   146   74  195 1    
   147   75   76 1    
   148   75   77 1    
   149   75  196 1    
   150   76  197 1    
   151   76  198 1    
   152   76  199 1    
   153   77   78 2    
   154   77   79 am   BACKBONE|DICT|INTERRES
   155   79   80 1    
   156   79  200 1    
   157   80   81 1    
   158   80   82 1    
   159   80  201 1    
   160   81  202 1    
   161   81  203 1    
   162   81  204 1    
   163   82   83 2    
   164   82   84 am   BACKBONE|DICT|INTERRES
   165   84   85 1    
   166   84  205 1    
   167   85   86 1    
   168   85   87 1    
   169   85  206 1    
   170   86  207 1    
   171   86  208 1    
   172   86  209 1    
   173   87   88 2    
   174   87   89 am   BACKBONE|DICT|INTERRES
   175   89   90 1    
   176   89  210 1    
   177   90   91 1    
   178   90   92 1    
   179   90  211 1    
   180   91  212 1    
   181   91  213 1    
   182   91  214 1    
   183   92   93 2    
   184   92   94 am   BACKBONE|DICT|INTERRES
   185   94   95 1    
   186   94  215 1    
   187   95   96 1    
   188   95   97 1    
   189   95  216 1    
   190   96  217 1    
   191   96  218 1    
   192   96  219 1    
   193   97   98 2    
   194   97   99 am   BACKBONE|DICT|INTERRES
   195   99  100 1    
   196   99  220 1    
   197  100  101 1    
   198  100  102 1    
   199  100  221 1    
   200  101  222 1    
   201  101  223 1    
   202  101  224 1    
   203  102  103 2    
   204  102  104 am   BACKBONE|DICT|INTERRES
   205  104  105 1    
   206  104  225 1    
   207  105  106 1    
   208  105  107 1    
   209  105  226 1    
   210  106  227 1    
   211  106  228 1    
   212  106  229 1    
   213  107  108 2    
   214  107  109 am   BACKBONE|DICT|INTERRES
   215  109  110 1    
   216  109  230 1    
   217  110  111 1    
   218  110  112 1    
   219  110  231 1    
   220  111  232 1    
   221  111  233 1    
   222  111  234 1    
   223  112  113 2    
   224  112  114 am   BACKBONE|DICT|INTERRES
   225  114  115 1    
   226  114  235 1    
   227  115  116 1    
   228  115  117 1    
   229  115  236 1    
   230  116  237 1    
   231  116  238 1    
   232  116  239 1    
   233  117  118 2    
   234  117  119 am   BACKBONE|DICT|INTERRES
   235  119  120 1    
   236  119  240 1    
   237  120  121 1    
   238  120  124 1    
   239  120  241 1    
   240  121  122 am   BACKBONE|DICT|INTERRES
   241  121  123 2    
   242  122  242 1    
   243  122  243 1    
   244  124  125 1    
   245  124  244 1    
   246  124  245 1    
   247  125  126 1    
   248  126  246 1    
   249  126  247 1    
@<TRIPOS>SUBSTRUCTURE
     1 UNK         1 GROUP             0       ****    0 ROOT    
