@<TRIPOS>MOLECULE
3R540
247   249    1
SMALL
USER_CHARGES


@<TRIPOS>ATOM
      1 CA          3.9937   -8.7022  -48.5024 C.3       0 UNK        -0.1800 
      2 C           4.0238  -10.2172  -48.6439 C.2       0 UNK         0.5000 
      3 O           4.8867  -10.8683  -48.0554 O.2       0 UNK        -0.5000 
      4 N           3.0863  -10.7775  -49.4213 N.am      1 UNK        -0.5000 
      5 CA          2.9288  -12.2205  -49.6492 C.3       1 UNK         0.1400 
      6 C6          1.9637  -12.4929  -50.8304 C.3       23 UNK        -0.0398 
      7 S7          2.0886  -14.1924  -51.4838 S.3       23 UNK        -0.2404 
      8 C8          0.3324  -14.6393  -51.6465 C.3       23 UNK        -0.0205 
      9 C9          0.1675  -16.1419  -51.7989 C.ar      23 UNK        -0.0193 
     10 C10         0.1885  -16.7422  -53.0626 C.ar      23 UNK        -0.1150 
     11 C11         0.0607  -18.1301  -53.1880 C.ar      23 UNK        -0.0193 
     12 C12        -0.0983  -18.9132  -52.0407 C.ar      23 UNK        -0.1150 
     13 C13        -0.1294  -18.3211  -50.7769 C.ar      23 UNK        -0.0193 
     14 C14         0.0049  -16.9362  -50.6613 C.ar      23 UNK        -0.1150 
     15 C15        -0.2904  -19.1742  -49.5333 C.3       23 UNK        -0.0205 
     16 S16         1.3258  -19.7874  -48.9652 S.3       23 UNK        -0.2404 
     17 C17         1.0371  -19.9267  -47.1721 C.3       23 UNK        -0.0398 
     18 CA          0.6119  -21.3393  -46.7108 C.3       11 UNK         0.1400 
     19 N           0.7414  -21.4791  -45.2608 N.am      11 UNK        -0.5000 
     20 C           0.5896  -22.6181  -44.5734 C.2       10 UNK         0.5000 
     21 O           0.3744  -23.7115  -45.0966 O.2       10 UNK        -0.5000 
     22 CA          0.6367  -22.5014  -43.0389 C.3       10 UNK         0.1400 
     23 CB          2.0873  -22.4401  -42.5385 C.3       10 UNK        -0.1800 
     24 N          -0.1053  -21.3396  -42.5430 N.am      10 UNK        -0.5000 
     25 C          -1.4293  -21.1759  -42.6805 C.2       9 UNK         0.5000 
     26 O          -2.1693  -22.0103  -43.2022 O.2       9 UNK        -0.5000 
     27 CA         -2.0222  -19.8401  -42.1968 C.3       9 UNK         0.1400 
     28 CB         -2.1816  -19.8335  -40.6693 C.3       9 UNK        -0.1800 
     29 N          -1.2327  -18.6820  -42.6197 N.am      9 UNK        -0.5000 
     30 C          -1.0391  -18.3215  -43.8969 C.2       8 UNK         0.5000 
     31 O          -1.5357  -18.9097  -44.8556 O.2       8 UNK        -0.5000 
     32 CA         -0.0877  -17.1412  -44.1579 C.3       8 UNK         0.1400 
     33 CB         -0.7989  -15.7982  -43.9383 C.3       8 UNK        -0.1800 
     34 N           1.1176  -17.2007  -43.3341 N.am      8 UNK        -0.5000 
     35 C           2.0277  -18.1835  -43.3786 C.2       7 UNK         0.5000 
     36 O           1.9686  -19.1389  -44.1507 O.2       7 UNK        -0.5000 
     37 CA          3.1631  -18.1167  -42.3455 C.3       7 UNK         0.1400 
     38 CB          4.2378  -17.1030  -42.7686 C.3       7 UNK        -0.1800 
     39 N           2.6612  -17.7863  -41.0121 N.am      7 UNK        -0.5000 
     40 C           1.8712  -18.5869  -40.2815 C.2       6 UNK         0.5000 
     41 O           1.5114  -19.7087  -40.6393 O.2       6 UNK        -0.5000 
     42 CA          1.3671  -18.0169  -38.9438 C.3       6 UNK         0.1400 
     43 CB          2.4185  -18.2097  -37.8410 C.3       6 UNK        -0.1800 
     44 N           1.0153  -16.5989  -39.0384 N.am      6 UNK        -0.5000 
     45 C          -0.0178  -16.1233  -39.7480 C.2       5 UNK         0.5000 
     46 O          -0.7987  -16.8334  -40.3807 O.2       5 UNK        -0.5000 
     47 CA         -0.1687  -14.5919  -39.7997 C.3       5 UNK         0.1400 
     48 CB         -0.8857  -14.0731  -38.5443 C.3       5 UNK        -0.1800 
     49 N           1.1116  -13.8941  -39.9578 N.am      5 UNK        -0.5000 
     50 C           1.9093  -14.0247  -41.0246 C.2       4 UNK         0.5000 
     51 O           1.6617  -14.7705  -41.9760 O.2       4 UNK        -0.5000 
     52 CA          3.2142  -13.2209  -41.0227 C.3       4 UNK         0.1400 
     53 CB          4.3032  -13.9387  -40.2056 C.3       4 UNK        -0.1800 
     54 N           3.6374  -13.0779  -42.4090 N.am      4 UNK        -0.5000 
     55 C           4.4497  -12.1393  -42.9014 C.2       3 UNK         0.5000 
     56 O           5.0241  -11.2976  -42.2093 O.2       3 UNK        -0.5000 
     57 CA          4.6432  -12.1298  -44.4312 C.3       3 UNK         0.1400 
     58 CB          5.8981  -12.9276  -44.8170 C.3       3 UNK        -0.1800 
     59 N           3.4997  -12.6536  -45.1868 N.am      3 UNK        -0.5000 
     60 C           2.2826  -12.0959  -45.2329 C.2       2 UNK         0.5000 
     61 O           1.9668  -11.0863  -44.6009 O.2       2 UNK        -0.5000 
     62 CA          1.2820  -12.7425  -46.2086 C.3       2 UNK         0.1400 
     63 CB         -0.1749  -12.3389  -45.9199 C.3       2 UNK        -0.1800 
     64 N           1.6269  -12.3345  -47.5684 N.am      2 UNK        -0.5000 
     65 C           2.5137  -12.9596  -48.3551 C.2       1 UNK         0.5000 
     66 O           3.0426  -14.0327  -48.0609 O.2       1 UNK        -0.5000 
     67 C          -0.8078  -21.7048  -47.1913 C.2       11 UNK         0.5000 
     68 O          -0.9434  -22.4810  -48.1357 O.2       11 UNK        -0.5000 
     69 N          -1.8393  -21.1785  -46.5150 N.am      12 UNK        -0.5000 
     70 CA         -3.2454  -21.4771  -46.7874 C.3       12 UNK         0.1400 
     71 CB         -4.1501  -20.5886  -45.9218 C.3       12 UNK        -0.1800 
     72 C          -3.5867  -22.9631  -46.5890 C.2       12 UNK         0.5000 
     73 O          -4.2892  -23.5311  -47.4235 O.2       12 UNK        -0.5000 
     74 N          -3.0505  -23.5760  -45.5240 N.am      13 UNK        -0.5000 
     75 CA         -3.1736  -25.0072  -45.2449 C.3       13 UNK         0.1400 
     76 CB         -2.6070  -25.3170  -43.8514 C.3       13 UNK        -0.1800 
     77 C          -2.5049  -25.8807  -46.3228 C.2       13 UNK         0.5000 
     78 O          -3.1118  -26.8530  -46.7732 O.2       13 UNK        -0.5000 
     79 N          -1.2966  -25.4941  -46.7587 N.am      14 UNK        -0.5000 
     80 CA         -0.5646  -26.1331  -47.8576 C.3       14 UNK         0.1400 
     81 CB          0.8573  -25.5567  -47.9315 C.3       14 UNK        -0.1800 
     82 C          -1.2831  -26.0010  -49.2162 C.2       14 UNK         0.5000 
     83 O          -1.2516  -26.9352  -50.0172 O.2       14 UNK        -0.5000 
     84 N          -1.9600  -24.8648  -49.4253 N.am      15 UNK        -0.5000 
     85 CA         -2.8164  -24.5681  -50.5754 C.3       15 UNK         0.1400 
     86 CB         -2.8673  -23.0434  -50.7604 C.3       15 UNK        -0.1800 
     87 C          -4.2394  -25.1628  -50.4596 C.2       15 UNK         0.5000 
     88 O          -5.0983  -24.8292  -51.2816 O.2       15 UNK        -0.5000 
     89 N          -4.4772  -26.0024  -49.4376 N.am      16 UNK        -0.5000 
     90 CA         -5.7122  -26.7352  -49.1300 C.3       16 UNK         0.1400 
     91 CB         -5.9836  -27.7965  -50.2162 C.3       16 UNK        -0.1800 
     92 C          -6.9345  -25.8276  -48.8753 C.2       16 UNK         0.5000 
     93 O          -8.0699  -26.2532  -49.0937 O.2       16 UNK        -0.5000 
     94 N          -6.6750  -24.5816  -48.4513 N.am      17 UNK        -0.5000 
     95 CA         -7.6116  -23.4652  -48.2867 C.3       17 UNK         0.1400 
     96 CB         -8.6175  -23.7571  -47.1547 C.3       17 UNK        -0.1800 
     97 C          -8.3039  -23.0248  -49.5978 C.2       17 UNK         0.5000 
     98 O          -9.2866  -22.2835  -49.5409 O.2       17 UNK        -0.5000 
     99 N          -7.7865  -23.4739  -50.7496 N.am      18 UNK        -0.5000 
    100 CA        -8.3205  -23.1875  -52.0757 C.3       18 UNK         0.1400 
    101 CB        -8.3288  -24.4782  -52.9137 C.3       18 UNK        -0.1800 
    102 C         -7.4908  -22.0872  -52.7470 C.2       18 UNK         0.5000 
    103 O         -8.0377  -21.0312  -53.0662 O.2       18 UNK        -0.5000 
    104 N         -6.1890  -22.3596  -52.9431 N.am      19 UNK        -0.5000 
    105 CA        -5.1964  -21.4914  -53.5955 C.3       19 UNK         0.1400 
    106 CB        -4.8483  -20.2970  -52.6822 C.3       19 UNK        -0.1800 
    107 C         -5.5991  -21.0522  -55.0229 C.2       19 UNK         0.5000 
    108 O         -5.3018  -19.9301  -55.4332 O.2       19 UNK        -0.5000 
    109 N         -6.2784  -21.9455  -55.7582 N.am      20 UNK        -0.5000 
    110 CA        -6.8872  -21.6760  -57.0659 C.3       20 UNK         0.1400 
    111 CB        -7.7049  -22.9024  -57.4986 C.3       20 UNK        -0.1800 
    112 C         -5.8830  -21.2782  -58.1651 C.2       20 UNK         0.5000 
    113 O         -6.2241  -20.4881  -59.0461 O.2       20 UNK        -0.5000 
    114 N         -4.6558  -21.8066  -58.0753 N.am      21 UNK        -0.5000 
    115 CA        -3.5418  -21.4896  -58.9709 C.3       21 UNK         0.1400 
    116 CB        -2.4655  -22.5756  -58.8155 C.3       21 UNK        -0.1800 
    117 C         -2.9323  -20.0926  -58.7286 C.2       21 UNK         0.5000 
    118 O         -2.2136  -19.5942  -59.5961 O.2       21 UNK        -0.5000 
    119 N         -3.2071  -19.4954  -57.5623 N.am      22 UNK        -0.5000 
    120 CA        -2.6556  -18.2040  -57.1205 C.3       22 UNK         0.1400 
    121 C         -3.4763  -16.9706  -57.5978 C.2       22 UNK         0.5000 
    122 N         -4.6092  -17.1400  -58.2699 N.am      22 UNK        -0.7600 
    123 O         -3.0699  -15.8349  -57.3674 O.2       22 UNK        -0.5000 
    124 C124       -2.4344  -18.1723  -55.5846 C.3       23 UNK        -0.0398 
    125 S125       -1.4495  -19.5940  -54.9936 S.3       23 UNK        -0.2404 
    126 C126        0.1264  -18.7993  -54.5525 C.3       23 UNK        -0.0205 
    127 H127        3.8551   -8.4270  -47.4568 H         1 UNK         0.0600 
    128 H128        4.9352   -8.2744  -48.8468 H         1 UNK         0.0600 
    129 H129        3.1852   -8.2559  -49.0817 H         1 UNK         0.0600 
    130 H130        2.4158  -10.1811  -49.8856 H         1 UNK         0.3000 
    131 H131        3.9135  -12.6003  -49.9314 H         1 UNK         0.0600 
    132 H132        0.9349  -12.2629  -50.5486 H         1 UNK         0.0800 
    133 H133        2.1997  -11.8244  -51.6596 H         1 UNK         0.0800 
    134 H134       -0.2204  -14.3007  -50.7687 H         1 UNK         0.0800 
    135 H135       -0.0981  -14.1202  -52.5042 H         1 UNK         0.0800 
    136 H136        0.3216  -16.1301  -53.9436 H         1 UNK         0.1150 
    137 H137       -0.1910  -19.9865  -52.1325 H         1 UNK         0.1150 
    138 H138       -0.0028  -16.4764  -49.6828 H         1 UNK         0.1150 
    139 H139       -0.7781  -18.5902  -48.7515 H         1 UNK         0.0800 
    140 H140       -0.9478  -20.0204  -49.7400 H         1 UNK         0.0800 
    141 H141        0.3308  -19.1674  -46.8353 H         1 UNK         0.0800 
    142 H142        1.9865  -19.6682  -46.7023 H         1 UNK         0.0800 
    143 H143        1.3013  -22.0601  -47.1558 H         1 UNK         0.0600 
    144 H144        0.9701  -20.6312  -44.7480 H         1 UNK         0.3000 
    145 H145        0.1715  -23.3978  -42.6238 H         1 UNK         0.0600 
    146 H146        2.1274  -22.4392  -41.4491 H         1 UNK         0.0600 
    147 H147        2.6573  -23.3029  -42.8851 H         1 UNK         0.0600 
    148 H148        2.5986  -21.5438  -42.8911 H         1 UNK         0.0600 
    149 H149        0.4338  -20.6229  -42.0669 H         1 UNK         0.3000 
    150 H150       -3.0157  -19.7417  -42.6389 H         1 UNK         0.0600 
    151 H151       -2.7757  -20.6847  -40.3346 H         1 UNK         0.0600 
    152 H152       -2.6891  -18.9300  -40.3309 H         1 UNK         0.0600 
    153 H153       -1.2179  -19.8850  -40.1623 H         1 UNK         0.0600 
    154 H154       -0.8303  -18.1119  -41.8819 H         1 UNK         0.3000 
    155 H155        0.2246  -17.1905  -45.2029 H         1 UNK         0.0600 
    156 H156       -1.6812  -15.7140  -44.5738 H         1 UNK         0.0600 
    157 H157       -0.1418  -14.9632  -44.1793 H         1 UNK         0.0600 
    158 H158       -1.1238  -15.6781  -42.9046 H         1 UNK         0.0600 
    159 H159        1.2633  -16.4258  -42.6913 H         1 UNK         0.3000 
    160 H160        3.6286  -19.1035  -42.2965 H         1 UNK         0.0600 
    161 H161        5.0669  -17.0886  -42.0611 H         1 UNK         0.0600 
    162 H162        3.8400  -16.0911  -42.8402 H         1 UNK         0.0600 
    163 H163        4.6499  -17.3602  -43.7452 H         1 UNK         0.0600 
    164 H164        2.8726  -16.8658  -40.6599 H         1 UNK         0.3000 
    165 H165        0.4704  -18.5727  -38.6615 H         1 UNK         0.0600 
    166 H166        2.0405  -17.8775  -36.8740 H         1 UNK         0.0600 
    167 H167        2.6878  -19.2619  -37.7393 H         1 UNK         0.0600 
    168 H168        3.3337  -17.6554  -38.0527 H         1 UNK         0.0600 
    169 H169        1.6084  -15.9446  -38.5499 H         1 UNK         0.3000 
    170 H170       -0.7879  -14.3525  -40.6669 H         1 UNK         0.0600 
    171 H171       -1.8491  -14.5677  -38.4131 H         1 UNK         0.0600 
    172 H172       -0.3000  -14.2501  -37.6414 H         1 UNK         0.0600 
    173 H173       -1.0790  -13.0026  -38.6150 H         1 UNK         0.0600 
    174 H174        1.3817  -13.2690  -39.2119 H         1 UNK         0.3000 
    175 H175        3.0175  -12.2338  -40.5994 H         1 UNK         0.0600 
    176 H176        5.2300  -13.3652  -40.1928 H         1 UNK         0.0600 
    177 H177        3.9932  -14.0726  -39.1686 H         1 UNK         0.0600 
    178 H178        4.5286  -14.9248  -40.6124 H         1 UNK         0.0600 
    179 H179        3.1649  -13.7072  -43.0458 H         1 UNK         0.3000 
    180 H180        4.7927  -11.0917  -44.7356 H         1 UNK         0.0600 
    181 H181        5.7961  -13.9841  -44.5654 H         1 UNK         0.0600 
    182 H182        6.7783  -12.5487  -44.2960 H         1 UNK         0.0600 
    183 H183        6.0978  -12.8531  -45.8864 H         1 UNK         0.0600 
    184 H184        3.6835  -13.4463  -45.7874 H         1 UNK         0.3000 
    185 H185        1.3548  -13.8277  -46.1066 H         1 UNK         0.0600 
    186 H186       -0.8648  -12.8616  -46.5826 H         1 UNK         0.0600 
    187 H187       -0.4544  -12.5901  -44.8960 H         1 UNK         0.0600 
    188 H188       -0.3339  -11.2676  -46.0496 H         1 UNK         0.0600 
    189 H189        1.2875  -11.4291  -47.8590 H         1 UNK         0.3000 
    190 H190       -1.6570  -20.5065  -45.7727 H         1 UNK         0.3000 
    191 H191       -3.4362  -21.2317  -47.8339 H         1 UNK         0.0600 
    192 H192       -3.9788  -20.7535  -44.8579 H         1 UNK         0.0600 
    193 H193       -5.2032  -20.7910  -46.1212 H         1 UNK         0.0600 
    194 H194       -3.9773  -19.5323  -46.1281 H         1 UNK         0.0600 
    195 H195       -2.5253  -23.0224  -44.8533 H         1 UNK         0.3000 
    196 H196       -4.2381  -25.2510  -45.2370 H         1 UNK         0.0600 
    197 H197       -1.5477  -25.0704  -43.7806 H         1 UNK         0.0600 
    198 H198       -2.7146  -26.3758  -43.6128 H         1 UNK         0.0600 
    199 H199       -3.1321  -24.7542  -43.0795 H         1 UNK         0.0600 
    200 H200       -0.8435  -24.7038  -46.3088 H         1 UNK         0.3000 
    201 H201       -0.4864  -27.1979  -47.6290 H         1 UNK         0.0600 
    202 H202        0.8494  -24.4873  -48.1427 H         1 UNK         0.0600 
    203 H203        1.4352  -26.0425  -48.7185 H         1 UNK         0.0600 
    204 H204        1.3925  -25.7073  -46.9938 H         1 UNK         0.0600 
    205 H205       -1.8648  -24.1212  -48.7396 H         1 UNK         0.3000 
    206 H206       -2.3617  -25.0003  -51.4687 H         1 UNK         0.0600 
    207 H207       -1.8661  -22.6180  -50.8335 H         1 UNK         0.0600 
    208 H208       -3.3937  -22.7815  -51.6756 H         1 UNK         0.0600 
    209 H209       -3.3800  -22.5544  -49.9320 H         1 UNK         0.0600 
    210 H210       -3.7221  -26.1595  -48.7818 H         1 UNK         0.3000 
    211 H211       -5.5275  -27.2603  -48.1921 H         1 UNK         0.0600 
    212 H212       -6.2440  -27.3388  -51.1713 H         1 UNK         0.0600 
    213 H213       -6.8087  -28.4499  -49.9306 H         1 UNK         0.0600 
    214 H214       -5.1110  -28.4302  -50.3744 H         1 UNK         0.0600 
    215 H215       -5.7034  -24.3411  -48.2592 H         1 UNK         0.3000 
    216 H216       -7.0039  -22.6153  -47.9730 H         1 UNK         0.0600 
    217 H217       -8.1048  -24.0545  -46.2399 H         1 UNK         0.0600 
    218 H218       -9.2102  -22.8726  -46.9190 H         1 UNK         0.0600 
    219 H219       -9.3127  -24.5524  -47.4245 H         1 UNK         0.0600 
    220 H220       -6.9499  -24.0458  -50.7149 H         1 UNK         0.3000 
    221 H221       -9.3517  -22.8349  -52.0043 H         1 UNK         0.0600 
    222 H222       -7.3370  -24.9242  -52.9954 H         1 UNK         0.0600 
    223 H223       -8.9883  -25.2243  -52.4700 H         1 UNK         0.0600 
    224 H224       -8.6897  -24.2858  -53.9249 H         1 UNK         0.0600 
    225 H225       -5.8390  -23.2522  -52.6129 H         1 UNK         0.3000 
    226 H226       -4.2935  -22.0903  -53.7174 H         1 UNK         0.0600 
    227 H227       -4.5790  -20.6275  -51.6794 H         1 UNK         0.0600 
    228 H228       -3.9995  -19.7368  -53.0756 H         1 UNK         0.0600 
    229 H229       -5.6846  -19.6034  -52.5907 H         1 UNK         0.0600 
    230 H230       -6.4735  -22.8470  -55.3486 H         1 UNK         0.3000 
    231 H231       -7.5748  -20.8373  -56.9384 H         1 UNK         0.0600 
    232 H232       -8.4859  -23.1322  -56.7735 H         1 UNK         0.0600 
    233 H233       -7.0763  -23.7869  -57.6081 H         1 UNK         0.0600 
    234 H234       -8.1952  -22.7271  -58.4572 H         1 UNK         0.0600 
    235 H235       -4.4625  -22.4414  -57.3148 H         1 UNK         0.3000 
    236 H236       -3.9066  -21.5143  -59.9999 H         1 UNK         0.0600 
    237 H237       -1.6303  -22.3990  -59.4946 H         1 UNK         0.0600 
    238 H238       -2.0640  -22.6009  -57.8016 H         1 UNK         0.0600 
    239 H239       -2.8649  -23.5637  -59.0449 H         1 UNK         0.0600 
    240 H240       -3.8457  -19.9380  -56.9120 H         1 UNK         0.3000 
    241 H241       -1.6713  -18.0873  -57.5779 H         1 UNK         0.0600 
    242 H242       -4.9531  -18.0679  -58.4654 H         1 UNK         0.3800 
    243 H243       -5.1300  -16.3347  -58.5800 H         1 UNK         0.3800 
    244 H244       -1.9424  -17.2446  -55.2879 H         1 UNK         0.0800 
    245 H245       -3.3906  -18.1805  -55.0606 H         1 UNK         0.0800 
    246 H246        0.4134  -18.0899  -55.3304 H         1 UNK         0.0800 
    247 H247        0.9073  -19.5607  -54.5315 H         1 UNK         0.0800 
@<TRIPOS>BOND
     1    1    2 1    
     2    1  127 1    
     3    1  128 1    
     4    1  129 1    
     5    2    3 2    
     6    2    4 am   BACKBONE|DICT|INTERRES
     7    4    5 1    
     8    4  130 1    
     9    5    6 1    
    10    5   65 1    
    11    5  131 1    
    12    6    7 1    
    13    6  132 1    
    14    6  133 1    
    15    7    8 1    
    16    8    9 1    
    17    8  134 1    
    18    8  135 1    
    19    9   10 ar   
    20    9   14 ar   
    21   10   11 ar   
    22   10  136 1    
    23   11   12 ar   
    24   11  126 1    
    25   12   13 ar   
    26   12  137 1    
    27   13   14 ar   
    28   13   15 1    
    29   14  138 1    
    30   15   16 1    
    31   15  139 1    
    32   15  140 1    
    33   16   17 1    
    34   17   18 1    
    35   17  141 1    
    36   17  142 1    
    37   18   19 1    
    38   18   67 1    
    39   18  143 1    
    40   19   20 am   BACKBONE|DICT|INTERRES
    41   19  144 1    
    42   20   21 2    
    43   20   22 1    
    44   22   23 1    
    45   22   24 1    
    46   22  145 1    
    47   23  146 1    
    48   23  147 1    
    49   23  148 1    
    50   24   25 am   BACKBONE|DICT|INTERRES
    51   24  149 1    
    52   25   26 2    
    53   25   27 1    
    54   27   28 1    
    55   27   29 1    
    56   27  150 1    
    57   28  151 1    
    58   28  152 1    
    59   28  153 1    
    60   29   30 am   BACKBONE|DICT|INTERRES
    61   29  154 1    
    62   30   31 2    
    63   30   32 1    
    64   32   33 1    
    65   32   34 1    
    66   32  155 1    
    67   33  156 1    
    68   33  157 1    
    69   33  158 1    
    70   34   35 am   BACKBONE|DICT|INTERRES
    71   34  159 1    
    72   35   36 2    
    73   35   37 1    
    74   37   38 1    
    75   37   39 1    
    76   37  160 1    
    77   38  161 1    
    78   38  162 1    
    79   38  163 1    
    80   39   40 am   BACKBONE|DICT|INTERRES
    81   39  164 1    
    82   40   41 2    
    83   40   42 1    
    84   42   43 1    
    85   42   44 1    
    86   42  165 1    
    87   43  166 1    
    88   43  167 1    
    89   43  168 1    
    90   44   45 am   BACKBONE|DICT|INTERRES
    91   44  169 1    
    92   45   46 2    
    93   45   47 1    
    94   47   48 1    
    95   47   49 1    
    96   47  170 1    
    97   48  171 1    
    98   48  172 1    
    99   48  173 1    
   100   49   50 am   BACKBONE|DICT|INTERRES
   101   49  174 1    
   102   50   51 2    
   103   50   52 1    
   104   52   53 1    
   105   52   54 1    
   106   52  175 1    
   107   53  176 1    
   108   53  177 1    
   109   53  178 1    
   110   54   55 am   BACKBONE|DICT|INTERRES
   111   54  179 1    
   112   55   56 2    
   113   55   57 1    
   114   57   58 1    
   115   57   59 1    
   116   57  180 1    
   117   58  181 1    
   118   58  182 1    
   119   58  183 1    
   120   59   60 am   BACKBONE|DICT|INTERRES
   121   59  184 1    
   122   60   61 2    
   123   60   62 1    
   124   62   63 1    
   125   62   64 1    
   126   62  185 1    
   127   63  186 1    
   128   63  187 1    
   129   63  188 1    
   130   64   65 am   BACKBONE|DICT|INTERRES
   131   64  189 1    
   132   65   66 2    
   133   67   68 2    
   134   67   69 am   BACKBONE|DICT|INTERRES
   135   69   70 1    
   136   69  190 1    
   137   70   71 1    
   138   70   72 1    
   139   70  191 1    
   140   71  192 1    
   141   71  193 1    
   142   71  194 1    
   143   72   73 2    
   144   72   74 am   BACKBONE|DICT|INTERRES
   145   74   75 1    
   146   74  195 1    
   147   75   76 1    
   148   75   77 1    
   149   75  196 1    
   150   76  197 1    
   151   76  198 1    
   152   76  199 1    
   153   77   78 2    
   154   77   79 am   BACKBONE|DICT|INTERRES
   155   79   80 1    
   156   79  200 1    
   157   80   81 1    
   158   80   82 1    
   159   80  201 1    
   160   81  202 1    
   161   81  203 1    
   162   81  204 1    
   163   82   83 2    
   164   82   84 am   BACKBONE|DICT|INTERRES
   165   84   85 1    
   166   84  205 1    
   167   85   86 1    
   168   85   87 1    
   169   85  206 1    
   170   86  207 1    
   171   86  208 1    
   172   86  209 1    
   173   87   88 2    
   174   87   89 am   BACKBONE|DICT|INTERRES
   175   89   90 1    
   176   89  210 1    
   177   90   91 1    
   178   90   92 1    
   179   90  211 1    
   180   91  212 1    
   181   91  213 1    
   182   91  214 1    
   183   92   93 2    
   184   92   94 am   BACKBONE|DICT|INTERRES
   185   94   95 1    
   186   94  215 1    
   187   95   96 1    
   188   95   97 1    
   189   95  216 1    
   190   96  217 1    
   191   96  218 1    
   192   96  219 1    
   193   97   98 2    
   194   97   99 am   BACKBONE|DICT|INTERRES
   195   99  100 1    
   196   99  220 1    
   197  100  101 1    
   198  100  102 1    
   199  100  221 1    
   200  101  222 1    
   201  101  223 1    
   202  101  224 1    
   203  102  103 2    
   204  102  104 am   BACKBONE|DICT|INTERRES
   205  104  105 1    
   206  104  225 1    
   207  105  106 1    
   208  105  107 1    
   209  105  226 1    
   210  106  227 1    
   211  106  228 1    
   212  106  229 1    
   213  107  108 2    
   214  107  109 am   BACKBONE|DICT|INTERRES
   215  109  110 1    
   216  109  230 1    
   217  110  111 1    
   218  110  112 1    
   219  110  231 1    
   220  111  232 1    
   221  111  233 1    
   222  111  234 1    
   223  112  113 2    
   224  112  114 am   BACKBONE|DICT|INTERRES
   225  114  115 1    
   226  114  235 1    
   227  115  116 1    
   228  115  117 1    
   229  115  236 1    
   230  116  237 1    
   231  116  238 1    
   232  116  239 1    
   233  117  118 2    
   234  117  119 am   BACKBONE|DICT|INTERRES
   235  119  120 1    
   236  119  240 1    
   237  120  121 1    
   238  120  124 1    
   239  120  241 1    
   240  121  122 am   BACKBONE|DICT|INTERRES
   241  121  123 2    
   242  122  242 1    
   243  122  243 1    
   244  124  125 1    
   245  124  244 1    
   246  124  245 1    
   247  125  126 1    
   248  126  246 1    
   249  126  247 1    
@<TRIPOS>SUBSTRUCTURE
     1 UNK         1 GROUP             0       ****    0 ROOT    
