@<TRIPOS>MOLECULE
3R540
247   249    1
SMALL
USER_CHARGES


@<TRIPOS>ATOM
      1 CA         -1.7035  -13.4563  -48.3790 C.3       0 UNK        -0.1800 
      2 C          -0.2469  -13.1773  -48.7187 C.2       0 UNK         0.5000 
      3 O           0.0856  -12.0684  -49.1390 O.2       0 UNK        -0.5000 
      4 N           0.6196  -14.1801  -48.5407 N.am      1 UNK        -0.5000 
      5 CA          2.0706  -14.0831  -48.7142 C.3       1 UNK         0.1400 
      6 C6          2.7315  -15.4799  -48.8406 C.3       23 UNK        -0.0398 
      7 S7          2.3309  -16.6414  -47.4839 S.3       23 UNK        -0.2404 
      8 C8          1.4386  -17.9542  -48.3778 C.3       23 UNK        -0.0205 
      9 C9          0.0527  -17.5214  -48.8265 C.ar      23 UNK        -0.0193 
     10 C10        -0.2236  -17.3247  -50.1817 C.ar      23 UNK        -0.1150 
     11 C11        -1.5104  -16.9749  -50.6003 C.ar      23 UNK        -0.0193 
     12 C12        -2.5266  -16.8291  -49.6512 C.ar      23 UNK        -0.1150 
     13 C13        -2.2614  -17.0220  -48.2915 C.ar      23 UNK        -0.0193 
     14 C14        -0.9661  -17.3542  -47.8858 C.ar      23 UNK        -0.1150 
     15 C15        -3.3702  -16.8581  -47.2623 C.3       23 UNK        -0.0205 
     16 S16        -4.1827  -18.4428  -46.8732 S.3       23 UNK        -0.2404 
     17 C17        -2.9871  -19.2198  -45.7400 C.3       23 UNK        -0.0398 
     18 CA         -2.0569  -20.2734  -46.4059 C.3       11 UNK         0.1400 
     19 N          -0.7488  -20.3210  -45.7380 N.am      11 UNK        -0.5000 
     20 C           0.2861  -21.1091  -46.0658 C.2       10 UNK         0.5000 
     21 O           0.2886  -21.8663  -47.0330 O.2       10 UNK        -0.5000 
     22 CA          1.5038  -21.1045  -45.1201 C.3       10 UNK         0.1400 
     23 CB          2.5052  -20.0033  -45.4904 C.3       10 UNK        -0.1800 
     24 N           1.1338  -20.9732  -43.7122 N.am      10 UNK        -0.5000 
     25 C           0.3993  -21.8641  -43.0317 C.2       9 UNK         0.5000 
     26 O          -0.0363  -22.9081  -43.5182 O.2       9 UNK        -0.5000 
     27 CA          0.0546  -21.4993  -41.5789 C.3       9 UNK         0.1400 
     28 CB          1.2332  -21.8002  -40.6407 C.3       9 UNK        -0.1800 
     29 N          -0.3262  -20.0929  -41.4547 N.am      9 UNK        -0.5000 
     30 C          -1.4746  -19.5792  -41.9169 C.2       8 UNK         0.5000 
     31 O          -2.3597  -20.2489  -42.4513 O.2       8 UNK        -0.5000 
     32 CA         -1.6386  -18.0520  -41.7977 C.3       8 UNK         0.1400 
     33 CB         -2.1139  -17.6633  -40.3900 C.3       8 UNK        -0.1800 
     34 N          -0.4085  -17.3216  -42.1126 N.am      8 UNK        -0.5000 
     35 C           0.1774  -17.3163  -43.3181 C.2       7 UNK         0.5000 
     36 O          -0.2605  -17.9221  -44.2913 O.2       7 UNK        -0.5000 
     37 CA          1.5015  -16.5533  -43.4569 C.3       7 UNK         0.1400 
     38 CB          1.2389  -15.0860  -43.8210 C.3       7 UNK        -0.1800 
     39 N           2.3563  -16.6429  -42.2698 N.am      7 UNK        -0.5000 
     40 C           2.8618  -17.7921  -41.7905 C.2       6 UNK         0.5000 
     41 O           2.5991  -18.8953  -42.2711 O.2       6 UNK        -0.5000 
     42 CA          3.8085  -17.7241  -40.5772 C.3       6 UNK         0.1400 
     43 CB          5.2391  -18.1099  -40.9830 C.3       6 UNK        -0.1800 
     44 N           3.8294  -16.4104  -39.9346 N.am      6 UNK        -0.5000 
     45 C           2.9150  -15.9906  -39.0489 C.2       5 UNK         0.5000 
     46 O           1.9711  -16.6832  -38.6667 O.2       5 UNK        -0.5000 
     47 CA          3.0608  -14.5511  -38.5137 C.3       5 UNK         0.1400 
     48 CB          3.7942  -14.5524  -37.1640 C.3       5 UNK        -0.1800 
     49 N           3.7513  -13.6387  -39.4301 N.am      5 UNK        -0.5000 
     50 C           3.3137  -13.3011  -40.6503 C.2       4 UNK         0.5000 
     51 O           2.2726  -13.7418  -41.1370 O.2       4 UNK        -0.5000 
     52 CA          4.1792  -12.3364  -41.4871 C.3       4 UNK         0.1400 
     53 CB          5.4257  -11.7956  -40.7500 C.3       4 UNK        -0.1800 
     54 N           4.5624  -12.9320  -42.7711 N.am      4 UNK        -0.5000 
     55 C           5.2543  -14.0657  -42.9669 C.2       3 UNK         0.5000 
     56 O           5.6528  -14.7839  -42.0485 O.2       3 UNK        -0.5000 
     57 CA          5.5563  -14.4679  -44.4266 C.3       3 UNK         0.1400 
     58 CB          5.1157  -15.9100  -44.7230 C.3       3 UNK        -0.1800 
     59 N           4.9201  -13.5792  -45.4027 N.am      3 UNK        -0.5000 
     60 C           5.5038  -12.5383  -46.0073 C.2       2 UNK         0.5000 
     61 O           6.6719  -12.2058  -45.8002 O.2       2 UNK        -0.5000 
     62 CA          4.6336  -11.7430  -47.0097 C.3       2 UNK         0.1400 
     63 CB          5.4601  -10.7617  -47.8611 C.3       2 UNK        -0.1800 
     64 N           3.8569  -12.6026  -47.9105 N.am      2 UNK        -0.5000 
     65 C           2.7216  -13.2396  -47.5955 C.2       1 UNK         0.5000 
     66 O           2.2222  -13.2048  -46.4680 O.2       1 UNK        -0.5000 
     67 C          -2.7311  -21.6614  -46.4495 C.2       11 UNK         0.5000 
     68 O          -3.1799  -22.1027  -47.5104 O.2       11 UNK        -0.5000 
     69 N          -2.7458  -22.3372  -45.2916 N.am      12 UNK        -0.5000 
     70 CA         -3.2777  -23.6868  -45.1269 C.3       12 UNK         0.1400 
     71 CB         -3.4526  -23.9895  -43.6310 C.3       12 UNK        -0.1800 
     72 C          -2.3972  -24.7485  -45.8074 C.2       12 UNK         0.5000 
     73 O          -2.9316  -25.6286  -46.4817 O.2       12 UNK        -0.5000 
     74 N          -1.0708  -24.6353  -45.6443 N.am      13 UNK        -0.5000 
     75 CA         -0.0787  -25.5496  -46.2174 C.3       13 UNK         0.1400 
     76 CB          1.3092  -25.2279  -45.6446 C.3       13 UNK        -0.1800 
     77 C          -0.0476  -25.5310  -47.7574 C.2       13 UNK         0.5000 
     78 O           0.0711  -26.5899  -48.3749 O.2       13 UNK        -0.5000 
     79 N          -0.1829  -24.3366  -48.3491 N.am      14 UNK        -0.5000 
     80 CA         -0.2826  -24.1270  -49.7949 C.3       14 UNK         0.1400 
     81 CB          0.0082  -22.6495  -50.1064 C.3       14 UNK        -0.1800 
     82 C          -1.6545  -24.5220  -50.3742 C.2       14 UNK         0.5000 
     83 O          -1.7662  -24.6622  -51.5923 O.2       14 UNK        -0.5000 
     84 N          -2.6660  -24.6647  -49.5024 N.am      15 UNK        -0.5000 
     85 CA         -4.0836  -24.8774  -49.8082 C.3       15 UNK         0.1400 
     86 CB         -4.3125  -26.2620  -50.4486 C.3       15 UNK        -0.1800 
     87 C          -4.6579  -23.7163  -50.6436 C.2       15 UNK         0.5000 
     88 O          -5.3473  -23.9433  -51.6386 O.2       15 UNK        -0.5000 
     89 N          -4.3412  -22.4845  -50.2165 N.am      16 UNK        -0.5000 
     90 CA         -4.5944  -21.2188  -50.9128 C.3       16 UNK         0.1400 
     91 CB         -4.0781  -20.0794  -50.0306 C.3       16 UNK        -0.1800 
     92 C          -6.0612  -20.9614  -51.3084 C.2       16 UNK         0.5000 
     93 O          -6.3075  -20.2350  -52.2696 O.2       16 UNK        -0.5000 
     94 N          -7.0046  -21.5792  -50.5857 N.am      17 UNK        -0.5000 
     95 CA         -8.4398  -21.5472  -50.8677 C.3       17 UNK         0.1400 
     96 CB         -9.1844  -22.2278  -49.7087 C.3       17 UNK        -0.1800 
     97 C          -8.8352  -22.1899  -52.2150 C.2       17 UNK         0.5000 
     98 O          -9.9136  -21.8829  -52.7262 O.2       17 UNK        -0.5000 
     99 N          -7.9806  -23.0645  -52.7672 N.am      18 UNK        -0.5000 
    100 CA        -8.1613  -23.6669  -54.0850 C.3       18 UNK         0.1400 
    101 CB        -7.1756  -24.8330  -54.2530 C.3       18 UNK        -0.1800 
    102 C         -7.9544  -22.6319  -55.2039 C.2       18 UNK         0.5000 
    103 O         -6.9593  -21.8963  -55.1882 O.2       18 UNK        -0.5000 
    104 N         -8.8584  -22.6388  -56.1922 N.am      19 UNK        -0.5000 
    105 CA        -8.8411  -21.7993  -57.3959 C.3       19 UNK         0.1400 
    106 CB       -10.2635  -21.7469  -57.9817 C.3       19 UNK        -0.1800 
    107 C         -7.7892  -22.2740  -58.4241 C.2       19 UNK         0.5000 
    108 O         -8.1090  -22.5303  -59.5863 O.2       19 UNK        -0.5000 
    109 N         -6.5500  -22.3993  -57.9491 N.am      20 UNK        -0.5000 
    110 CA        -5.3595  -22.8562  -58.6576 C.3       20 UNK         0.1400 
    111 CB        -5.4385  -24.3672  -58.9460 C.3       20 UNK        -0.1800 
    112 C         -4.1093  -22.5263  -57.8276 C.2       20 UNK         0.5000 
    113 O         -3.0696  -22.2094  -58.4058 O.2       20 UNK        -0.5000 
    114 N         -4.2358  -22.5855  -56.4918 N.am      21 UNK        -0.5000 
    115 CA        -3.2116  -22.1693  -55.5385 C.3       21 UNK         0.1400 
    116 CB        -3.4870  -22.8246  -54.1762 C.3       21 UNK        -0.1800 
    117 C         -3.1617  -20.6344  -55.4523 C.2       21 UNK         0.5000 
    118 O         -2.2093  -20.0354  -55.9540 O.2       21 UNK        -0.5000 
    119 N         -4.2032  -20.0317  -54.8623 N.am      22 UNK        -0.5000 
    120 CA        -4.3961  -18.5720  -54.7854 C.3       22 UNK         0.1400 
    121 C         -5.8264  -18.1228  -55.2046 C.2       22 UNK         0.5000 
    122 N         -6.7847  -19.0114  -55.4446 N.am      22 UNK        -0.7600 
    123 O         -6.0715  -16.9274  -55.3435 O.2       22 UNK        -0.5000 
    124 C124       -4.0089  -17.9699  -53.4040 C.3       23 UNK        -0.0398 
    125 S125       -2.2837  -18.3046  -52.8990 S.3       23 UNK        -0.2404 
    126 C126       -1.7941  -16.7530  -52.0775 C.3       23 UNK        -0.0205 
    127 H127       -2.1794  -12.5615  -47.9777 H         1 UNK         0.0600 
    128 H128       -2.2469  -13.7637  -49.2724 H         1 UNK         0.0600 
    129 H129       -1.7904  -14.2443  -47.6314 H         1 UNK         0.0600 
    130 H130        0.2927  -15.0668  -48.1824 H         1 UNK         0.3000 
    131 H131        2.2471  -13.5563  -49.6547 H         1 UNK         0.0600 
    132 H132        3.8174  -15.3892  -48.9011 H         1 UNK         0.0800 
    133 H133        2.4328  -15.9248  -49.7902 H         1 UNK         0.0800 
    134 H134        2.0383  -18.2932  -49.2239 H         1 UNK         0.0800 
    135 H135        1.3269  -18.8184  -47.7264 H         1 UNK         0.0800 
    136 H136        0.5597  -17.4541  -50.9153 H         1 UNK         0.1150 
    137 H137       -3.5254  -16.5688  -49.9721 H         1 UNK         0.1150 
    138 H138       -0.7504  -17.5034  -46.8376 H         1 UNK         0.1150 
    139 H139       -2.9796  -16.4001  -46.3523 H         1 UNK         0.0800 
    140 H140       -4.1240  -16.1676  -47.6435 H         1 UNK         0.0800 
    141 H141       -2.4064  -18.4123  -45.3048 H         1 UNK         0.0800 
    142 H142       -3.5354  -19.6443  -44.8970 H         1 UNK         0.0800 
    143 H143       -1.8631  -19.9763  -47.4380 H         1 UNK         0.0600 
    144 H144       -0.6176  -19.6656  -44.9726 H         1 UNK         0.3000 
    145 H145        2.0131  -22.0625  -45.2320 H         1 UNK         0.0600 
    146 H146        3.3693  -20.0135  -44.8259 H         1 UNK         0.0600 
    147 H147        2.8774  -20.1400  -46.5061 H         1 UNK         0.0600 
    148 H148        2.0514  -19.0153  -45.4314 H         1 UNK         0.0600 
    149 H149        1.4891  -20.1563  -43.2230 H         1 UNK         0.3000 
    150 H150       -0.7924  -22.1160  -41.2701 H         1 UNK         0.0600 
    151 H151        1.5193  -22.8510  -40.7012 H         1 UNK         0.0600 
    152 H152        0.9727  -21.5938  -39.6026 H         1 UNK         0.0600 
    153 H153        2.1133  -21.2064  -40.8897 H         1 UNK         0.0600 
    154 H154        0.3679  -19.4650  -41.0766 H         1 UNK         0.3000 
    155 H155       -2.4041  -17.7451  -42.5137 H         1 UNK         0.0600 
    156 H156       -3.0358  -18.1859  -40.1309 H         1 UNK         0.0600 
    157 H157       -2.3181  -16.5944  -40.3244 H         1 UNK         0.0600 
    158 H158       -1.3710  -17.9100  -39.6302 H         1 UNK         0.0600 
    159 H159        0.0288  -16.8082  -41.3610 H         1 UNK         0.3000 
    160 H160        2.0450  -17.0092  -44.2845 H         1 UNK         0.0600 
    161 H161        0.6333  -14.5843  -43.0659 H         1 UNK         0.0600 
    162 H162        0.7056  -15.0124  -44.7700 H         1 UNK         0.0600 
    163 H163        2.1686  -14.5287  -43.9304 H         1 UNK         0.0600 
    164 H164        2.5728  -15.7717  -41.8003 H         1 UNK         0.3000 
    165 H165        3.4584  -18.4659  -39.8562 H         1 UNK         0.0600 
    166 H166        5.6524  -17.4191  -41.7171 H         1 UNK         0.0600 
    167 H167        5.9047  -18.1190  -40.1198 H         1 UNK         0.0600 
    168 H168        5.2654  -19.1078  -41.4227 H         1 UNK         0.0600 
    169 H169        4.5534  -15.7701  -40.2373 H         1 UNK         0.3000 
    170 H170        2.0533  -14.1612  -38.3545 H         1 UNK         0.0600 
    171 H171        3.2910  -15.2015  -36.4460 H         1 UNK         0.0600 
    172 H172        4.8206  -14.9077  -37.2645 H         1 UNK         0.0600 
    173 H173        3.8247  -13.5529  -36.7297 H         1 UNK         0.0600 
    174 H174        4.6274  -13.2530  -39.1093 H         1 UNK         0.3000 
    175 H175        3.5395  -11.4842  -41.7204 H         1 UNK         0.0600 
    176 H176        5.9670  -11.0860  -41.3760 H         1 UNK         0.0600 
    177 H177        5.1471  -11.2654  -39.8384 H         1 UNK         0.0600 
    178 H178        6.1230  -12.5886  -40.4776 H         1 UNK         0.0600 
    179 H179        4.2466  -12.4373  -43.5920 H         1 UNK         0.3000 
    180 H180        6.6412  -14.4262  -44.5410 H         1 UNK         0.0600 
    181 H181        5.4235  -16.2155  -45.7232 H         1 UNK         0.0600 
    182 H182        5.5560  -16.6173  -44.0200 H         1 UNK         0.0600 
    183 H183        4.0352  -16.0147  -44.6667 H         1 UNK         0.0600 
    184 H184        3.9432  -13.7551  -45.6162 H         1 UNK         0.3000 
    185 H185        3.9365  -11.1496  -46.4142 H         1 UNK         0.0600 
    186 H186        4.8207  -10.1820  -48.5271 H         1 UNK         0.0600 
    187 H187        5.9965  -10.0496  -47.2325 H         1 UNK         0.0600 
    188 H188        6.1978  -11.2827  -48.4727 H         1 UNK         0.0600 
    189 H189        4.2302  -12.7059  -48.8433 H         1 UNK         0.3000 
    190 H190       -2.3241  -21.9135  -44.4758 H         1 UNK         0.3000 
    191 H191       -4.2637  -23.7214  -45.5954 H         1 UNK         0.0600 
    192 H192       -3.8783  -24.9826  -43.4818 H         1 UNK         0.0600 
    193 H193       -4.1260  -23.2727  -43.1606 H         1 UNK         0.0600 
    194 H194       -2.5033  -23.9558  -43.0958 H         1 UNK         0.0600 
    195 H195       -0.7162  -23.9013  -45.0371 H         1 UNK         0.3000 
    196 H196       -0.3462  -26.5610  -45.9045 H         1 UNK         0.0600 
    197 H197        2.0510  -25.9465  -45.9950 H         1 UNK         0.0600 
    198 H198        1.3076  -25.2654  -44.5551 H         1 UNK         0.0600 
    199 H199        1.6460  -24.2371  -45.9472 H         1 UNK         0.0600 
    200 H200       -0.2052  -23.4980  -47.7720 H         1 UNK         0.3000 
    201 H201        0.4752  -24.7381  -50.2893 H         1 UNK         0.0600 
    202 H202        0.9959  -22.3571  -49.7498 H         1 UNK         0.0600 
    203 H203       -0.7253  -21.9898  -49.6399 H         1 UNK         0.0600 
    204 H204       -0.0185  -22.4609  -51.1804 H         1 UNK         0.0600 
    205 H205       -2.4529  -24.5359  -48.5222 H         1 UNK         0.3000 
    206 H206       -4.6103  -24.8624  -48.8530 H         1 UNK         0.0600 
    207 H207       -3.8947  -27.0554  -49.8289 H         1 UNK         0.0600 
    208 H208       -5.3777  -26.4654  -50.5636 H         1 UNK         0.0600 
    209 H209       -3.8595  -26.3337  -51.4378 H         1 UNK         0.0600 
    210 H210       -3.8121  -22.4070  -49.3517 H         1 UNK         0.3000 
    211 H211       -4.0075  -21.2221  -51.8312 H         1 UNK         0.0600 
    212 H212       -4.5791  -20.0967  -49.0649 H         1 UNK         0.0600 
    213 H213       -4.2633  -19.1036  -50.4778 H         1 UNK         0.0600 
    214 H214       -3.0045  -20.1596  -49.8579 H         1 UNK         0.0600 
    215 H215       -6.7047  -22.1660  -49.8217 H         1 UNK         0.3000 
    216 H216       -8.7472  -20.5002  -50.9060 H         1 UNK         0.0600 
    217 H217      -10.2636  -22.1961  -49.8643 H         1 UNK         0.0600 
    218 H218       -8.9801  -21.7297  -48.7607 H         1 UNK         0.0600 
    219 H219       -8.8979  -23.2754  -49.6080 H         1 UNK         0.0600 
    220 H220       -7.0964  -23.2529  -52.3043 H         1 UNK         0.3000 
    221 H221       -9.1766  -24.0645  -54.1440 H         1 UNK         0.0600 
    222 H222       -6.1395  -24.4955  -54.2117 H         1 UNK         0.0600 
    223 H223       -7.3123  -25.5808  -53.4716 H         1 UNK         0.0600 
    224 H224       -7.3195  -25.3324  -55.2119 H         1 UNK         0.0600 
    225 H225       -9.6179  -23.3021  -56.1392 H         1 UNK         0.3000 
    226 H226       -8.5668  -20.7835  -57.1051 H         1 UNK         0.0600 
    227 H227      -10.3053  -21.0903  -58.8518 H         1 UNK         0.0600 
    228 H228      -10.6065  -22.7333  -58.2961 H         1 UNK         0.0600 
    229 H229      -10.9757  -21.3603  -57.2525 H         1 UNK         0.0600 
    230 H230       -6.4119  -22.1150  -56.9849 H         1 UNK         0.3000 
    231 H231       -5.2882  -22.3138  -59.6025 H         1 UNK         0.0600 
    232 H232       -4.5279  -24.7194  -59.4322 H         1 UNK         0.0600 
    233 H233       -6.2695  -24.6046  -59.6099 H         1 UNK         0.0600 
    234 H234       -5.5670  -24.9440  -58.0293 H         1 UNK         0.0600 
    235 H235       -5.1180  -22.8653  -56.0893 H         1 UNK         0.3000 
    236 H236       -2.2376  -22.5204  -55.8863 H         1 UNK         0.0600 
    237 H237       -4.4791  -22.5777  -53.7982 H         1 UNK         0.0600 
    238 H238       -3.4225  -23.9109  -54.2411 H         1 UNK         0.0600 
    239 H239       -2.7556  -22.5052  -53.4329 H         1 UNK         0.0600 
    240 H240       -4.9510  -20.5916  -54.4761 H         1 UNK         0.3000 
    241 H241       -3.7492  -18.1015  -55.5280 H         1 UNK         0.0600 
    242 H242       -7.6924  -18.6674  -55.7115 H         1 UNK         0.3800 
    243 H243       -6.6610  -20.0052  -55.2884 H         1 UNK         0.3800 
    244 H244       -4.6723  -18.3396  -52.6255 H         1 UNK         0.0800 
    245 H245       -4.1606  -16.8903  -53.4289 H         1 UNK         0.0800 
    246 H246       -0.9009  -16.3659  -52.5701 H         1 UNK         0.0800 
    247 H247       -2.5548  -15.9809  -52.1946 H         1 UNK         0.0800 
@<TRIPOS>BOND
     1    1    2 1    
     2    1  127 1    
     3    1  128 1    
     4    1  129 1    
     5    2    3 2    
     6    2    4 am   BACKBONE|DICT|INTERRES
     7    4    5 1    
     8    4  130 1    
     9    5    6 1    
    10    5   65 1    
    11    5  131 1    
    12    6    7 1    
    13    6  132 1    
    14    6  133 1    
    15    7    8 1    
    16    8    9 1    
    17    8  134 1    
    18    8  135 1    
    19    9   10 ar   
    20    9   14 ar   
    21   10   11 ar   
    22   10  136 1    
    23   11   12 ar   
    24   11  126 1    
    25   12   13 ar   
    26   12  137 1    
    27   13   14 ar   
    28   13   15 1    
    29   14  138 1    
    30   15   16 1    
    31   15  139 1    
    32   15  140 1    
    33   16   17 1    
    34   17   18 1    
    35   17  141 1    
    36   17  142 1    
    37   18   19 1    
    38   18   67 1    
    39   18  143 1    
    40   19   20 am   BACKBONE|DICT|INTERRES
    41   19  144 1    
    42   20   21 2    
    43   20   22 1    
    44   22   23 1    
    45   22   24 1    
    46   22  145 1    
    47   23  146 1    
    48   23  147 1    
    49   23  148 1    
    50   24   25 am   BACKBONE|DICT|INTERRES
    51   24  149 1    
    52   25   26 2    
    53   25   27 1    
    54   27   28 1    
    55   27   29 1    
    56   27  150 1    
    57   28  151 1    
    58   28  152 1    
    59   28  153 1    
    60   29   30 am   BACKBONE|DICT|INTERRES
    61   29  154 1    
    62   30   31 2    
    63   30   32 1    
    64   32   33 1    
    65   32   34 1    
    66   32  155 1    
    67   33  156 1    
    68   33  157 1    
    69   33  158 1    
    70   34   35 am   BACKBONE|DICT|INTERRES
    71   34  159 1    
    72   35   36 2    
    73   35   37 1    
    74   37   38 1    
    75   37   39 1    
    76   37  160 1    
    77   38  161 1    
    78   38  162 1    
    79   38  163 1    
    80   39   40 am   BACKBONE|DICT|INTERRES
    81   39  164 1    
    82   40   41 2    
    83   40   42 1    
    84   42   43 1    
    85   42   44 1    
    86   42  165 1    
    87   43  166 1    
    88   43  167 1    
    89   43  168 1    
    90   44   45 am   BACKBONE|DICT|INTERRES
    91   44  169 1    
    92   45   46 2    
    93   45   47 1    
    94   47   48 1    
    95   47   49 1    
    96   47  170 1    
    97   48  171 1    
    98   48  172 1    
    99   48  173 1    
   100   49   50 am   BACKBONE|DICT|INTERRES
   101   49  174 1    
   102   50   51 2    
   103   50   52 1    
   104   52   53 1    
   105   52   54 1    
   106   52  175 1    
   107   53  176 1    
   108   53  177 1    
   109   53  178 1    
   110   54   55 am   BACKBONE|DICT|INTERRES
   111   54  179 1    
   112   55   56 2    
   113   55   57 1    
   114   57   58 1    
   115   57   59 1    
   116   57  180 1    
   117   58  181 1    
   118   58  182 1    
   119   58  183 1    
   120   59   60 am   BACKBONE|DICT|INTERRES
   121   59  184 1    
   122   60   61 2    
   123   60   62 1    
   124   62   63 1    
   125   62   64 1    
   126   62  185 1    
   127   63  186 1    
   128   63  187 1    
   129   63  188 1    
   130   64   65 am   BACKBONE|DICT|INTERRES
   131   64  189 1    
   132   65   66 2    
   133   67   68 2    
   134   67   69 am   BACKBONE|DICT|INTERRES
   135   69   70 1    
   136   69  190 1    
   137   70   71 1    
   138   70   72 1    
   139   70  191 1    
   140   71  192 1    
   141   71  193 1    
   142   71  194 1    
   143   72   73 2    
   144   72   74 am   BACKBONE|DICT|INTERRES
   145   74   75 1    
   146   74  195 1    
   147   75   76 1    
   148   75   77 1    
   149   75  196 1    
   150   76  197 1    
   151   76  198 1    
   152   76  199 1    
   153   77   78 2    
   154   77   79 am   BACKBONE|DICT|INTERRES
   155   79   80 1    
   156   79  200 1    
   157   80   81 1    
   158   80   82 1    
   159   80  201 1    
   160   81  202 1    
   161   81  203 1    
   162   81  204 1    
   163   82   83 2    
   164   82   84 am   BACKBONE|DICT|INTERRES
   165   84   85 1    
   166   84  205 1    
   167   85   86 1    
   168   85   87 1    
   169   85  206 1    
   170   86  207 1    
   171   86  208 1    
   172   86  209 1    
   173   87   88 2    
   174   87   89 am   BACKBONE|DICT|INTERRES
   175   89   90 1    
   176   89  210 1    
   177   90   91 1    
   178   90   92 1    
   179   90  211 1    
   180   91  212 1    
   181   91  213 1    
   182   91  214 1    
   183   92   93 2    
   184   92   94 am   BACKBONE|DICT|INTERRES
   185   94   95 1    
   186   94  215 1    
   187   95   96 1    
   188   95   97 1    
   189   95  216 1    
   190   96  217 1    
   191   96  218 1    
   192   96  219 1    
   193   97   98 2    
   194   97   99 am   BACKBONE|DICT|INTERRES
   195   99  100 1    
   196   99  220 1    
   197  100  101 1    
   198  100  102 1    
   199  100  221 1    
   200  101  222 1    
   201  101  223 1    
   202  101  224 1    
   203  102  103 2    
   204  102  104 am   BACKBONE|DICT|INTERRES
   205  104  105 1    
   206  104  225 1    
   207  105  106 1    
   208  105  107 1    
   209  105  226 1    
   210  106  227 1    
   211  106  228 1    
   212  106  229 1    
   213  107  108 2    
   214  107  109 am   BACKBONE|DICT|INTERRES
   215  109  110 1    
   216  109  230 1    
   217  110  111 1    
   218  110  112 1    
   219  110  231 1    
   220  111  232 1    
   221  111  233 1    
   222  111  234 1    
   223  112  113 2    
   224  112  114 am   BACKBONE|DICT|INTERRES
   225  114  115 1    
   226  114  235 1    
   227  115  116 1    
   228  115  117 1    
   229  115  236 1    
   230  116  237 1    
   231  116  238 1    
   232  116  239 1    
   233  117  118 2    
   234  117  119 am   BACKBONE|DICT|INTERRES
   235  119  120 1    
   236  119  240 1    
   237  120  121 1    
   238  120  124 1    
   239  120  241 1    
   240  121  122 am   BACKBONE|DICT|INTERRES
   241  121  123 2    
   242  122  242 1    
   243  122  243 1    
   244  124  125 1    
   245  124  244 1    
   246  124  245 1    
   247  125  126 1    
   248  126  246 1    
   249  126  247 1    
@<TRIPOS>SUBSTRUCTURE
     1 UNK         1 GROUP             0       ****    0 ROOT    
