@<TRIPOS>MOLECULE
3R540
247   249    1
SMALL
USER_CHARGES


@<TRIPOS>ATOM
      1 CA          5.6462  -11.0589  -49.8332 C.3       0 UNK        -0.1800 
      2 C           4.4675  -11.8758  -49.3236 C.2       0 UNK         0.5000 
      3 O           3.9584  -11.6063  -48.2347 O.2       0 UNK        -0.5000 
      4 N           4.0282  -12.8704  -50.1044 N.am      1 UNK        -0.5000 
      5 CA          2.9057  -13.7605  -49.7918 C.3       1 UNK         0.1400 
      6 C6          3.0068  -15.1165  -50.5328 C.3       23 UNK        -0.0398 
      7 S7          4.4237  -16.1139  -49.9619 S.3       23 UNK        -0.2404 
      8 C8          4.2353  -17.6233  -50.9668 C.3       23 UNK        -0.0205 
      9 C9          2.8972  -18.3110  -50.7342 C.ar      23 UNK        -0.0193 
     10 C10         1.8810  -18.2101  -51.6877 C.ar      23 UNK        -0.1150 
     11 C11         0.6368  -18.8048  -51.4648 C.ar      23 UNK        -0.0193 
     12 C12         0.4195  -19.5323  -50.2914 C.ar      23 UNK        -0.1150 
     13 C13         1.4273  -19.6404  -49.3286 C.ar      23 UNK        -0.0193 
     14 C14         2.6635  -19.0257  -49.5564 C.ar      23 UNK        -0.1150 
     15 C15         1.1524  -20.3447  -48.0085 C.3       23 UNK        -0.0205 
     16 S16         2.3747  -21.6341  -47.6160 S.3       23 UNK        -0.2404 
     17 C17         1.6400  -23.1273  -48.3662 C.3       23 UNK        -0.0398 
     18 CA          0.7760  -23.9745  -47.3902 C.3       11 UNK         0.1400 
     19 N           1.3388  -24.0482  -46.0374 N.am      11 UNK        -0.5000 
     20 C           0.8875  -24.8334  -45.0522 C.2       10 UNK         0.5000 
     21 O          -0.0170  -25.6538  -45.2046 O.2       10 UNK        -0.5000 
     22 CA          1.4970  -24.6274  -43.6522 C.3       10 UNK         0.1400 
     23 CB          2.5996  -25.6640  -43.3931 C.3       10 UNK        -0.1800 
     24 N           2.0351  -23.2821  -43.4125 N.am      10 UNK        -0.5000 
     25 C           1.3282  -22.1425  -43.4295 C.2       9 UNK         0.5000 
     26 O           0.1343  -22.0861  -43.7336 O.2       9 UNK        -0.5000 
     27 CA          2.1113  -20.8650  -43.0803 C.3       9 UNK         0.1400 
     28 CB          2.8865  -20.3478  -44.3000 C.3       9 UNK        -0.1800 
     29 N           1.2247  -19.7993  -42.6171 N.am      9 UNK        -0.5000 
     30 C           1.0709  -19.4387  -41.3359 C.2       8 UNK         0.5000 
     31 O           1.6253  -20.0169  -40.3995 O.2       8 UNK        -0.5000 
     32 CA          0.1830  -18.2154  -41.0260 C.3       8 UNK         0.1400 
     33 CB          1.0470  -17.0203  -40.5925 C.3       8 UNK        -0.1800 
     34 N          -0.6507  -17.8008  -42.1527 N.am      8 UNK        -0.5000 
     35 C          -1.8297  -18.3536  -42.4645 C.2       7 UNK         0.5000 
     36 O          -2.3558  -19.2494  -41.8032 O.2       7 UNK        -0.5000 
     37 CA         -2.5529  -17.8240  -43.7202 C.3       7 UNK         0.1400 
     38 CB         -3.6595  -16.8368  -43.3184 C.3       7 UNK        -0.1800 
     39 N          -1.6892  -17.1918  -44.7234 N.am      7 UNK        -0.5000 
     40 C          -0.6338  -17.7617  -45.3250 C.2       6 UNK         0.5000 
     41 O          -0.2365  -18.8990  -45.0812 O.2       6 UNK        -0.5000 
     42 CA          0.1517  -16.8915  -46.3199 C.3       6 UNK         0.1400 
     43 CB         -0.5394  -16.8678  -47.6921 C.3       6 UNK        -0.1800 
     44 N           0.3404  -15.5236  -45.8433 N.am      6 UNK        -0.5000 
     45 C           0.9970  -15.1723  -44.7287 C.2       5 UNK         0.5000 
     46 O           1.5446  -15.9731  -43.9711 O.2       5 UNK        -0.5000 
     47 CA          1.0040  -13.6740  -44.3864 C.3       5 UNK         0.1400 
     48 CB          2.0399  -12.9170  -45.2337 C.3       5 UNK        -0.1800 
     49 N          -0.3207  -13.0854  -44.5814 N.am      5 UNK        -0.5000 
     50 C          -1.3387  -13.2200  -43.7199 C.2       4 UNK         0.5000 
     51 O          -1.2444  -13.7974  -42.6365 O.2       4 UNK        -0.5000 
     52 CA         -2.6942  -12.6155  -44.1368 C.3       4 UNK         0.1400 
     53 CB         -2.8240  -11.1772  -43.6133 C.3       4 UNK        -0.1800 
     54 N          -2.9146  -12.6184  -45.5845 N.am      4 UNK        -0.5000 
     55 C          -3.1086  -13.7225  -46.3188 C.2       3 UNK         0.5000 
     56 O          -3.1145  -14.8607  -45.8524 O.2       3 UNK        -0.5000 
     57 CA         -3.2546  -13.5193  -47.8399 C.3       3 UNK         0.1400 
     58 CB         -4.6910  -13.1060  -48.1934 C.3       3 UNK        -0.1800 
     59 N          -2.3094  -12.5468  -48.4060 N.am      3 UNK        -0.5000 
     60 C          -0.9783  -12.6326  -48.2850 C.2       2 UNK         0.5000 
     61 O          -0.4171  -13.4909  -47.6011 O.2       2 UNK        -0.5000 
     62 CA         -0.1255  -11.5694  -49.0034 C.3       2 UNK         0.1400 
     63 CB         -0.0528  -10.2862  -48.1619 C.3       2 UNK        -0.1800 
     64 N           1.2328  -12.0747  -49.2036 N.am      2 UNK        -0.5000 
     65 C           1.5538  -13.0610  -50.0489 C.2       1 UNK         0.5000 
     66 O           0.8272  -13.4247  -50.9754 O.2       1 UNK        -0.5000 
     67 C          -0.7051  -23.5370  -47.4120 C.2       11 UNK         0.5000 
     68 O          -1.4145  -23.9338  -48.3324 O.2       11 UNK        -0.5000 
     69 N          -1.1552  -22.7700  -46.4059 N.am      12 UNK        -0.5000 
     70 CA         -2.5551  -22.3727  -46.2542 C.3       12 UNK         0.1400 
     71 CB         -2.6273  -20.9659  -45.6570 C.3       12 UNK        -0.1800 
     72 C          -3.3850  -23.3650  -45.4204 C.2       12 UNK         0.5000 
     73 O          -4.6137  -23.3071  -45.4809 O.2       12 UNK        -0.5000 
     74 N          -2.7253  -24.2561  -44.6656 N.am      13 UNK        -0.5000 
     75 CA         -3.3703  -25.4035  -44.0214 C.3       13 UNK         0.1400 
     76 CB         -2.5036  -25.9080  -42.8566 C.3       13 UNK        -0.1800 
     77 C          -3.6332  -26.5183  -45.0515 C.2       13 UNK         0.5000 
     78 O          -4.6876  -27.1542  -45.0169 O.2       13 UNK        -0.5000 
     79 N          -2.6793  -26.6958  -45.9744 N.am      14 UNK        -0.5000 
     80 CA         -2.8136  -27.4726  -47.2031 C.3       14 UNK         0.1400 
     81 CB         -1.3969  -27.7840  -47.7200 C.3       14 UNK        -0.1800 
     82 C          -3.6358  -26.7160  -48.2708 C.2       14 UNK         0.5000 
     83 O          -4.0438  -25.5727  -48.0617 O.2       14 UNK        -0.5000 
     84 N          -3.8388  -27.3657  -49.4231 N.am      15 UNK        -0.5000 
     85 CA         -4.4539  -26.7731  -50.6168 C.3       15 UNK         0.1400 
     86 CB         -5.2720  -27.8609  -51.3329 C.3       15 UNK        -0.1800 
     87 C          -3.4127  -26.1509  -51.5744 C.2       15 UNK         0.5000 
     88 O          -3.7873  -25.6883  -52.6540 O.2       15 UNK        -0.5000 
     89 N          -2.1280  -26.1803  -51.1875 N.am      16 UNK        -0.5000 
     90 CA         -0.9721  -25.7178  -51.9567 C.3       16 UNK         0.1400 
     91 CB          0.2978  -25.9112  -51.1135 C.3       16 UNK        -0.1800 
     92 C          -1.1066  -24.2527  -52.4074 C.2       16 UNK         0.5000 
     93 O          -1.3711  -23.3822  -51.5777 O.2       16 UNK        -0.5000 
     94 N          -0.9582  -24.0218  -53.7199 N.am      17 UNK        -0.5000 
     95 CA         -1.0927  -22.7280  -54.4047 C.3       17 UNK         0.1400 
     96 CB          0.0781  -21.7980  -54.0237 C.3       17 UNK        -0.1800 
     97 C          -2.4784  -22.0633  -54.2195 C.2       17 UNK         0.5000 
     98 O          -2.5818  -20.8380  -54.2752 O.2       17 UNK        -0.5000 
     99 N          -3.5122  -22.8939  -54.0075 N.am      18 UNK        -0.5000 
    100 CA        -4.8960  -22.5386  -53.6744 C.3       18 UNK         0.1400 
    101 CB        -5.5459  -21.6658  -54.7701 C.3       18 UNK        -0.1800 
    102 C         -5.0504  -21.9445  -52.2577 C.2       18 UNK         0.5000 
    103 O         -6.0122  -21.2180  -52.0054 O.2       18 UNK        -0.5000 
    104 N         -4.1261  -22.2884  -51.3485 N.am      19 UNK        -0.5000 
    105 CA        -4.0537  -21.8434  -49.9557 C.3       19 UNK         0.1400 
    106 CB        -5.2732  -22.3545  -49.1522 C.3       19 UNK        -0.1800 
    107 C         -3.8195  -20.3205  -49.8501 C.2       19 UNK         0.5000 
    108 O         -3.1380  -19.7513  -50.7012 O.2       19 UNK        -0.5000 
    109 N         -4.3762  -19.6730  -48.8171 N.am      20 UNK        -0.5000 
    110 CA        -4.2491  -18.2301  -48.5788 C.3       20 UNK         0.1400 
    111 CB        -4.6826  -17.9200  -47.1381 C.3       20 UNK        -0.1800 
    112 C         -5.0262  -17.3497  -49.5809 C.2       20 UNK         0.5000 
    113 O         -4.8053  -16.1381  -49.6145 O.2       20 UNK        -0.5000 
    114 N         -5.9073  -17.9570  -50.3915 N.am      21 UNK        -0.5000 
    115 CA        -6.7437  -17.2869  -51.3930 C.3       21 UNK         0.1400 
    116 CB        -7.7699  -18.2850  -51.9504 C.3       21 UNK        -0.1800 
    117 C         -5.9592  -16.6148  -52.5397 C.2       21 UNK         0.5000 
    118 O         -6.5466  -15.8247  -53.2803 O.2       21 UNK        -0.5000 
    119 N         -4.6566  -16.9074  -52.6570 N.am      22 UNK        -0.5000 
    120 CA        -3.7134  -16.1747  -53.5129 C.3       22 UNK         0.1400 
    121 C         -3.4750  -14.6887  -53.0977 C.2       22 UNK         0.5000 
    122 N         -3.7989  -14.2766  -51.8756 N.am      22 UNK        -0.7600 
    123 O         -3.0038  -13.8947  -53.9075 O.2       22 UNK        -0.5000 
    124 C124       -2.3806  -16.9475  -53.6854 C.3       23 UNK        -0.0398 
    125 S125       -1.3967  -17.0902  -52.1517 S.3       23 UNK        -0.2404 
    126 C126       -0.4792  -18.6235  -52.4783 C.3       23 UNK        -0.0205 
    127 H127        6.4768  -11.1209  -49.1301 H         1 UNK         0.0600 
    128 H128        5.3607  -10.0118  -49.9341 H         1 UNK         0.0600 
    129 H129        5.9951  -11.4120  -50.8039 H         1 UNK         0.0600 
    130 H130        4.4792  -13.0356  -50.9928 H         1 UNK         0.3000 
    131 H131        2.9320  -13.9835  -48.7223 H         1 UNK         0.0600 
    132 H132        2.1012  -15.7000  -50.3568 H         1 UNK         0.0800 
    133 H133        3.0778  -14.9704  -51.6119 H         1 UNK         0.0800 
    134 H134        4.3604  -17.3698  -52.0207 H         1 UNK         0.0800 
    135 H135        5.0429  -18.3145  -50.7218 H         1 UNK         0.0800 
    136 H136        2.0460  -17.6410  -52.5919 H         1 UNK         0.1150 
    137 H137       -0.5476  -19.9820  -50.1157 H         1 UNK         0.1150 
    138 H138        3.4397  -19.0866  -48.8064 H         1 UNK         0.1150 
    139 H139        1.1899  -19.5973  -47.2186 H         1 UNK         0.0800 
    140 H140        0.1441  -20.7584  -47.9830 H         1 UNK         0.0800 
    141 H141        1.0911  -22.8584  -49.2718 H         1 UNK         0.0800 
    142 H142        2.4733  -23.7401  -48.7119 H         1 UNK         0.0800 
    143 H143        0.7806  -24.9969  -47.7736 H         1 UNK         0.0600 
    144 H144        2.0707  -23.3833  -45.8315 H         1 UNK         0.3000 
    145 H145        0.6969  -24.7931  -42.9278 H         1 UNK         0.0600 
    146 H146        2.9704  -25.5994  -42.3699 H         1 UNK         0.0600 
    147 H147        2.2243  -26.6783  -43.5368 H         1 UNK         0.0600 
    148 H148        3.4459  -25.5284  -44.0677 H         1 UNK         0.0600 
    149 H149        3.0149  -23.2375  -43.1714 H         1 UNK         0.3000 
    150 H150        2.8374  -21.1160  -42.3044 H         1 UNK         0.0600 
    151 H151        3.5562  -21.1098  -44.7002 H         1 UNK         0.0600 
    152 H152        3.4976  -19.4838  -44.0385 H         1 UNK         0.0600 
    153 H153        2.2128  -20.0443  -45.0999 H         1 UNK         0.0600 
    154 H154        0.6664  -19.3488  -43.3360 H         1 UNK         0.3000 
    155 H155       -0.4616  -18.4837  -40.1863 H         1 UNK         0.0600 
    156 H156        1.6325  -17.2625  -39.7048 H         1 UNK         0.0600 
    157 H157        0.4312  -16.1542  -40.3489 H         1 UNK         0.0600 
    158 H158        1.7467  -16.7251  -41.3749 H         1 UNK         0.0600 
    159 H159       -0.2700  -17.0878  -42.7609 H         1 UNK         0.3000 
    160 H160       -3.0309  -18.6803  -44.1933 H         1 UNK         0.0600 
    161 H161       -3.2441  -15.9097  -42.9217 H         1 UNK         0.0600 
    162 H162       -4.3094  -17.2617  -42.5524 H         1 UNK         0.0600 
    163 H163       -4.2914  -16.5857  -44.1702 H         1 UNK         0.0600 
    164 H164       -1.9670  -16.2615  -45.0222 H         1 UNK         0.3000 
    165 H165        1.1416  -17.3352  -46.4421 H         1 UNK         0.0600 
    166 H166        0.0739  -16.3565  -48.4348 H         1 UNK         0.0600 
    167 H167       -0.7189  -17.8784  -48.0599 H         1 UNK         0.0600 
    168 H168       -1.5028  -16.3594  -47.6482 H         1 UNK         0.0600 
    169 H169       -0.0488  -14.7856  -46.4280 H         1 UNK         0.3000 
    170 H170        1.2870  -13.5681  -43.3367 H         1 UNK         0.0600 
    171 H171        3.0422  -13.3128  -45.0655 H         1 UNK         0.0600 
    172 H172        1.8355  -12.9972  -46.3012 H         1 UNK         0.0600 
    173 H173        2.0619  -11.8579  -44.9769 H         1 UNK         0.0600 
    174 H174       -0.5004  -12.6654  -45.4823 H         1 UNK         0.3000 
    175 H175       -3.4784  -13.2190  -43.6744 H         1 UNK         0.0600 
    176 H176       -2.0781  -10.5176  -44.0586 H         1 UNK         0.0600 
    177 H177       -3.8099  -10.7657  -43.8304 H         1 UNK         0.0600 
    178 H178       -2.6897  -11.1419  -42.5313 H         1 UNK         0.0600 
    179 H179       -2.9077  -11.7233  -46.0509 H         1 UNK         0.3000 
    180 H180       -3.0521  -14.4810  -48.3154 H         1 UNK         0.0600 
    181 H181       -4.9445  -12.1281  -47.7827 H         1 UNK         0.0600 
    182 H182       -5.4098  -13.8263  -47.8000 H         1 UNK         0.0600 
    183 H183       -4.8364  -13.0670  -49.2728 H         1 UNK         0.0600 
    184 H184       -2.7063  -11.8017  -48.9596 H         1 UNK         0.3000 
    185 H185       -0.5734  -11.3445  -49.9734 H         1 UNK         0.0600 
    186 H186       -1.0446   -9.8590  -48.0089 H         1 UNK         0.0600 
    187 H187        0.3805  -10.4733  -47.1782 H         1 UNK         0.0600 
    188 H188        0.5542   -9.5266  -48.6550 H         1 UNK         0.0600 
    189 H189        1.9229  -11.8181  -48.5065 H         1 UNK         0.3000 
    190 H190       -0.5255  -22.4880  -45.6611 H         1 UNK         0.3000 
    191 H191       -3.0207  -22.3269  -47.2368 H         1 UNK         0.0600 
    192 H192       -2.1157  -20.9112  -44.6956 H         1 UNK         0.0600 
    193 H193       -3.6621  -20.6611  -45.4984 H         1 UNK         0.0600 
    194 H194       -2.1738  -20.2377  -46.3288 H         1 UNK         0.0600 
    195 H195       -1.7153  -24.2510  -44.6819 H         1 UNK         0.3000 
    196 H196       -4.3313  -25.0872  -43.6101 H         1 UNK         0.0600 
    197 H197       -3.0130  -26.7064  -42.3158 H         1 UNK         0.0600 
    198 H198       -2.2991  -25.1103  -42.1424 H         1 UNK         0.0600 
    199 H199       -1.5486  -26.3069  -43.1972 H         1 UNK         0.0600 
    200 H200       -1.8284  -26.1518  -45.8850 H         1 UNK         0.3000 
    201 H201       -3.3242  -28.4104  -46.9756 H         1 UNK         0.0600 
    202 H202       -0.7986  -28.2767  -46.9531 H         1 UNK         0.0600 
    203 H203       -0.8704  -26.8762  -48.0170 H         1 UNK         0.0600 
    204 H204       -1.4204  -28.4503  -48.5827 H         1 UNK         0.0600 
    205 H205       -3.4903  -28.3086  -49.5249 H         1 UNK         0.3000 
    206 H206       -5.1395  -25.9745  -50.3259 H         1 UNK         0.0600 
    207 H207       -6.0282  -28.2841  -50.6715 H         1 UNK         0.0600 
    208 H208       -5.7944  -27.4542  -52.1998 H         1 UNK         0.0600 
    209 H209       -4.6381  -28.6761  -51.6840 H         1 UNK         0.0600 
    210 H210       -1.9326  -26.5244  -50.2609 H         1 UNK         0.3000 
    211 H211       -0.8959  -26.3545  -52.8403 H         1 UNK         0.0600 
    212 H212        1.1850  -25.5962  -51.6643 H         1 UNK         0.0600 
    213 H213        0.4381  -26.9573  -50.8408 H         1 UNK         0.0600 
    214 H214        0.2578  -25.3266  -50.1944 H         1 UNK         0.0600 
    215 H215       -0.7640  -24.8084  -54.3242 H         1 UNK         0.3000 
    216 H216       -1.0077  -22.9379  -55.4718 H         1 UNK         0.0600 
    217 H217        0.0554  -20.8763  -54.6056 H         1 UNK         0.0600 
    218 H218        1.0384  -22.2758  -54.2167 H         1 UNK         0.0600 
    219 H219        0.0496  -21.5242  -52.9689 H         1 UNK         0.0600 
    220 H220       -3.3109  -23.8851  -53.9473 H         1 UNK         0.3000 
    221 H221       -5.4401  -23.4838  -53.6538 H         1 UNK         0.0600 
    222 H222       -6.6215  -21.5809  -54.6115 H         1 UNK         0.0600 
    223 H223       -5.3980  -22.0970  -55.7600 H         1 UNK         0.0600 
    224 H224       -5.1415  -20.6534  -54.7780 H         1 UNK         0.0600 
    225 H225       -3.3173  -22.8159  -51.6605 H         1 UNK         0.3000 
    226 H226       -3.1598  -22.3158  -49.5498 H         1 UNK         0.0600 
    227 H227       -5.3984  -23.4295  -49.2819 H         1 UNK         0.0600 
    228 H228       -5.1584  -22.1808  -48.0829 H         1 UNK         0.0600 
    229 H229       -6.2016  -21.8742  -49.4619 H         1 UNK         0.0600 
    230 H230       -4.9478  -20.1906  -48.1657 H         1 UNK         0.3000 
    231 H231       -3.1955  -17.9620  -48.6786 H         1 UNK         0.0600 
    232 H232       -4.6144  -16.8518  -46.9288 H         1 UNK         0.0600 
    233 H233       -4.0423  -18.4256  -46.4174 H         1 UNK         0.0600 
    234 H234       -5.7126  -18.2251  -46.9511 H         1 UNK         0.0600 
    235 H235       -5.9958  -18.9617  -50.3359 H         1 UNK         0.3000 
    236 H236       -7.2910  -16.4957  -50.8766 H         1 UNK         0.0600 
    237 H237       -8.3174  -18.7855  -51.1516 H         1 UNK         0.0600 
    238 H238       -8.5034  -17.7773  -52.5779 H         1 UNK         0.0600 
    239 H239       -7.2933  -19.0479  -52.5653 H         1 UNK         0.0600 
    240 H240       -4.2469  -17.5693  -52.0121 H         1 UNK         0.3000 
    241 H241       -4.1733  -16.1282  -54.5018 H         1 UNK         0.0600 
    242 H242       -3.6473  -13.3134  -51.6276 H         1 UNK         0.3800 
    243 H243       -4.1636  -14.9263  -51.1882 H         1 UNK         0.3800 
    244 H244       -2.5917  -17.9490  -54.0642 H         1 UNK         0.0800 
    245 H245       -1.7615  -16.4676  -54.4451 H         1 UNK         0.0800 
    246 H246       -1.1665  -19.4691  -52.4433 H         1 UNK         0.0800 
    247 H247       -0.0653  -18.5973  -53.4873 H         1 UNK         0.0800 
@<TRIPOS>BOND
     1    1    2 1    
     2    1  127 1    
     3    1  128 1    
     4    1  129 1    
     5    2    3 2    
     6    2    4 am   BACKBONE|DICT|INTERRES
     7    4    5 1    
     8    4  130 1    
     9    5    6 1    
    10    5   65 1    
    11    5  131 1    
    12    6    7 1    
    13    6  132 1    
    14    6  133 1    
    15    7    8 1    
    16    8    9 1    
    17    8  134 1    
    18    8  135 1    
    19    9   10 ar   
    20    9   14 ar   
    21   10   11 ar   
    22   10  136 1    
    23   11   12 ar   
    24   11  126 1    
    25   12   13 ar   
    26   12  137 1    
    27   13   14 ar   
    28   13   15 1    
    29   14  138 1    
    30   15   16 1    
    31   15  139 1    
    32   15  140 1    
    33   16   17 1    
    34   17   18 1    
    35   17  141 1    
    36   17  142 1    
    37   18   19 1    
    38   18   67 1    
    39   18  143 1    
    40   19   20 am   BACKBONE|DICT|INTERRES
    41   19  144 1    
    42   20   21 2    
    43   20   22 1    
    44   22   23 1    
    45   22   24 1    
    46   22  145 1    
    47   23  146 1    
    48   23  147 1    
    49   23  148 1    
    50   24   25 am   BACKBONE|DICT|INTERRES
    51   24  149 1    
    52   25   26 2    
    53   25   27 1    
    54   27   28 1    
    55   27   29 1    
    56   27  150 1    
    57   28  151 1    
    58   28  152 1    
    59   28  153 1    
    60   29   30 am   BACKBONE|DICT|INTERRES
    61   29  154 1    
    62   30   31 2    
    63   30   32 1    
    64   32   33 1    
    65   32   34 1    
    66   32  155 1    
    67   33  156 1    
    68   33  157 1    
    69   33  158 1    
    70   34   35 am   BACKBONE|DICT|INTERRES
    71   34  159 1    
    72   35   36 2    
    73   35   37 1    
    74   37   38 1    
    75   37   39 1    
    76   37  160 1    
    77   38  161 1    
    78   38  162 1    
    79   38  163 1    
    80   39   40 am   BACKBONE|DICT|INTERRES
    81   39  164 1    
    82   40   41 2    
    83   40   42 1    
    84   42   43 1    
    85   42   44 1    
    86   42  165 1    
    87   43  166 1    
    88   43  167 1    
    89   43  168 1    
    90   44   45 am   BACKBONE|DICT|INTERRES
    91   44  169 1    
    92   45   46 2    
    93   45   47 1    
    94   47   48 1    
    95   47   49 1    
    96   47  170 1    
    97   48  171 1    
    98   48  172 1    
    99   48  173 1    
   100   49   50 am   BACKBONE|DICT|INTERRES
   101   49  174 1    
   102   50   51 2    
   103   50   52 1    
   104   52   53 1    
   105   52   54 1    
   106   52  175 1    
   107   53  176 1    
   108   53  177 1    
   109   53  178 1    
   110   54   55 am   BACKBONE|DICT|INTERRES
   111   54  179 1    
   112   55   56 2    
   113   55   57 1    
   114   57   58 1    
   115   57   59 1    
   116   57  180 1    
   117   58  181 1    
   118   58  182 1    
   119   58  183 1    
   120   59   60 am   BACKBONE|DICT|INTERRES
   121   59  184 1    
   122   60   61 2    
   123   60   62 1    
   124   62   63 1    
   125   62   64 1    
   126   62  185 1    
   127   63  186 1    
   128   63  187 1    
   129   63  188 1    
   130   64   65 am   BACKBONE|DICT|INTERRES
   131   64  189 1    
   132   65   66 2    
   133   67   68 2    
   134   67   69 am   BACKBONE|DICT|INTERRES
   135   69   70 1    
   136   69  190 1    
   137   70   71 1    
   138   70   72 1    
   139   70  191 1    
   140   71  192 1    
   141   71  193 1    
   142   71  194 1    
   143   72   73 2    
   144   72   74 am   BACKBONE|DICT|INTERRES
   145   74   75 1    
   146   74  195 1    
   147   75   76 1    
   148   75   77 1    
   149   75  196 1    
   150   76  197 1    
   151   76  198 1    
   152   76  199 1    
   153   77   78 2    
   154   77   79 am   BACKBONE|DICT|INTERRES
   155   79   80 1    
   156   79  200 1    
   157   80   81 1    
   158   80   82 1    
   159   80  201 1    
   160   81  202 1    
   161   81  203 1    
   162   81  204 1    
   163   82   83 2    
   164   82   84 am   BACKBONE|DICT|INTERRES
   165   84   85 1    
   166   84  205 1    
   167   85   86 1    
   168   85   87 1    
   169   85  206 1    
   170   86  207 1    
   171   86  208 1    
   172   86  209 1    
   173   87   88 2    
   174   87   89 am   BACKBONE|DICT|INTERRES
   175   89   90 1    
   176   89  210 1    
   177   90   91 1    
   178   90   92 1    
   179   90  211 1    
   180   91  212 1    
   181   91  213 1    
   182   91  214 1    
   183   92   93 2    
   184   92   94 am   BACKBONE|DICT|INTERRES
   185   94   95 1    
   186   94  215 1    
   187   95   96 1    
   188   95   97 1    
   189   95  216 1    
   190   96  217 1    
   191   96  218 1    
   192   96  219 1    
   193   97   98 2    
   194   97   99 am   BACKBONE|DICT|INTERRES
   195   99  100 1    
   196   99  220 1    
   197  100  101 1    
   198  100  102 1    
   199  100  221 1    
   200  101  222 1    
   201  101  223 1    
   202  101  224 1    
   203  102  103 2    
   204  102  104 am   BACKBONE|DICT|INTERRES
   205  104  105 1    
   206  104  225 1    
   207  105  106 1    
   208  105  107 1    
   209  105  226 1    
   210  106  227 1    
   211  106  228 1    
   212  106  229 1    
   213  107  108 2    
   214  107  109 am   BACKBONE|DICT|INTERRES
   215  109  110 1    
   216  109  230 1    
   217  110  111 1    
   218  110  112 1    
   219  110  231 1    
   220  111  232 1    
   221  111  233 1    
   222  111  234 1    
   223  112  113 2    
   224  112  114 am   BACKBONE|DICT|INTERRES
   225  114  115 1    
   226  114  235 1    
   227  115  116 1    
   228  115  117 1    
   229  115  236 1    
   230  116  237 1    
   231  116  238 1    
   232  116  239 1    
   233  117  118 2    
   234  117  119 am   BACKBONE|DICT|INTERRES
   235  119  120 1    
   236  119  240 1    
   237  120  121 1    
   238  120  124 1    
   239  120  241 1    
   240  121  122 am   BACKBONE|DICT|INTERRES
   241  121  123 2    
   242  122  242 1    
   243  122  243 1    
   244  124  125 1    
   245  124  244 1    
   246  124  245 1    
   247  125  126 1    
   248  126  246 1    
   249  126  247 1    
@<TRIPOS>SUBSTRUCTURE
     1 UNK         1 GROUP             0       ****    0 ROOT    
