@<TRIPOS>MOLECULE
3R540
247   249    1
SMALL
USER_CHARGES


@<TRIPOS>ATOM
      1 CA         -1.4918  -15.6774  -44.6122 C.3       0 UNK        -0.1800 
      2 C          -0.8835  -15.3880  -45.9754 C.2       0 UNK         0.5000 
      3 O          -1.5859  -14.9242  -46.8735 O.2       0 UNK        -0.5000 
      4 N           0.4116  -15.6753  -46.1329 N.am      1 UNK        -0.5000 
      5 CA          1.1641  -15.5083  -47.3781 C.3       1 UNK         0.1400 
      6 C6          2.4587  -16.3658  -47.3998 C.3       23 UNK        -0.0398 
      7 S7          2.2083  -18.1152  -46.9323 S.3       23 UNK        -0.2404 
      8 C8          1.8164  -18.9085  -48.5287 C.3       23 UNK        -0.0205 
      9 C9          0.5089  -18.4150  -49.1380 C.ar      23 UNK        -0.0193 
     10 C10         0.4651  -17.9991  -50.4725 C.ar      23 UNK        -0.1150 
     11 C11        -0.7257  -17.5211  -51.0282 C.ar      23 UNK        -0.0193 
     12 C12        -1.8793  -17.4696  -50.2419 C.ar      23 UNK        -0.1150 
     13 C13        -1.8549  -17.8912  -48.9099 C.ar      23 UNK        -0.0193 
     14 C14        -0.6571  -18.3642  -48.3679 C.ar      23 UNK        -0.1150 
     15 C15        -3.1077  -17.7796  -48.0503 C.3       23 UNK        -0.0205 
     16 S16        -3.8573  -19.3948  -47.6775 S.3       23 UNK        -0.2404 
     17 C17        -2.8746  -19.9498  -46.2404 C.3       23 UNK        -0.0398 
     18 CA         -1.9571  -21.1450  -46.5916 C.3       11 UNK         0.1400 
     19 N          -0.8283  -21.2885  -45.6697 N.am      11 UNK        -0.5000 
     20 C           0.1520  -22.1922  -45.8176 C.2       10 UNK         0.5000 
     21 O           0.2576  -22.9325  -46.7953 O.2       10 UNK        -0.5000 
     22 CA          1.1414  -22.3459  -44.6523 C.3       10 UNK         0.1400 
     23 CB          2.3068  -21.3596  -44.7988 C.3       10 UNK        -0.1800 
     24 N           0.4857  -22.1703  -43.3543 N.am      10 UNK        -0.5000 
     25 C          -0.3824  -23.0493  -42.8302 C.2       9 UNK         0.5000 
     26 O          -0.6782  -24.1159  -43.3659 O.2       9 UNK        -0.5000 
     27 CA         -1.0784  -22.6504  -41.5164 C.3       9 UNK         0.1400 
     28 CB         -0.1808  -22.9628  -40.3102 C.3       9 UNK        -0.1800 
     29 N          -1.4576  -21.2381  -41.4896 N.am      9 UNK        -0.5000 
     30 C          -2.3561  -20.6734  -42.3096 C.2       8 UNK         0.5000 
     31 O          -3.0131  -21.3036  -43.1386 O.2       8 UNK        -0.5000 
     32 CA         -2.4946  -19.1394  -42.2291 C.3       8 UNK         0.1400 
     33 CB         -3.5779  -18.7427  -41.2167 C.3       8 UNK        -0.1800 
     34 N          -1.2360  -18.4747  -41.8776 N.am      8 UNK        -0.5000 
     35 C          -0.1256  -18.4984  -42.6244 C.2       7 UNK         0.5000 
     36 O          -0.0795  -19.0334  -43.7339 O.2       7 UNK        -0.5000 
     37 CA          1.1352  -17.8583  -42.0046 C.3       7 UNK         0.1400 
     38 CB          2.3614  -17.9450  -42.9290 C.3       7 UNK        -0.1800 
     39 N           0.9395  -16.4640  -41.5973 N.am      7 UNK        -0.5000 
     40 C           0.3315  -16.0637  -40.4697 C.2       6 UNK         0.5000 
     41 O          -0.2390  -16.8434  -39.7047 O.2       6 UNK        -0.5000 
     42 CA          0.3778  -14.5644  -40.1068 C.3       6 UNK         0.1400 
     43 CB          1.3516  -14.3313  -38.9409 C.3       6 UNK        -0.1800 
     44 N           0.7804  -13.7104  -41.2235 N.am      6 UNK        -0.5000 
     45 C          -0.0456  -13.2604  -42.1757 C.2       5 UNK         0.5000 
     46 O          -1.2618  -13.4492  -42.1612 O.2       5 UNK        -0.5000 
     47 CA          0.5829  -12.4748  -43.3476 C.3       5 UNK         0.1400 
     48 CB          0.2754  -10.9754  -43.2158 C.3       5 UNK        -0.1800 
     49 N           2.0322  -12.6448  -43.5167 N.am      5 UNK        -0.5000 
     50 C           2.6509  -13.8036  -43.7752 C.2       4 UNK         0.5000 
     51 O           2.0739  -14.8913  -43.8041 O.2       4 UNK        -0.5000 
     52 CA          4.1499  -13.7160  -44.0857 C.3       4 UNK         0.1400 
     53 CB          4.8598  -15.0802  -43.9606 C.3       4 UNK        -0.1800 
     54 N           4.3195  -13.1726  -45.4326 N.am      4 UNK        -0.5000 
     55 C           5.4445  -12.6020  -45.8870 C.2       3 UNK         0.5000 
     56 O           6.4346  -12.4175  -45.1772 O.2       3 UNK        -0.5000 
     57 CA          5.5064  -12.1794  -47.3707 C.3       3 UNK         0.1400 
     58 CB          6.7187  -12.8200  -48.0692 C.3       3 UNK        -0.1800 
     59 N           4.3030  -12.5509  -48.1168 N.am      3 UNK        -0.5000 
     60 C           3.3830  -11.6960  -48.5822 C.2       2 UNK         0.5000 
     61 O           3.4539  -10.4732  -48.4542 O.2       2 UNK        -0.5000 
     62 CA          2.1634  -12.3119  -49.3033 C.3       2 UNK         0.1400 
     63 CB          2.3819  -12.3071  -50.8241 C.3       2 UNK        -0.1800 
     64 N           1.8232  -13.6760  -48.8768 N.am      2 UNK        -0.5000 
     65 C           1.4937  -14.0224  -47.6251 C.2       1 UNK         0.5000 
     66 O           1.5030  -13.2246  -46.6859 O.2       1 UNK        -0.5000 
     67 C          -2.7609  -22.4550  -46.7115 C.2       11 UNK         0.5000 
     68 O          -3.0212  -22.9109  -47.8237 O.2       11 UNK        -0.5000 
     69 N          -3.1029  -23.0540  -45.5647 N.am      12 UNK        -0.5000 
     70 CA         -3.8180  -24.3232  -45.4864 C.3       12 UNK         0.1400 
     71 CB         -4.2781  -24.5586  -44.0391 C.3       12 UNK        -0.1800 
     72 C          -2.9900  -25.5132  -46.0067 C.2       12 UNK         0.5000 
     73 O          -3.4708  -26.2529  -46.8653 O.2       12 UNK        -0.5000 
     74 N          -1.7778  -25.6894  -45.4653 N.am      13 UNK        -0.5000 
     75 CA         -0.9610  -26.8830  -45.6776 C.3       13 UNK         0.1400 
     76 CB          0.0088  -27.0555  -44.4977 C.3       13 UNK        -0.1800 
     77 C          -0.1885  -26.8841  -47.0058 C.2       13 UNK         0.5000 
     78 O          -0.1990  -27.8997  -47.7027 O.2       13 UNK        -0.5000 
     79 N           0.5021  -25.7788  -47.3141 N.am      14 UNK        -0.5000 
     80 CA          1.4440  -25.7002  -48.4315 C.3       14 UNK         0.1400 
     81 CB          2.6855  -24.8948  -48.0121 C.3       14 UNK        -0.1800 
     82 C           0.7942  -25.0973  -49.6830 C.2       14 UNK         0.5000 
     83 O           0.9658  -25.6450  -50.7728 O.2       14 UNK        -0.5000 
     84 N           0.0573  -23.9903  -49.5141 N.am      15 UNK        -0.5000 
     85 CA         -0.5972  -23.2828  -50.6195 C.3       15 UNK         0.1400 
     86 CB         -0.7800  -21.8003  -50.2556 C.3       15 UNK        -0.1800 
     87 C          -1.9354  -23.9232  -51.0403 C.2       15 UNK         0.5000 
     88 O          -2.4527  -23.5639  -52.0963 O.2       15 UNK        -0.5000 
     89 N          -2.4665  -24.8455  -50.2211 N.am      16 UNK        -0.5000 
     90 CA         -3.7148  -25.5951  -50.4076 C.3       16 UNK         0.1400 
     91 CB         -3.6052  -26.5450  -51.6189 C.3       16 UNK        -0.1800 
     92 C          -4.9463  -24.6692  -50.4734 C.2       16 UNK         0.5000 
     93 O          -5.6999  -24.6970  -51.4487 O.2       16 UNK        -0.5000 
     94 N          -5.0873  -23.8200  -49.4450 N.am      17 UNK        -0.5000 
     95 CA         -6.0723  -22.7395  -49.3088 C.3       17 UNK         0.1400 
     96 CB         -7.5035  -23.3013  -49.1874 C.3       17 UNK        -0.1800 
     97 C          -5.9159  -21.6980  -50.4340 C.2       17 UNK         0.5000 
     98 O          -6.9017  -21.2687  -51.0376 O.2       17 UNK        -0.5000 
     99 N          -4.6475  -21.3881  -50.7432 N.am      18 UNK        -0.5000 
    100 CA        -4.1559  -20.5481  -51.8419 C.3       18 UNK         0.1400 
    101 CB        -4.6750  -19.1038  -51.6819 C.3       18 UNK        -0.1800 
    102 C         -4.4716  -21.0896  -53.2537 C.2       18 UNK         0.5000 
    103 O         -4.1913  -20.3935  -54.2259 O.2       18 UNK        -0.5000 
    104 N         -5.0907  -22.2779  -53.3572 N.am      19 UNK        -0.5000 
    105 CA        -5.7915  -22.7980  -54.5359 C.3       19 UNK         0.1400 
    106 CB        -4.7974  -23.1660  -55.6564 C.3       19 UNK        -0.1800 
    107 C         -6.9057  -21.8273  -54.9922 C.2       19 UNK         0.5000 
    108 O         -7.0487  -21.5578  -56.1853 O.2       19 UNK        -0.5000 
    109 N         -7.6267  -21.2698  -54.0056 N.am      20 UNK        -0.5000 
    110 CA        -8.6006  -20.1733  -54.0668 C.3       20 UNK         0.1400 
    111 CB        -9.7169  -20.4212  -55.0998 C.3       20 UNK        -0.1800 
    112 C         -7.9449  -18.7896  -54.2458 C.2       20 UNK         0.5000 
    113 O         -8.3196  -17.8557  -53.5357 O.2       20 UNK        -0.5000 
    114 N         -6.9642  -18.6801  -55.1474 N.am      21 UNK        -0.5000 
    115 CA        -6.1291  -17.5026  -55.3603 C.3       21 UNK         0.1400 
    116 CB        -6.8934  -16.4283  -56.1559 C.3       21 UNK        -0.1800 
    117 C         -4.8578  -17.9382  -56.1001 C.2       21 UNK         0.5000 
    118 O         -4.9578  -18.6630  -57.0938 O.2       21 UNK        -0.5000 
    119 N         -3.6953  -17.4971  -55.6049 N.am      22 UNK        -0.5000 
    120 CA        -2.3753  -17.8217  -56.1675 C.3       22 UNK         0.1400 
    121 C         -2.1454  -17.1709  -57.5605 C.2       22 UNK         0.5000 
    122 N         -1.4748  -17.8617  -58.4725 N.am      22 UNK        -0.7600 
    123 O         -2.5287  -16.0288  -57.8064 O.2       22 UNK        -0.5000 
    124 C124       -1.2227  -17.4403  -55.2026 C.3       23 UNK        -0.0398 
    125 S125       -1.2894  -18.3359  -53.6118 S.3       23 UNK        -0.2404 
    126 C126       -0.7638  -17.0262  -52.4657 C.3       23 UNK        -0.0205 
    127 H127       -0.7236  -15.7700  -43.8456 H         1 UNK         0.0600 
    128 H128       -2.0580  -16.6081  -44.6433 H         1 UNK         0.0600 
    129 H129       -2.1680  -14.8742  -44.3202 H         1 UNK         0.0600 
    130 H130        0.9616  -15.9519  -45.3291 H         1 UNK         0.3000 
    131 H131        0.5242  -15.8287  -48.2008 H         1 UNK         0.0600 
    132 H132        2.9263  -16.3335  -48.3851 H         1 UNK         0.0800 
    133 H133        3.1920  -15.9556  -46.7039 H         1 UNK         0.0800 
    134 H134        1.7392  -19.9848  -48.3700 H         1 UNK         0.0800 
    135 H135        2.6506  -18.7556  -49.2150 H         1 UNK         0.0800 
    136 H136        1.3597  -18.0357  -51.0782 H         1 UNK         0.1150 
    137 H137       -2.7938  -17.0825  -50.6671 H         1 UNK         0.1150 
    138 H138       -0.6151  -18.6649  -47.3322 H         1 UNK         0.1150 
    139 H139       -2.8814  -17.2547  -47.1234 H         1 UNK         0.0800 
    140 H140       -3.8550  -17.1689  -48.5589 H         1 UNK         0.0800 
    141 H141       -3.5641  -20.1991  -45.4332 H         1 UNK         0.0800 
    142 H142       -2.2827  -19.1160  -45.8622 H         1 UNK         0.0800 
    143 H143       -1.5093  -20.9473  -47.5643 H         1 UNK         0.0600 
    144 H144       -0.8056  -20.6799  -44.8599 H         1 UNK         0.3000 
    145 H145        1.5498  -23.3581  -44.6923 H         1 UNK         0.0600 
    146 H146        3.0082  -21.4438  -43.9688 H         1 UNK         0.0600 
    147 H147        2.8628  -21.5521  -45.7173 H         1 UNK         0.0600 
    148 H148        1.9562  -20.3295  -44.8464 H         1 UNK         0.0600 
    149 H149        0.6377  -21.2908  -42.8843 H         1 UNK         0.3000 
    150 H150       -1.9895  -23.2462  -41.4288 H         1 UNK         0.0600 
    151 H151        0.1031  -24.0161  -40.2985 H         1 UNK         0.0600 
    152 H152       -0.6958  -22.7562  -39.3718 H         1 UNK         0.0600 
    153 H153        0.7379  -22.3752  -40.3261 H         1 UNK         0.0600 
    154 H154       -0.9711  -20.6468  -40.8323 H         1 UNK         0.3000 
    155 H155       -2.7996  -18.7828  -43.2149 H         1 UNK         0.0600 
    156 H156       -3.3148  -19.0501  -40.2038 H         1 UNK         0.0600 
    157 H157       -4.5332  -19.2074  -41.4646 H         1 UNK         0.0600 
    158 H158       -3.7337  -17.6637  -41.2100 H         1 UNK         0.0600 
    159 H159       -1.1894  -18.0021  -40.9798 H         1 UNK         0.3000 
    160 H160        1.3724  -18.4392  -41.1110 H         1 UNK         0.0600 
    161 H161        2.1657  -17.5055  -43.9071 H         1 UNK         0.0600 
    162 H162        2.6550  -18.9817  -43.0869 H         1 UNK         0.0600 
    163 H163        3.2211  -17.4336  -42.4969 H         1 UNK         0.0600 
    164 H164        1.3358  -15.7670  -42.2204 H         1 UNK         0.3000 
    165 H165       -0.6220  -14.2766  -39.7750 H         1 UNK         0.0600 
    166 H166        1.3544  -13.2857  -38.6325 H         1 UNK         0.0600 
    167 H167        1.0693  -14.9240  -38.0697 H         1 UNK         0.0600 
    168 H168        2.3729  -14.6062  -39.2078 H         1 UNK         0.0600 
    169 H169        1.7643  -13.5027  -41.3077 H         1 UNK         0.3000 
    170 H170        0.1067  -12.8387  -44.2603 H         1 UNK         0.0600 
    171 H171       -0.7975  -10.8010  -43.1231 H         1 UNK         0.0600 
    172 H172        0.7559  -10.5429  -42.3373 H         1 UNK         0.0600 
    173 H173        0.6163  -10.4247  -44.0928 H         1 UNK         0.0600 
    174 H174        2.5788  -11.7960  -43.5279 H         1 UNK         0.3000 
    175 H175        4.5929  -13.0303  -43.3603 H         1 UNK         0.0600 
    176 H176        4.4745  -15.8063  -44.6767 H         1 UNK         0.0600 
    177 H177        5.9335  -14.9886  -44.1238 H         1 UNK         0.0600 
    178 H178        4.7218  -15.4983  -42.9631 H         1 UNK         0.0600 
    179 H179        3.4957  -13.2026  -46.0244 H         1 UNK         0.3000 
    180 H180        5.6447  -11.0965  -47.3828 H         1 UNK         0.0600 
    181 H181        6.6638  -13.9091  -48.0524 H         1 UNK         0.0600 
    182 H182        7.6525  -12.5301  -47.5857 H         1 UNK         0.0600 
    183 H183        6.7849  -12.5036  -49.1104 H         1 UNK         0.0600 
    184 H184        4.1648  -13.5367  -48.2821 H         1 UNK         0.3000 
    185 H185        1.3040  -11.6761  -49.0808 H         1 UNK         0.0600 
    186 H186        3.2110  -12.9542  -51.1133 H         1 UNK         0.0600 
    187 H187        1.4905  -12.6450  -51.3530 H         1 UNK         0.0600 
    188 H188        2.6090  -11.3025  -51.1837 H         1 UNK         0.0600 
    189 H189        1.8017  -14.3757  -49.6047 H         1 UNK         0.3000 
    190 H190       -2.8764  -22.5986  -44.6863 H         1 UNK         0.3000 
    191 H191       -4.7105  -24.2435  -46.1110 H         1 UNK         0.0600 
    192 H192       -3.4360  -24.6034  -43.3476 H         1 UNK         0.0600 
    193 H193       -4.8273  -25.4967  -43.9508 H         1 UNK         0.0600 
    194 H194       -4.9404  -23.7604  -43.7032 H         1 UNK         0.0600 
    195 H195       -1.4466  -25.0349  -44.7591 H         1 UNK         0.3000 
    196 H196       -1.6223  -27.7525  -45.6824 H         1 UNK         0.0600 
    197 H197        0.5945  -27.9695  -44.6033 H         1 UNK         0.0600 
    198 H198       -0.5291  -27.1212  -43.5517 H         1 UNK         0.0600 
    199 H199        0.7103  -26.2234  -44.4255 H         1 UNK         0.0600 
    200 H200        0.3977  -24.9423  -46.7513 H         1 UNK         0.3000 
    201 H201        1.7905  -26.7029  -48.6916 H         1 UNK         0.0600 
    202 H202        3.1560  -25.3286  -47.1296 H         1 UNK         0.0600 
    203 H203        2.4494  -23.8551  -47.7878 H         1 UNK         0.0600 
    204 H204        3.4306  -24.8919  -48.8085 H         1 UNK         0.0600 
    205 H205       -0.0193  -23.5850  -48.5846 H         1 UNK         0.3000 
    206 H206        0.0663  -23.3201  -51.4863 H         1 UNK         0.0600 
    207 H207       -0.8738  -21.1947  -51.1573 H         1 UNK         0.0600 
    208 H208       -1.6795  -21.6331  -49.6672 H         1 UNK         0.0600 
    209 H209        0.0708  -21.4110  -49.6967 H         1 UNK         0.0600 
    210 H210       -1.9757  -25.0234  -49.3564 H         1 UNK         0.3000 
    211 H211       -3.8419  -26.2147  -49.5196 H         1 UNK         0.0600 
    212 H212       -3.5109  -25.9998  -52.5586 H         1 UNK         0.0600 
    213 H213       -4.4896  -27.1781  -51.6973 H         1 UNK         0.0600 
    214 H214       -2.7415  -27.2032  -51.5253 H         1 UNK         0.0600 
    215 H215       -4.3425  -23.7980  -48.7510 H         1 UNK         0.3000 
    216 H216       -5.8382  -22.2224  -48.3769 H         1 UNK         0.0600 
    217 H217       -8.2155  -22.5054  -48.9664 H         1 UNK         0.0600 
    218 H218       -7.5722  -24.0316  -48.3812 H         1 UNK         0.0600 
    219 H219       -7.8319  -23.7850  -50.1077 H         1 UNK         0.0600 
    220 H220       -3.9272  -21.8358  -50.1942 H         1 UNK         0.3000 
    221 H221       -3.0700  -20.5255  -51.7526 H         1 UNK         0.0600 
    222 H222       -5.7390  -19.0271  -51.9070 H         1 UNK         0.0600 
    223 H223       -4.5235  -18.7392  -50.6671 H         1 UNK         0.0600 
    224 H224       -4.1531  -18.4248  -52.3565 H         1 UNK         0.0600 
    225 H225       -5.2235  -22.8166  -52.5101 H         1 UNK         0.3000 
    226 H226       -6.2890  -23.7152  -54.2179 H         1 UNK         0.0600 
    227 H227       -4.0207  -23.8358  -55.2871 H         1 UNK         0.0600 
    228 H228       -5.3063  -23.6763  -56.4748 H         1 UNK         0.0600 
    229 H229       -4.3097  -22.2852  -56.0750 H         1 UNK         0.0600 
    230 H230       -7.3675  -21.5206  -53.0561 H         1 UNK         0.3000 
    231 H231       -9.0727  -20.1652  -53.0830 H         1 UNK         0.0600 
    232 H232      -10.1749  -21.4003  -54.9602 H         1 UNK         0.0600 
    233 H233       -9.3509  -20.3619  -56.1248 H         1 UNK         0.0600 
    234 H234      -10.5058  -19.6750  -54.9982 H         1 UNK         0.0600 
    235 H235       -6.7008  -19.4980  -55.6890 H         1 UNK         0.3000 
    236 H236       -5.8474  -17.0950  -54.3869 H         1 UNK         0.0600 
    237 H237       -7.2361  -16.8115  -57.1178 H         1 UNK         0.0600 
    238 H238       -7.7649  -16.0694  -55.6086 H         1 UNK         0.0600 
    239 H239       -6.2571  -15.5648  -56.3535 H         1 UNK         0.0600 
    240 H240       -3.6942  -16.9029  -54.7903 H         1 UNK         0.3000 
    241 H241       -2.3478  -18.9054  -56.3011 H         1 UNK         0.0600 
    242 H242       -1.3050  -17.4455  -59.3753 H         1 UNK         0.3800 
    243 H243       -1.1457  -18.7978  -58.2916 H         1 UNK         0.3800 
    244 H244       -1.2287  -16.3642  -55.0205 H         1 UNK         0.0800 
    245 H245       -0.2559  -17.6645  -55.6570 H         1 UNK         0.0800 
    246 H246       -1.4457  -16.1782  -52.5450 H         1 UNK         0.0800 
    247 H247        0.2204  -16.6601  -52.7623 H         1 UNK         0.0800 
@<TRIPOS>BOND
     1    1    2 1    
     2    1  127 1    
     3    1  128 1    
     4    1  129 1    
     5    2    3 2    
     6    2    4 am   BACKBONE|DICT|INTERRES
     7    4    5 1    
     8    4  130 1    
     9    5    6 1    
    10    5   65 1    
    11    5  131 1    
    12    6    7 1    
    13    6  132 1    
    14    6  133 1    
    15    7    8 1    
    16    8    9 1    
    17    8  134 1    
    18    8  135 1    
    19    9   10 ar   
    20    9   14 ar   
    21   10   11 ar   
    22   10  136 1    
    23   11   12 ar   
    24   11  126 1    
    25   12   13 ar   
    26   12  137 1    
    27   13   14 ar   
    28   13   15 1    
    29   14  138 1    
    30   15   16 1    
    31   15  139 1    
    32   15  140 1    
    33   16   17 1    
    34   17   18 1    
    35   17  141 1    
    36   17  142 1    
    37   18   19 1    
    38   18   67 1    
    39   18  143 1    
    40   19   20 am   BACKBONE|DICT|INTERRES
    41   19  144 1    
    42   20   21 2    
    43   20   22 1    
    44   22   23 1    
    45   22   24 1    
    46   22  145 1    
    47   23  146 1    
    48   23  147 1    
    49   23  148 1    
    50   24   25 am   BACKBONE|DICT|INTERRES
    51   24  149 1    
    52   25   26 2    
    53   25   27 1    
    54   27   28 1    
    55   27   29 1    
    56   27  150 1    
    57   28  151 1    
    58   28  152 1    
    59   28  153 1    
    60   29   30 am   BACKBONE|DICT|INTERRES
    61   29  154 1    
    62   30   31 2    
    63   30   32 1    
    64   32   33 1    
    65   32   34 1    
    66   32  155 1    
    67   33  156 1    
    68   33  157 1    
    69   33  158 1    
    70   34   35 am   BACKBONE|DICT|INTERRES
    71   34  159 1    
    72   35   36 2    
    73   35   37 1    
    74   37   38 1    
    75   37   39 1    
    76   37  160 1    
    77   38  161 1    
    78   38  162 1    
    79   38  163 1    
    80   39   40 am   BACKBONE|DICT|INTERRES
    81   39  164 1    
    82   40   41 2    
    83   40   42 1    
    84   42   43 1    
    85   42   44 1    
    86   42  165 1    
    87   43  166 1    
    88   43  167 1    
    89   43  168 1    
    90   44   45 am   BACKBONE|DICT|INTERRES
    91   44  169 1    
    92   45   46 2    
    93   45   47 1    
    94   47   48 1    
    95   47   49 1    
    96   47  170 1    
    97   48  171 1    
    98   48  172 1    
    99   48  173 1    
   100   49   50 am   BACKBONE|DICT|INTERRES
   101   49  174 1    
   102   50   51 2    
   103   50   52 1    
   104   52   53 1    
   105   52   54 1    
   106   52  175 1    
   107   53  176 1    
   108   53  177 1    
   109   53  178 1    
   110   54   55 am   BACKBONE|DICT|INTERRES
   111   54  179 1    
   112   55   56 2    
   113   55   57 1    
   114   57   58 1    
   115   57   59 1    
   116   57  180 1    
   117   58  181 1    
   118   58  182 1    
   119   58  183 1    
   120   59   60 am   BACKBONE|DICT|INTERRES
   121   59  184 1    
   122   60   61 2    
   123   60   62 1    
   124   62   63 1    
   125   62   64 1    
   126   62  185 1    
   127   63  186 1    
   128   63  187 1    
   129   63  188 1    
   130   64   65 am   BACKBONE|DICT|INTERRES
   131   64  189 1    
   132   65   66 2    
   133   67   68 2    
   134   67   69 am   BACKBONE|DICT|INTERRES
   135   69   70 1    
   136   69  190 1    
   137   70   71 1    
   138   70   72 1    
   139   70  191 1    
   140   71  192 1    
   141   71  193 1    
   142   71  194 1    
   143   72   73 2    
   144   72   74 am   BACKBONE|DICT|INTERRES
   145   74   75 1    
   146   74  195 1    
   147   75   76 1    
   148   75   77 1    
   149   75  196 1    
   150   76  197 1    
   151   76  198 1    
   152   76  199 1    
   153   77   78 2    
   154   77   79 am   BACKBONE|DICT|INTERRES
   155   79   80 1    
   156   79  200 1    
   157   80   81 1    
   158   80   82 1    
   159   80  201 1    
   160   81  202 1    
   161   81  203 1    
   162   81  204 1    
   163   82   83 2    
   164   82   84 am   BACKBONE|DICT|INTERRES
   165   84   85 1    
   166   84  205 1    
   167   85   86 1    
   168   85   87 1    
   169   85  206 1    
   170   86  207 1    
   171   86  208 1    
   172   86  209 1    
   173   87   88 2    
   174   87   89 am   BACKBONE|DICT|INTERRES
   175   89   90 1    
   176   89  210 1    
   177   90   91 1    
   178   90   92 1    
   179   90  211 1    
   180   91  212 1    
   181   91  213 1    
   182   91  214 1    
   183   92   93 2    
   184   92   94 am   BACKBONE|DICT|INTERRES
   185   94   95 1    
   186   94  215 1    
   187   95   96 1    
   188   95   97 1    
   189   95  216 1    
   190   96  217 1    
   191   96  218 1    
   192   96  219 1    
   193   97   98 2    
   194   97   99 am   BACKBONE|DICT|INTERRES
   195   99  100 1    
   196   99  220 1    
   197  100  101 1    
   198  100  102 1    
   199  100  221 1    
   200  101  222 1    
   201  101  223 1    
   202  101  224 1    
   203  102  103 2    
   204  102  104 am   BACKBONE|DICT|INTERRES
   205  104  105 1    
   206  104  225 1    
   207  105  106 1    
   208  105  107 1    
   209  105  226 1    
   210  106  227 1    
   211  106  228 1    
   212  106  229 1    
   213  107  108 2    
   214  107  109 am   BACKBONE|DICT|INTERRES
   215  109  110 1    
   216  109  230 1    
   217  110  111 1    
   218  110  112 1    
   219  110  231 1    
   220  111  232 1    
   221  111  233 1    
   222  111  234 1    
   223  112  113 2    
   224  112  114 am   BACKBONE|DICT|INTERRES
   225  114  115 1    
   226  114  235 1    
   227  115  116 1    
   228  115  117 1    
   229  115  236 1    
   230  116  237 1    
   231  116  238 1    
   232  116  239 1    
   233  117  118 2    
   234  117  119 am   BACKBONE|DICT|INTERRES
   235  119  120 1    
   236  119  240 1    
   237  120  121 1    
   238  120  124 1    
   239  120  241 1    
   240  121  122 am   BACKBONE|DICT|INTERRES
   241  121  123 2    
   242  122  242 1    
   243  122  243 1    
   244  124  125 1    
   245  124  244 1    
   246  124  245 1    
   247  125  126 1    
   248  126  246 1    
   249  126  247 1    
@<TRIPOS>SUBSTRUCTURE
     1 UNK         1 GROUP             0       ****    0 ROOT    
