@<TRIPOS>MOLECULE
3R540
247   249    1
SMALL
USER_CHARGES


@<TRIPOS>ATOM
      1 CA          2.0374   -9.4090  -51.8969 C.3       0 UNK        -0.1800 
      2 C           2.0893  -10.1577  -50.5725 C.2       0 UNK         0.5000 
      3 O           2.3119   -9.5432  -49.5289 O.2       0 UNK        -0.5000 
      4 N           1.8942  -11.4808  -50.6121 N.am      1 UNK        -0.5000 
      5 CA          1.8274  -12.3621  -49.4434 C.3       1 UNK         0.1400 
      6 C6          1.9857  -13.8561  -49.8367 C.3       23 UNK        -0.0398 
      7 S7          0.8316  -14.4188  -51.1435 S.3       23 UNK        -0.2404 
      8 C8          0.1069  -15.9119  -50.4000 C.3       23 UNK        -0.0205 
      9 C9          0.9472  -17.1445  -50.6987 C.ar      23 UNK        -0.0193 
     10 C10         0.7238  -17.8633  -51.8778 C.ar      23 UNK        -0.1150 
     11 C11         1.4710  -19.0078  -52.1664 C.ar      23 UNK        -0.0193 
     12 C12         2.4626  -19.4183  -51.2738 C.ar      23 UNK        -0.1150 
     13 C13         2.6868  -18.7217  -50.0843 C.ar      23 UNK        -0.0193 
     14 C14         1.9308  -17.5786  -49.8028 C.ar      23 UNK        -0.1150 
     15 C15         3.7309  -19.2371  -49.1032 C.3       23 UNK        -0.0205 
     16 S16         3.0066  -19.8689  -47.5534 S.3       23 UNK        -0.2404 
     17 C17         1.6191  -20.9252  -48.1004 C.3       23 UNK        -0.0398 
     18 CA          1.6768  -22.3649  -47.5395 C.3       11 UNK         0.1400 
     19 N           1.7007  -22.3783  -46.0748 N.am      11 UNK        -0.5000 
     20 C           1.9299  -23.4545  -45.3124 C.2       10 UNK         0.5000 
     21 O           2.2103  -24.5667  -45.7651 O.2       10 UNK        -0.5000 
     22 CA          1.8433  -23.2262  -43.7893 C.3       10 UNK         0.1400 
     23 CB          2.2399  -24.4630  -42.9567 C.3       10 UNK        -0.1800 
     24 N           2.5943  -22.0427  -43.3627 N.am      10 UNK        -0.5000 
     25 C           3.9120  -21.8171  -43.4703 C.2       9 UNK         0.5000 
     26 O           4.7183  -22.6365  -43.9125 O.2       9 UNK        -0.5000 
     27 CA          4.4260  -20.4375  -43.0082 C.3       9 UNK         0.1400 
     28 CB          4.7821  -19.5633  -44.2195 C.3       9 UNK        -0.1800 
     29 N           3.4720  -19.7078  -42.1704 N.am      9 UNK        -0.5000 
     30 C           3.2058  -19.9860  -40.8876 C.2       8 UNK         0.5000 
     31 O           3.7834  -20.8619  -40.2428 O.2       8 UNK        -0.5000 
     32 CA          2.0812  -19.1676  -40.2245 C.3       8 UNK         0.1400 
     33 CB          2.6091  -17.8116  -39.7322 C.3       8 UNK        -0.1800 
     34 N           0.9328  -18.9560  -41.1099 N.am      8 UNK        -0.5000 
     35 C           0.1304  -19.9327  -41.5582 C.2       7 UNK         0.5000 
     36 O           0.2577  -21.1176  -41.2504 O.2       7 UNK        -0.5000 
     37 CA         -0.9773  -19.5308  -42.5469 C.3       7 UNK         0.1400 
     38 CB         -2.1900  -18.9446  -41.8097 C.3       7 UNK        -0.1800 
     39 N          -0.5093  -18.5849  -43.5584 N.am      7 UNK        -0.5000 
     40 C           0.3832  -18.8771  -44.5144 C.2       6 UNK         0.5000 
     41 O           0.8521  -20.0013  -44.6892 O.2       6 UNK        -0.5000 
     42 CA          0.8553  -17.7136  -45.4037 C.3       6 UNK         0.1400 
     43 CB         -0.1257  -17.4703  -46.5591 C.3       6 UNK        -0.1800 
     44 N           1.0511  -16.4721  -44.6589 N.am      6 UNK        -0.5000 
     45 C           1.9503  -16.3058  -43.6791 C.2       5 UNK         0.5000 
     46 O           2.7342  -17.1789  -43.3110 O.2       5 UNK        -0.5000 
     47 CA          1.9311  -14.9529  -42.9509 C.3       5 UNK         0.1400 
     48 CB          2.6751  -13.8814  -43.7620 C.3       5 UNK        -0.1800 
     49 N           0.5654  -14.5100  -42.6713 N.am      5 UNK        -0.5000 
     50 C          -0.2602  -15.1154  -41.8053 C.2       4 UNK         0.5000 
     51 O           0.0585  -16.0865  -41.1189 O.2       4 UNK        -0.5000 
     52 CA         -1.6970  -14.5688  -41.7304 C.3       4 UNK         0.1400 
     53 CB         -1.7629  -13.3363  -40.8163 C.3       4 UNK        -0.1800 
     54 N          -2.2329  -14.2268  -43.0492 N.am      4 UNK        -0.5000 
     55 C          -2.5012  -15.1221  -44.0103 C.2       3 UNK         0.5000 
     56 O          -2.3513  -16.3355  -43.8751 O.2       3 UNK        -0.5000 
     57 CA         -2.9703  -14.5615  -45.3655 C.3       3 UNK         0.1400 
     58 CB         -4.4877  -14.3245  -45.3576 C.3       3 UNK        -0.1800 
     59 N          -2.2836  -13.3234  -45.7471 N.am      3 UNK        -0.5000 
     60 C          -0.9690  -13.2340  -45.9844 C.2       2 UNK         0.5000 
     61 O          -0.1875  -14.1805  -45.8680 O.2       2 UNK        -0.5000 
     62 CA         -0.4255  -11.8484  -46.3628 C.3       2 UNK         0.1400 
     63 CB          0.0610  -11.1050  -45.1091 C.3       2 UNK        -0.1800 
     64 N           0.6883  -11.9880  -47.2995 N.am      2 UNK        -0.5000 
     65 C           0.5430  -12.0980  -48.6252 C.2       1 UNK         0.5000 
     66 O          -0.5434  -11.9957  -49.2014 O.2       1 UNK        -0.5000 
     67 C           0.4792  -23.1710  -48.0865 C.2       11 UNK         0.5000 
     68 O          -0.5606  -23.2553  -47.4268 O.2       11 UNK        -0.5000 
     69 N           0.6160  -23.6914  -49.3145 N.am      12 UNK        -0.5000 
     70 CA         -0.4222  -24.4590  -50.0106 C.3       12 UNK         0.1400 
     71 CB          0.1355  -25.0027  -51.3336 C.3       12 UNK        -0.1800 
     72 C          -1.7317  -23.6763  -50.2346 C.2       12 UNK         0.5000 
     73 O          -2.8059  -24.2610  -50.1131 O.2       12 UNK        -0.5000 
     74 N          -1.6247  -22.3625  -50.4813 N.am      13 UNK        -0.5000 
     75 CA         -2.7569  -21.4392  -50.5900 C.3       13 UNK         0.1400 
     76 CB         -2.2426  -20.0561  -51.0178 C.3       13 UNK        -0.1800 
     77 C          -3.5686  -21.3253  -49.2863 C.2       13 UNK         0.5000 
     78 O          -4.7979  -21.2876  -49.3315 O.2       13 UNK        -0.5000 
     79 N          -2.8690  -21.3050  -48.1436 N.am      14 UNK        -0.5000 
     80 CA         -3.4772  -21.2629  -46.8149 C.3       14 UNK         0.1400 
     81 CB         -2.4460  -20.7796  -45.7871 C.3       14 UNK        -0.1800 
     82 C          -4.0735  -22.6212  -46.4095 C.2       14 UNK         0.5000 
     83 O          -5.1282  -22.6480  -45.7762 O.2       14 UNK        -0.5000 
     84 N          -3.4171  -23.7187  -46.8134 N.am      15 UNK        -0.5000 
     85 CA         -3.8986  -25.0898  -46.6315 C.3       15 UNK         0.1400 
     86 CB         -2.7767  -26.0799  -46.9778 C.3       15 UNK        -0.1800 
     87 C          -5.1690  -25.3803  -47.4552 C.2       15 UNK         0.5000 
     88 O          -6.1026  -25.9939  -46.9370 O.2       15 UNK        -0.5000 
     89 N          -5.1967  -24.9013  -48.7074 N.am      16 UNK        -0.5000 
     90 CA         -6.3643  -24.9282  -49.5927 C.3       16 UNK         0.1400 
     91 CB         -5.9113  -24.6059  -51.0252 C.3       16 UNK        -0.1800 
     92 C          -7.4727  -23.9489  -49.1573 C.2       16 UNK         0.5000 
     93 O          -8.6370  -24.1675  -49.4936 O.2       16 UNK        -0.5000 
     94 N          -7.0807  -22.8970  -48.4247 N.am      17 UNK        -0.5000 
     95 CA         -7.8901  -21.7866  -47.9224 C.3       17 UNK         0.1400 
     96 CB         -8.9259  -22.2801  -46.8908 C.3       17 UNK        -0.1800 
     97 C          -8.5036  -20.9551  -49.0660 C.2       17 UNK         0.5000 
     98 O          -9.6976  -20.6479  -49.0401 O.2       17 UNK        -0.5000 
     99 N          -7.6718  -20.6100  -50.0559 N.am      18 UNK        -0.5000 
    100 CA        -8.0520  -19.8252  -51.2252 C.3       18 UNK         0.1400 
    101 CB        -8.6124  -20.7520  -52.3166 C.3       18 UNK        -0.1800 
    102 C         -6.8439  -19.0175  -51.7174 C.2       18 UNK         0.5000 
    103 O         -5.7132  -19.5064  -51.6604 O.2       18 UNK        -0.5000 
    104 N         -7.1107  -17.7896  -52.1814 N.am      19 UNK        -0.5000 
    105 CA        -6.1233  -16.7929  -52.5976 C.3       19 UNK         0.1400 
    106 CB        -6.8538  -15.5086  -53.0228 C.3       19 UNK        -0.1800 
    107 C         -5.1918  -17.2983  -53.7147 C.2       19 UNK         0.5000 
    108 O         -5.6390  -17.4821  -54.8485 O.2       19 UNK        -0.5000 
    109 N         -3.9215  -17.5216  -53.3501 N.am      20 UNK        -0.5000 
    110 CA        -2.8218  -17.9991  -54.1946 C.3       20 UNK         0.1400 
    111 CB        -2.4313  -16.9300  -55.2354 C.3       20 UNK        -0.1800 
    112 C         -3.0564  -19.3899  -54.8227 C.2       20 UNK         0.5000 
    113 O         -2.4788  -19.6919  -55.8690 O.2       20 UNK        -0.5000 
    114 N         -3.8687  -20.2327  -54.1682 N.am      21 UNK        -0.5000 
    115 CA        -4.2280  -21.5844  -54.6081 C.3       21 UNK         0.1400 
    116 CB        -5.5520  -21.9832  -53.9386 C.3       21 UNK        -0.1800 
    117 C         -3.1050  -22.6233  -54.3855 C.2       21 UNK         0.5000 
    118 O         -3.3439  -23.6847  -53.8084 O.2       21 UNK        -0.5000 
    119 N         -1.8980  -22.2962  -54.8561 N.am      22 UNK        -0.5000 
    120 CA        -0.7031  -23.1533  -54.8215 C.3       22 UNK         0.1400 
    121 C         -0.5668  -24.0942  -56.0545 C.2       22 UNK         0.5000 
    122 N         -1.4257  -24.0075  -57.0634 N.am      22 UNK        -0.7600 
    123 O          0.3303  -24.9318  -56.0924 O.2       22 UNK        -0.5000 
    124 C124        0.5863  -22.3197  -54.6091 C.3       23 UNK        -0.0398 
    125 S125        0.5924  -21.4782  -52.9925 S.3       23 UNK        -0.2404 
    126 C126        1.2071  -19.8217  -53.4242 C.3       23 UNK        -0.0205 
    127 H127        1.8417  -10.0794  -52.7342 H         1 UNK         0.0600 
    128 H128        2.9857   -8.9039  -52.0802 H         1 UNK         0.0600 
    129 H129        1.2484   -8.6572  -51.8720 H         1 UNK         0.0600 
    130 H130        1.6784  -11.9269  -51.4926 H         1 UNK         0.3000 
    131 H131        2.6794  -12.1111  -48.8075 H         1 UNK         0.0600 
    132 H132        1.8956  -14.4895  -48.9528 H         1 UNK         0.0800 
    133 H133        2.9980  -14.0232  -50.2071 H         1 UNK         0.0800 
    134 H134       -0.8959  -16.0491  -50.8074 H         1 UNK         0.0800 
    135 H135       -0.0260  -15.7758  -49.3269 H         1 UNK         0.0800 
    136 H136       -0.0336  -17.5264  -52.5687 H         1 UNK         0.1150 
    137 H137        3.0381  -20.3065  -51.4947 H         1 UNK         0.1150 
    138 H138        2.1011  -17.0390  -48.8821 H         1 UNK         0.1150 
    139 H139        4.3284  -20.0300  -49.5557 H         1 UNK         0.0800 
    140 H140        4.4262  -18.4314  -48.8643 H         1 UNK         0.0800 
    141 H141        1.5967  -20.9608  -49.1888 H         1 UNK         0.0800 
    142 H142        0.6930  -20.4360  -47.7956 H         1 UNK         0.0800 
    143 H143        2.5960  -22.8388  -47.8901 H         1 UNK         0.0600 
    144 H144        1.4668  -21.5014  -45.6143 H         1 UNK         0.3000 
    145 H145        0.7954  -23.0106  -43.5751 H         1 UNK         0.0600 
    146 H146        2.1418  -24.2651  -41.8893 H         1 UNK         0.0600 
    147 H147        1.5957  -25.3114  -43.1901 H         1 UNK         0.0600 
    148 H148        3.2678  -24.7716  -43.1481 H         1 UNK         0.0600 
    149 H149        2.0261  -21.2775  -43.0248 H         1 UNK         0.3000 
    150 H150        5.3372  -20.6062  -42.4308 H         1 UNK         0.0600 
    151 H151        5.4764  -20.0735  -44.8883 H         1 UNK         0.0600 
    152 H152        5.2537  -18.6313  -43.9076 H         1 UNK         0.0600 
    153 H153        3.8936  -19.3086  -44.7971 H         1 UNK         0.0600 
    154 H154        3.0025  -18.9175  -42.6064 H         1 UNK         0.3000 
    155 H155        1.7324  -19.7291  -39.3553 H         1 UNK         0.0600 
    156 H156        3.4515  -17.9436  -39.0522 H         1 UNK         0.0600 
    157 H157        1.8382  -17.2615  -39.1923 H         1 UNK         0.0600 
    158 H158        2.9484  -17.1865  -40.5584 H         1 UNK         0.0600 
    159 H159        0.7349  -17.9968  -41.3760 H         1 UNK         0.3000 
    160 H160       -1.2998  -20.4395  -43.0580 H         1 UNK         0.0600 
    161 H161       -1.9428  -18.0102  -41.3054 H         1 UNK         0.0600 
    162 H162       -2.5621  -19.6384  -41.0550 H         1 UNK         0.0600 
    163 H163       -3.0094  -18.7446  -42.5003 H         1 UNK         0.0600 
    164 H164       -0.9094  -17.6522  -43.5303 H         1 UNK         0.3000 
    165 H165        1.8226  -17.9856  -45.8248 H         1 UNK         0.0600 
    166 H166        0.2177  -16.6546  -47.1931 H         1 UNK         0.0600 
    167 H167       -0.2216  -18.3544  -47.1888 H         1 UNK         0.0600 
    168 H168       -1.1211  -17.2147  -46.1964 H         1 UNK         0.0600 
    169 H169        0.4777  -15.6799  -44.9373 H         1 UNK         0.3000 
    170 H170        2.4493  -15.0771  -41.9977 H         1 UNK         0.0600 
    171 H171        3.7121  -14.1747  -43.9298 H         1 UNK         0.0600 
    172 H172        2.2203  -13.7224  -44.7397 H         1 UNK         0.0600 
    173 H173        2.6893  -12.9267  -43.2361 H         1 UNK         0.0600 
    174 H174        0.2088  -13.7500  -43.2297 H         1 UNK         0.3000 
    175 H175       -2.3278  -15.3488  -41.2984 H         1 UNK         0.0600 
    176 H176       -1.3815  -13.5687  -39.8210 H         1 UNK         0.0600 
    177 H177       -1.1718  -12.5083  -41.2095 H         1 UNK         0.0600 
    178 H178       -2.7893  -12.9892  -40.6966 H         1 UNK         0.0600 
    179 H179       -2.3863  -13.2485  -43.2434 H         1 UNK         0.3000 
    180 H180       -2.7488  -15.3129  -46.1262 H         1 UNK         0.0600 
    181 H181       -5.0235  -15.2375  -45.0937 H         1 UNK         0.0600 
    182 H182       -4.7733  -13.5565  -44.6378 H         1 UNK         0.0600 
    183 H183       -4.8434  -14.0137  -46.3401 H         1 UNK         0.0600 
    184 H184       -2.8609  -12.5015  -45.8525 H         1 UNK         0.3000 
    185 H185       -1.2244  -11.2628  -46.8230 H         1 UNK         0.0600 
    186 H186       -0.7499  -10.9733  -44.3916 H         1 UNK         0.0600 
    187 H187        0.8635  -11.6412  -44.6028 H         1 UNK         0.0600 
    188 H188        0.4325  -10.1118  -45.3622 H         1 UNK         0.0600 
    189 H189        1.6017  -12.1133  -46.8887 H         1 UNK         0.3000 
    190 H190        1.4912  -23.5784  -49.8054 H         1 UNK         0.3000 
    191 H191       -0.6673  -25.3156  -49.3801 H         1 UNK         0.0600 
    192 H192        0.5252  -24.2066  -51.9657 H         1 UNK         0.0600 
    193 H193       -0.6358  -25.5269  -51.8999 H         1 UNK         0.0600 
    194 H194        0.9445  -25.7113  -51.1561 H         1 UNK         0.0600 
    195 H195       -0.7034  -21.9693  -50.6039 H         1 UNK         0.3000 
    196 H196       -3.4281  -21.8142  -51.3648 H         1 UNK         0.0600 
    197 H197       -1.7935  -20.0953  -52.0085 H         1 UNK         0.0600 
    198 H198       -1.4936  -19.6688  -50.3257 H         1 UNK         0.0600 
    199 H199       -3.0559  -19.3314  -51.0593 H         1 UNK         0.0600 
    200 H200       -1.8675  -21.4230  -48.1809 H         1 UNK         0.3000 
    201 H201       -4.2927  -20.5363  -46.8330 H         1 UNK         0.0600 
    202 H202       -2.8964  -20.7102  -44.7966 H         1 UNK         0.0600 
    203 H203       -1.5902  -21.4515  -45.7145 H         1 UNK         0.0600 
    204 H204       -2.0756  -19.7877  -46.0431 H         1 UNK         0.0600 
    205 H205       -2.5187  -23.6032  -47.2720 H         1 UNK         0.3000 
    206 H206       -4.1478  -25.2178  -45.5761 H         1 UNK         0.0600 
    207 H207       -1.8773  -25.8792  -46.3950 H         1 UNK         0.0600 
    208 H208       -3.0835  -27.1043  -46.7637 H         1 UNK         0.0600 
    209 H209       -2.5096  -26.0336  -48.0330 H         1 UNK         0.0600 
    210 H210       -4.3513  -24.4853  -49.0922 H         1 UNK         0.3000 
    211 H211       -6.7846  -25.9358  -49.5811 H         1 UNK         0.0600 
    212 H212       -6.7533  -24.6165  -51.7185 H         1 UNK         0.0600 
    213 H213       -5.1839  -25.3343  -51.3841 H         1 UNK         0.0600 
    214 H214       -5.4493  -23.6198  -51.0836 H         1 UNK         0.0600 
    215 H215       -6.0858  -22.7943  -48.2756 H         1 UNK         0.3000 
    216 H216       -7.1998  -21.1226  -47.4001 H         1 UNK         0.0600 
    217 H217       -9.4422  -21.4400  -46.4251 H         1 UNK         0.0600 
    218 H218       -8.4447  -22.8473  -46.0938 H         1 UNK         0.0600 
    219 H219       -9.6841  -22.9175  -47.3463 H         1 UNK         0.0600 
    220 H220       -6.6835  -20.8463  -49.9912 H         1 UNK         0.3000 
    221 H221       -8.8289  -19.1120  -50.9409 H         1 UNK         0.0600 
    222 H222       -7.9536  -21.6003  -52.4981 H         1 UNK         0.0600 
    223 H223       -9.5843  -21.1511  -52.0260 H         1 UNK         0.0600 
    224 H224       -8.7469  -20.2219  -53.2602 H         1 UNK         0.0600 
    225 H225       -8.0743  -17.4919  -52.2243 H         1 UNK         0.3000 
    226 H226       -5.5176  -16.5525  -51.7213 H         1 UNK         0.0600 
    227 H227       -7.4360  -15.0937  -52.1999 H         1 UNK         0.0600 
    228 H228       -6.1441  -14.7417  -53.3362 H         1 UNK         0.0600 
    229 H229       -7.5327  -15.6879  -53.8576 H         1 UNK         0.0600 
    230 H230       -3.6824  -17.3708  -52.3805 H         1 UNK         0.3000 
    231 H231       -1.9713  -18.1275  -53.5273 H         1 UNK         0.0600 
    232 H232       -2.2395  -15.9683  -54.7595 H         1 UNK         0.0600 
    233 H233       -3.2148  -16.7863  -55.9800 H         1 UNK         0.0600 
    234 H234       -1.5219  -17.2121  -55.7673 H         1 UNK         0.0600 
    235 H235       -4.3095  -19.9119  -53.3135 H         1 UNK         0.3000 
    236 H236       -4.4101  -21.5543  -55.6843 H         1 UNK         0.0600 
    237 H237       -6.3421  -21.2818  -54.2054 H         1 UNK         0.0600 
    238 H238       -5.8785  -22.9739  -54.2572 H         1 UNK         0.0600 
    239 H239       -5.4640  -21.9959  -52.8523 H         1 UNK         0.0600 
    240 H240       -1.8039  -21.4000  -55.3242 H         1 UNK         0.3000 
    241 H241       -0.7953  -23.8253  -53.9670 H         1 UNK         0.0600 
    242 H242       -1.3287  -24.6274  -57.8525 H         1 UNK         0.3800 
    243 H243       -2.1679  -23.3268  -57.0494 H         1 UNK         0.3800 
    244 H244        1.4723  -22.9561  -54.6424 H         1 UNK         0.0800 
    245 H245        0.7021  -21.5892  -55.4114 H         1 UNK         0.0800 
    246 H246        0.4824  -19.3235  -54.0701 H         1 UNK         0.0800 
    247 H247        2.1329  -19.9107  -53.9944 H         1 UNK         0.0800 
@<TRIPOS>BOND
     1    1    2 1    
     2    1  127 1    
     3    1  128 1    
     4    1  129 1    
     5    2    3 2    
     6    2    4 am   BACKBONE|DICT|INTERRES
     7    4    5 1    
     8    4  130 1    
     9    5    6 1    
    10    5   65 1    
    11    5  131 1    
    12    6    7 1    
    13    6  132 1    
    14    6  133 1    
    15    7    8 1    
    16    8    9 1    
    17    8  134 1    
    18    8  135 1    
    19    9   10 ar   
    20    9   14 ar   
    21   10   11 ar   
    22   10  136 1    
    23   11   12 ar   
    24   11  126 1    
    25   12   13 ar   
    26   12  137 1    
    27   13   14 ar   
    28   13   15 1    
    29   14  138 1    
    30   15   16 1    
    31   15  139 1    
    32   15  140 1    
    33   16   17 1    
    34   17   18 1    
    35   17  141 1    
    36   17  142 1    
    37   18   19 1    
    38   18   67 1    
    39   18  143 1    
    40   19   20 am   BACKBONE|DICT|INTERRES
    41   19  144 1    
    42   20   21 2    
    43   20   22 1    
    44   22   23 1    
    45   22   24 1    
    46   22  145 1    
    47   23  146 1    
    48   23  147 1    
    49   23  148 1    
    50   24   25 am   BACKBONE|DICT|INTERRES
    51   24  149 1    
    52   25   26 2    
    53   25   27 1    
    54   27   28 1    
    55   27   29 1    
    56   27  150 1    
    57   28  151 1    
    58   28  152 1    
    59   28  153 1    
    60   29   30 am   BACKBONE|DICT|INTERRES
    61   29  154 1    
    62   30   31 2    
    63   30   32 1    
    64   32   33 1    
    65   32   34 1    
    66   32  155 1    
    67   33  156 1    
    68   33  157 1    
    69   33  158 1    
    70   34   35 am   BACKBONE|DICT|INTERRES
    71   34  159 1    
    72   35   36 2    
    73   35   37 1    
    74   37   38 1    
    75   37   39 1    
    76   37  160 1    
    77   38  161 1    
    78   38  162 1    
    79   38  163 1    
    80   39   40 am   BACKBONE|DICT|INTERRES
    81   39  164 1    
    82   40   41 2    
    83   40   42 1    
    84   42   43 1    
    85   42   44 1    
    86   42  165 1    
    87   43  166 1    
    88   43  167 1    
    89   43  168 1    
    90   44   45 am   BACKBONE|DICT|INTERRES
    91   44  169 1    
    92   45   46 2    
    93   45   47 1    
    94   47   48 1    
    95   47   49 1    
    96   47  170 1    
    97   48  171 1    
    98   48  172 1    
    99   48  173 1    
   100   49   50 am   BACKBONE|DICT|INTERRES
   101   49  174 1    
   102   50   51 2    
   103   50   52 1    
   104   52   53 1    
   105   52   54 1    
   106   52  175 1    
   107   53  176 1    
   108   53  177 1    
   109   53  178 1    
   110   54   55 am   BACKBONE|DICT|INTERRES
   111   54  179 1    
   112   55   56 2    
   113   55   57 1    
   114   57   58 1    
   115   57   59 1    
   116   57  180 1    
   117   58  181 1    
   118   58  182 1    
   119   58  183 1    
   120   59   60 am   BACKBONE|DICT|INTERRES
   121   59  184 1    
   122   60   61 2    
   123   60   62 1    
   124   62   63 1    
   125   62   64 1    
   126   62  185 1    
   127   63  186 1    
   128   63  187 1    
   129   63  188 1    
   130   64   65 am   BACKBONE|DICT|INTERRES
   131   64  189 1    
   132   65   66 2    
   133   67   68 2    
   134   67   69 am   BACKBONE|DICT|INTERRES
   135   69   70 1    
   136   69  190 1    
   137   70   71 1    
   138   70   72 1    
   139   70  191 1    
   140   71  192 1    
   141   71  193 1    
   142   71  194 1    
   143   72   73 2    
   144   72   74 am   BACKBONE|DICT|INTERRES
   145   74   75 1    
   146   74  195 1    
   147   75   76 1    
   148   75   77 1    
   149   75  196 1    
   150   76  197 1    
   151   76  198 1    
   152   76  199 1    
   153   77   78 2    
   154   77   79 am   BACKBONE|DICT|INTERRES
   155   79   80 1    
   156   79  200 1    
   157   80   81 1    
   158   80   82 1    
   159   80  201 1    
   160   81  202 1    
   161   81  203 1    
   162   81  204 1    
   163   82   83 2    
   164   82   84 am   BACKBONE|DICT|INTERRES
   165   84   85 1    
   166   84  205 1    
   167   85   86 1    
   168   85   87 1    
   169   85  206 1    
   170   86  207 1    
   171   86  208 1    
   172   86  209 1    
   173   87   88 2    
   174   87   89 am   BACKBONE|DICT|INTERRES
   175   89   90 1    
   176   89  210 1    
   177   90   91 1    
   178   90   92 1    
   179   90  211 1    
   180   91  212 1    
   181   91  213 1    
   182   91  214 1    
   183   92   93 2    
   184   92   94 am   BACKBONE|DICT|INTERRES
   185   94   95 1    
   186   94  215 1    
   187   95   96 1    
   188   95   97 1    
   189   95  216 1    
   190   96  217 1    
   191   96  218 1    
   192   96  219 1    
   193   97   98 2    
   194   97   99 am   BACKBONE|DICT|INTERRES
   195   99  100 1    
   196   99  220 1    
   197  100  101 1    
   198  100  102 1    
   199  100  221 1    
   200  101  222 1    
   201  101  223 1    
   202  101  224 1    
   203  102  103 2    
   204  102  104 am   BACKBONE|DICT|INTERRES
   205  104  105 1    
   206  104  225 1    
   207  105  106 1    
   208  105  107 1    
   209  105  226 1    
   210  106  227 1    
   211  106  228 1    
   212  106  229 1    
   213  107  108 2    
   214  107  109 am   BACKBONE|DICT|INTERRES
   215  109  110 1    
   216  109  230 1    
   217  110  111 1    
   218  110  112 1    
   219  110  231 1    
   220  111  232 1    
   221  111  233 1    
   222  111  234 1    
   223  112  113 2    
   224  112  114 am   BACKBONE|DICT|INTERRES
   225  114  115 1    
   226  114  235 1    
   227  115  116 1    
   228  115  117 1    
   229  115  236 1    
   230  116  237 1    
   231  116  238 1    
   232  116  239 1    
   233  117  118 2    
   234  117  119 am   BACKBONE|DICT|INTERRES
   235  119  120 1    
   236  119  240 1    
   237  120  121 1    
   238  120  124 1    
   239  120  241 1    
   240  121  122 am   BACKBONE|DICT|INTERRES
   241  121  123 2    
   242  122  242 1    
   243  122  243 1    
   244  124  125 1    
   245  124  244 1    
   246  124  245 1    
   247  125  126 1    
   248  126  246 1    
   249  126  247 1    
@<TRIPOS>SUBSTRUCTURE
     1 UNK         1 GROUP             0       ****    0 ROOT    
