@<TRIPOS>MOLECULE
3R540
247   249    1
SMALL
USER_CHARGES


@<TRIPOS>ATOM
      1 CA          4.4080  -18.6370  -47.3678 C.3       0 UNK        -0.1800 
      2 C           3.7351  -17.2736  -47.4167 C.2       0 UNK         0.5000 
      3 O           3.3290  -16.7588  -46.3760 O.2       0 UNK        -0.5000 
      4 N           3.6303  -16.6848  -48.6173 N.am      1 UNK        -0.5000 
      5 CA          2.9272  -15.4268  -48.9212 C.3       1 UNK         0.1400 
      6 C6          3.0438  -15.0186  -50.4156 C.3       23 UNK        -0.0398 
      7 S7          2.9078  -16.3843  -51.6209 S.3       23 UNK        -0.2404 
      8 C8          1.1363  -16.3827  -52.0364 C.3       23 UNK        -0.0205 
      9 C9          0.3455  -17.2979  -51.1162 C.ar      23 UNK        -0.0193 
     10 C10        -0.5983  -16.7774  -50.2266 C.ar      23 UNK        -0.1150 
     11 C11        -1.3459  -17.6319  -49.4104 C.ar      23 UNK        -0.0193 
     12 C12        -1.1352  -19.0125  -49.4792 C.ar      23 UNK        -0.1150 
     13 C13        -0.1898  -19.5429  -50.3620 C.ar      23 UNK        -0.0193 
     14 C14         0.5426  -18.6801  -51.1795 C.ar      23 UNK        -0.1150 
     15 C15         0.0370  -21.0451  -50.4503 C.3       23 UNK        -0.0205 
     16 S16         1.5511  -21.5621  -49.5883 S.3       23 UNK        -0.2404 
     17 C17         1.1646  -21.0526  -47.8830 C.3       23 UNK        -0.0398 
     18 CA          1.8835  -21.9285  -46.8323 C.3       11 UNK         0.1400 
     19 N           1.9764  -21.2478  -45.5447 N.am      11 UNK        -0.5000 
     20 C           2.9365  -21.4582  -44.6354 C.2       10 UNK         0.5000 
     21 O           3.8824  -22.2281  -44.8091 O.2       10 UNK        -0.5000 
     22 CA          2.8236  -20.6861  -43.3089 C.3       10 UNK         0.1400 
     23 CB          3.4221  -19.2790  -43.4534 C.3       10 UNK        -0.1800 
     24 N           1.4502  -20.5856  -42.8118 N.am      10 UNK        -0.5000 
     25 C           0.7275  -21.6220  -42.3601 C.2       9 UNK         0.5000 
     26 O           1.1329  -22.7846  -42.3428 O.2       9 UNK        -0.5000 
     27 CA         -0.6825  -21.3081  -41.8336 C.3       9 UNK         0.1400 
     28 CB         -0.6192  -20.7475  -40.4036 C.3       9 UNK        -0.1800 
     29 N          -1.3652  -20.3512  -42.7016 N.am      9 UNK        -0.5000 
     30 C          -2.1612  -20.6938  -43.7241 C.2       8 UNK         0.5000 
     31 O          -2.4717  -21.8553  -43.9849 O.2       8 UNK        -0.5000 
     32 CA         -2.7048  -19.5530  -44.6109 C.3       8 UNK         0.1400 
     33 CB         -4.1227  -19.1589  -44.1710 C.3       8 UNK        -0.1800 
     34 N          -1.8563  -18.3599  -44.6141 N.am      8 UNK        -0.5000 
     35 C          -0.6184  -18.3213  -45.1251 C.2       7 UNK         0.5000 
     36 O          -0.0915  -19.2730  -45.6951 O.2       7 UNK        -0.5000 
     37 CA          0.1945  -17.0349  -44.9082 C.3       7 UNK         0.1400 
     38 CB          0.0898  -16.1133  -46.1284 C.3       7 UNK        -0.1800 
     39 N          -0.1539  -16.3063  -43.6807 N.am      7 UNK        -0.5000 
     40 C          -0.0181  -16.8117  -42.4424 C.2       6 UNK         0.5000 
     41 O           0.3841  -17.9578  -42.2368 O.2       6 UNK        -0.5000 
     42 CA         -0.4073  -15.9356  -41.2349 C.3       6 UNK         0.1400 
     43 CB          0.7252  -15.8672  -40.1972 C.3       6 UNK        -0.1800 
     44 N          -0.7764  -14.5746  -41.6187 N.am      6 UNK        -0.5000 
     45 C          -2.0320  -14.1368  -41.7827 C.2       5 UNK         0.5000 
     46 O          -3.0291  -14.8345  -41.5953 O.2       5 UNK        -0.5000 
     47 CA         -2.2091  -12.6799  -42.2600 C.3       5 UNK         0.1400 
     48 CB         -2.4635  -11.7496  -41.0644 C.3       5 UNK        -0.1800 
     49 N          -1.0709  -12.1674  -43.0279 N.am      5 UNK        -0.5000 
     50 C          -0.6466  -12.6696  -44.1950 C.2       4 UNK         0.5000 
     51 O          -1.1990  -13.6106  -44.7624 O.2       4 UNK        -0.5000 
     52 CA          0.6232  -12.0580  -44.8170 C.3       4 UNK         0.1400 
     53 CB          0.9514  -10.6409  -44.2978 C.3       4 UNK        -0.1800 
     54 N           1.7911  -12.9318  -44.6693 N.am      4 UNK        -0.5000 
     55 C           2.3183  -13.4161  -43.5314 C.2       3 UNK         0.5000 
     56 O           1.7990  -13.2690  -42.4238 O.2       3 UNK        -0.5000 
     57 CA          3.6606  -14.1760  -43.6292 C.3       3 UNK         0.1400 
     58 CB          3.5219  -15.6380  -43.1851 C.3       3 UNK        -0.1800 
     59 N           4.2500  -14.1418  -44.9688 N.am      3 UNK        -0.5000 
     60 C           4.9014  -13.0867  -45.4799 C.2       2 UNK         0.5000 
     61 O           5.1277  -12.0569  -44.8435 O.2       2 UNK        -0.5000 
     62 CA          5.3653  -13.1738  -46.9475 C.3       2 UNK         0.1400 
     63 CB          6.8808  -13.4175  -47.0170 C.3       2 UNK        -0.1800 
     64 N           4.6894  -14.2027  -47.7399 N.am      2 UNK        -0.5000 
     65 C           3.3837  -14.2384  -48.0445 C.2       1 UNK         0.5000 
     66 O           2.5648  -13.4047  -47.6549 O.2       1 UNK        -0.5000 
     67 C           1.2155  -23.3014  -46.6249 C.2       11 UNK         0.5000 
     68 O          -0.0089  -23.4217  -46.7084 O.2       11 UNK        -0.5000 
     69 N           2.0471  -24.3106  -46.3337 N.am      12 UNK        -0.5000 
     70 CA          1.6553  -25.6866  -46.0149 C.3       12 UNK         0.1400 
     71 CB          2.9030  -26.4590  -45.5599 C.3       12 UNK        -0.1800 
     72 C           0.9395  -26.4409  -47.1545 C.2       12 UNK         0.5000 
     73 O           0.3092  -27.4665  -46.8924 O.2       12 UNK        -0.5000 
     74 N           1.0161  -25.9217  -48.3877 N.am      13 UNK        -0.5000 
     75 CA          0.3300  -26.4113  -49.5857 C.3       13 UNK         0.1400 
     76 CB          1.0335  -25.8225  -50.8222 C.3       13 UNK        -0.1800 
     77 C          -1.1857  -26.1041  -49.5669 C.2       13 UNK         0.5000 
     78 O          -1.7020  -25.4678  -50.4864 O.2       13 UNK        -0.5000 
     79 N          -1.8670  -26.5335  -48.4947 N.am      14 UNK        -0.5000 
     80 CA         -3.3084  -26.4260  -48.2295 C.3       14 UNK         0.1400 
     81 CB         -4.0833  -27.3687  -49.1735 C.3       14 UNK        -0.1800 
     82 C          -3.8638  -24.9835  -48.2643 C.2       14 UNK         0.5000 
     83 O          -5.0557  -24.7990  -48.5149 O.2       14 UNK        -0.5000 
     84 N          -2.9879  -23.9891  -48.0436 N.am      15 UNK        -0.5000 
     85 CA         -3.2268  -22.5470  -48.1758 C.3       15 UNK         0.1400 
     86 CB         -4.2624  -22.0676  -47.1366 C.3       15 UNK        -0.1800 
     87 C          -3.6051  -22.0974  -49.6069 C.2       15 UNK         0.5000 
     88 O          -4.1151  -20.9879  -49.7643 O.2       15 UNK        -0.5000 
     89 N          -3.3664  -22.9451  -50.6189 N.am      16 UNK        -0.5000 
     90 CA         -3.7561  -22.7307  -52.0104 C.3       16 UNK         0.1400 
     91 CB         -3.8203  -24.0881  -52.7299 C.3       16 UNK        -0.1800 
     92 C          -2.8038  -21.7498  -52.7128 C.2       16 UNK         0.5000 
     93 O          -1.7640  -22.1643  -53.2281 O.2       16 UNK        -0.5000 
     94 N          -3.1695  -20.4626  -52.7063 N.am      17 UNK        -0.5000 
     95 CA         -2.4461  -19.3870  -53.3860 C.3       17 UNK         0.1400 
     96 CB         -3.0087  -18.0358  -52.9232 C.3       17 UNK        -0.1800 
     97 C          -2.5109  -19.5015  -54.9205 C.2       17 UNK         0.5000 
     98 O          -1.5443  -19.1523  -55.5995 O.2       17 UNK        -0.5000 
     99 N          -3.6394  -20.0041  -55.4310 N.am      18 UNK        -0.5000 
    100 CA        -3.8866  -20.3059  -56.8354 C.3       18 UNK         0.1400 
    101 CB        -4.2334  -19.0115  -57.6046 C.3       18 UNK        -0.1800 
    102 C         -4.9797  -21.3868  -56.8759 C.2       18 UNK         0.5000 
    103 O         -4.8863  -22.3639  -56.1296 O.2       18 UNK        -0.5000 
    104 N         -6.0180  -21.1866  -57.6995 N.am      19 UNK        -0.5000 
    105 CA        -7.2634  -21.9584  -57.6457 C.3       19 UNK         0.1400 
    106 CB        -8.0906  -21.6780  -58.9095 C.3       19 UNK        -0.1800 
    107 C         -8.0781  -21.6356  -56.3755 C.2       19 UNK         0.5000 
    108 O         -8.7539  -22.5151  -55.8402 O.2       19 UNK        -0.5000 
    109 N         -7.9695  -20.3848  -55.9071 N.am      20 UNK        -0.5000 
    110 CA        -8.4456  -19.9302  -54.6050 C.3       20 UNK         0.1400 
    111 CB        -8.6912  -18.4149  -54.6725 C.3       20 UNK        -0.1800 
    112 C         -7.4081  -20.2546  -53.5157 C.2       20 UNK         0.5000 
    113 O         -6.2081  -20.3227  -53.8046 O.2       20 UNK        -0.5000 
    114 N         -7.8891  -20.4100  -52.2793 N.am      21 UNK        -0.5000 
    115 CA        -7.0732  -20.6555  -51.0959 C.3       21 UNK         0.1400 
    116 CB        -7.3581  -22.0713  -50.5676 C.3       21 UNK        -0.1800 
    117 C         -7.3659  -19.5997  -50.0237 C.2       21 UNK         0.5000 
    118 O         -8.4744  -19.0605  -49.9720 O.2       21 UNK        -0.5000 
    119 N         -6.3601  -19.3396  -49.1846 N.am      22 UNK        -0.5000 
    120 CA        -6.3973  -18.3484  -48.0971 C.3       22 UNK         0.1400 
    121 C         -7.1595  -18.8151  -46.8217 C.2       22 UNK         0.5000 
    122 N         -7.5643  -20.0742  -46.7067 N.am      22 UNK        -0.7600 
    123 O         -7.3932  -18.0154  -45.9201 O.2       22 UNK        -0.5000 
    124 C124       -4.9765  -17.8505  -47.7293 C.3       23 UNK        -0.0398 
    125 S125       -4.0592  -17.1772  -49.1541 S.3       23 UNK        -0.2404 
    126 C126       -2.3839  -17.0684  -48.4553 C.3       23 UNK        -0.0205 
    127 H127        5.3415  -18.5742  -46.8089 H         1 UNK         0.0600 
    128 H128        3.7597  -19.3545  -46.8668 H         1 UNK         0.0600 
    129 H129        4.6281  -19.0175  -48.3654 H         1 UNK         0.0600 
    130 H130        3.9816  -17.1701  -49.4311 H         1 UNK         0.3000 
    131 H131        1.8725  -15.6042  -48.7035 H         1 UNK         0.0600 
    132 H132        4.0148  -14.5567  -50.6065 H         1 UNK         0.0800 
    133 H133        2.3049  -14.2515  -50.6534 H         1 UNK         0.0800 
    134 H134        0.7412  -15.3660  -52.0220 H         1 UNK         0.0800 
    135 H135        1.0196  -16.7369  -53.0616 H         1 UNK         0.0800 
    136 H136       -0.7621  -15.7102  -50.1785 H         1 UNK         0.1150 
    137 H137       -1.7166  -19.6702  -48.8495 H         1 UNK         0.1150 
    138 H138        1.2711  -19.0860  -51.8674 H         1 UNK         0.1150 
    139 H139       -0.8114  -21.5927  -50.0439 H         1 UNK         0.0800 
    140 H140        0.1163  -21.3379  -51.4977 H         1 UNK         0.0800 
    141 H141        1.4868  -20.0144  -47.7888 H         1 UNK         0.0800 
    142 H142        0.0859  -21.0427  -47.7206 H         1 UNK         0.0800 
    143 H143        2.9004  -22.0951  -47.1959 H         1 UNK         0.0600 
    144 H144        1.2221  -20.5980  -45.3385 H         1 UNK         0.3000 
    145 H145        3.4080  -21.2247  -42.5600 H         1 UNK         0.0600 
    146 H146        3.3397  -18.7132  -42.5252 H         1 UNK         0.0600 
    147 H147        4.4803  -19.3308  -43.7120 H         1 UNK         0.0600 
    148 H148        2.9266  -18.7109  -44.2393 H         1 UNK         0.0600 
    149 H149        1.0604  -19.6503  -42.7360 H         1 UNK         0.3000 
    150 H150       -1.2442  -22.2441  -41.7972 H         1 UNK         0.0600 
    151 H151       -0.1375  -21.4569  -39.7296 H         1 UNK         0.0600 
    152 H152       -1.6184  -20.5552  -40.0126 H         1 UNK         0.0600 
    153 H153       -0.0557  -19.8154  -40.3537 H         1 UNK         0.0600 
    154 H154       -1.1143  -19.3784  -42.5786 H         1 UNK         0.3000 
    155 H155       -2.7516  -19.9279  -45.6347 H         1 UNK         0.0600 
    156 H156       -4.1398  -18.8079  -43.1385 H         1 UNK         0.0600 
    157 H157       -4.8026  -20.0093  -44.2411 H         1 UNK         0.0600 
    158 H158       -4.5306  -18.3669  -44.7981 H         1 UNK         0.0600 
    159 H159       -2.2137  -17.5387  -44.1481 H         1 UNK         0.3000 
    160 H160        1.2332  -17.3463  -44.8245 H         1 UNK         0.0600 
    161 H161       -0.9207  -15.7270  -46.2523 H         1 UNK         0.0600 
    162 H162        0.3566  -16.6463  -47.0419 H         1 UNK         0.0600 
    163 H163        0.7693  -15.2660  -46.0417 H         1 UNK         0.0600 
    164 H164       -0.5199  -15.3687  -43.8004 H         1 UNK         0.3000 
    165 H165       -1.2543  -16.4326  -40.7580 H         1 UNK         0.0600 
    166 H166        1.5891  -15.3228  -40.5752 H         1 UNK         0.0600 
    167 H167        0.3905  -15.3630  -39.2906 H         1 UNK         0.0600 
    168 H168        1.0615  -16.8630  -39.9054 H         1 UNK         0.0600 
    169 H169       -0.0052  -13.9444  -41.8209 H         1 UNK         0.3000 
    170 H170       -3.0873  -12.6534  -42.9084 H         1 UNK         0.0600 
    171 H171       -3.3235  -12.0856  -40.4836 H         1 UNK         0.0600 
    172 H172       -1.6055  -11.7164  -40.3917 H         1 UNK         0.0600 
    173 H173       -2.6733  -10.7316  -41.3934 H         1 UNK         0.0600 
    174 H174       -0.5405  -11.4183  -42.6071 H         1 UNK         0.3000 
    175 H175        0.4308  -11.9802  -45.8882 H         1 UNK         0.0600 
    176 H176        1.7833  -10.2095  -44.8549 H         1 UNK         0.0600 
    177 H177        0.1010   -9.9691  -44.4215 H         1 UNK         0.0600 
    178 H178        1.2295  -10.6380  -43.2433 H         1 UNK         0.0600 
    179 H179        2.2635  -13.1543  -45.5379 H         1 UNK         0.3000 
    180 H180        4.3499  -13.6885  -42.9367 H         1 UNK         0.0600 
    181 H181        4.4738  -16.1647  -43.2535 H         1 UNK         0.0600 
    182 H182        3.1900  -15.7082  -42.1506 H         1 UNK         0.0600 
    183 H183        2.8028  -16.1724  -43.7995 H         1 UNK         0.0600 
    184 H184        4.0816  -14.9528  -45.5553 H         1 UNK         0.3000 
    185 H185        5.1519  -12.2079  -47.4096 H         1 UNK         0.0600 
    186 H186        7.2388  -13.3917  -48.0464 H         1 UNK         0.0600 
    187 H187        7.4272  -12.6504  -46.4663 H         1 UNK         0.0600 
    188 H188        7.1519  -14.3839  -46.5898 H         1 UNK         0.0600 
    189 H189        5.2704  -14.9542  -48.0827 H         1 UNK         0.3000 
    190 H190        3.0313  -24.0990  -46.2379 H         1 UNK         0.3000 
    191 H191        0.9574  -25.6413  -45.1764 H         1 UNK         0.0600 
    192 H192        2.6500  -27.4807  -45.2731 H         1 UNK         0.0600 
    193 H193        3.3655  -25.9862  -44.6930 H         1 UNK         0.0600 
    194 H194        3.6510  -26.5157  -46.3517 H         1 UNK         0.0600 
    195 H195        1.5371  -25.0646  -48.4969 H         1 UNK         0.3000 
    196 H196        0.4362  -27.4972  -49.6261 H         1 UNK         0.0600 
    197 H197        0.5857  -26.1968  -51.7437 H         1 UNK         0.0600 
    198 H198        2.0889  -26.0944  -50.8432 H         1 UNK         0.0600 
    199 H199        0.9666  -24.7337  -50.8426 H         1 UNK         0.0600 
    200 H200       -1.3235  -27.0114  -47.7806 H         1 UNK         0.3000 
    201 H201       -3.4574  -26.7809  -47.2089 H         1 UNK         0.0600 
    202 H202       -3.6911  -28.3846  -49.1259 H         1 UNK         0.0600 
    203 H203       -4.0262  -27.0351  -50.2103 H         1 UNK         0.0600 
    204 H204       -5.1386  -27.4189  -48.9030 H         1 UNK         0.0600 
    205 H205       -2.0329  -24.2445  -47.8264 H         1 UNK         0.3000 
    206 H206       -2.2778  -22.0624  -47.9441 H         1 UNK         0.0600 
    207 H207       -3.9997  -22.4022  -46.1338 H         1 UNK         0.0600 
    208 H208       -4.3203  -20.9809  -47.1108 H         1 UNK         0.0600 
    209 H209       -5.2640  -22.4355  -47.3590 H         1 UNK         0.0600 
    210 H210       -2.8893  -23.8201  -50.4254 H         1 UNK         0.3000 
    211 H211       -4.7621  -22.3133  -52.0369 H         1 UNK         0.0600 
    212 H212       -2.8497  -24.5845  -52.7504 H         1 UNK         0.0600 
    213 H213       -4.1464  -23.9627  -53.7632 H         1 UNK         0.0600 
    214 H214       -4.5283  -24.7588  -52.2426 H         1 UNK         0.0600 
    215 H215       -4.0203  -20.2012  -52.2297 H         1 UNK         0.3000 
    216 H216       -1.3968  -19.4439  -53.0933 H         1 UNK         0.0600 
    217 H217       -2.4644  -17.2085  -53.3799 H         1 UNK         0.0600 
    218 H218       -2.9185  -17.9249  -51.8437 H         1 UNK         0.0600 
    219 H219       -4.0621  -17.9259  -53.1845 H         1 UNK         0.0600 
    220 H220       -4.3805  -20.2865  -54.7946 H         1 UNK         0.3000 
    221 H221       -2.9875  -20.7472  -57.2698 H         1 UNK         0.0600 
    222 H222       -5.1314  -18.5343  -57.2100 H         1 UNK         0.0600 
    223 H223       -3.4224  -18.2863  -57.5382 H         1 UNK         0.0600 
    224 H224       -4.3905  -19.2083  -58.6657 H         1 UNK         0.0600 
    225 H225       -6.0100  -20.3777  -58.3037 H         1 UNK         0.3000 
    226 H226       -7.0158  -23.0220  -57.6260 H         1 UNK         0.0600 
    227 H227       -9.0155  -22.2563  -58.9055 H         1 UNK         0.0600 
    228 H228       -8.3625  -20.6247  -58.9893 H         1 UNK         0.0600 
    229 H229       -7.5405  -21.9526  -59.8097 H         1 UNK         0.0600 
    230 H230       -7.3557  -19.7513  -56.3952 H         1 UNK         0.3000 
    231 H231       -9.3863  -20.4308  -54.3655 H         1 UNK         0.0600 
    232 H232       -9.0736  -18.0374  -53.7232 H         1 UNK         0.0600 
    233 H233       -9.4264  -18.1686  -55.4389 H         1 UNK         0.0600 
    234 H234       -7.7749  -17.8674  -54.8978 H         1 UNK         0.0600 
    235 H235       -8.8715  -20.2517  -52.1000 H         1 UNK         0.3000 
    236 H236       -6.0189  -20.5710  -51.3522 H         1 UNK         0.0600 
    237 H237       -8.4022  -22.1895  -50.2757 H         1 UNK         0.0600 
    238 H238       -7.1347  -22.8254  -51.3224 H         1 UNK         0.0600 
    239 H239       -6.7440  -22.2974  -49.6950 H         1 UNK         0.0600 
    240 H240       -5.4793  -19.8346  -49.3116 H         1 UNK         0.3000 
    241 H241       -6.9519  -17.4837  -48.4667 H         1 UNK         0.0600 
    242 H242       -8.0625  -20.3603  -45.8789 H         1 UNK         0.3800 
    243 H243       -7.3939  -20.7362  -47.4451 H         1 UNK         0.3800 
    244 H244       -4.3973  -18.6673  -47.2990 H         1 UNK         0.0800 
    245 H245       -5.0268  -17.0697  -46.9681 H         1 UNK         0.0800 
    246 H246       -2.1701  -16.0227  -48.2320 H         1 UNK         0.0800 
    247 H247       -2.3251  -17.6036  -47.5076 H         1 UNK         0.0800 
@<TRIPOS>BOND
     1    1    2 1    
     2    1  127 1    
     3    1  128 1    
     4    1  129 1    
     5    2    3 2    
     6    2    4 am   BACKBONE|DICT|INTERRES
     7    4    5 1    
     8    4  130 1    
     9    5    6 1    
    10    5   65 1    
    11    5  131 1    
    12    6    7 1    
    13    6  132 1    
    14    6  133 1    
    15    7    8 1    
    16    8    9 1    
    17    8  134 1    
    18    8  135 1    
    19    9   10 ar   
    20    9   14 ar   
    21   10   11 ar   
    22   10  136 1    
    23   11   12 ar   
    24   11  126 1    
    25   12   13 ar   
    26   12  137 1    
    27   13   14 ar   
    28   13   15 1    
    29   14  138 1    
    30   15   16 1    
    31   15  139 1    
    32   15  140 1    
    33   16   17 1    
    34   17   18 1    
    35   17  141 1    
    36   17  142 1    
    37   18   19 1    
    38   18   67 1    
    39   18  143 1    
    40   19   20 am   BACKBONE|DICT|INTERRES
    41   19  144 1    
    42   20   21 2    
    43   20   22 1    
    44   22   23 1    
    45   22   24 1    
    46   22  145 1    
    47   23  146 1    
    48   23  147 1    
    49   23  148 1    
    50   24   25 am   BACKBONE|DICT|INTERRES
    51   24  149 1    
    52   25   26 2    
    53   25   27 1    
    54   27   28 1    
    55   27   29 1    
    56   27  150 1    
    57   28  151 1    
    58   28  152 1    
    59   28  153 1    
    60   29   30 am   BACKBONE|DICT|INTERRES
    61   29  154 1    
    62   30   31 2    
    63   30   32 1    
    64   32   33 1    
    65   32   34 1    
    66   32  155 1    
    67   33  156 1    
    68   33  157 1    
    69   33  158 1    
    70   34   35 am   BACKBONE|DICT|INTERRES
    71   34  159 1    
    72   35   36 2    
    73   35   37 1    
    74   37   38 1    
    75   37   39 1    
    76   37  160 1    
    77   38  161 1    
    78   38  162 1    
    79   38  163 1    
    80   39   40 am   BACKBONE|DICT|INTERRES
    81   39  164 1    
    82   40   41 2    
    83   40   42 1    
    84   42   43 1    
    85   42   44 1    
    86   42  165 1    
    87   43  166 1    
    88   43  167 1    
    89   43  168 1    
    90   44   45 am   BACKBONE|DICT|INTERRES
    91   44  169 1    
    92   45   46 2    
    93   45   47 1    
    94   47   48 1    
    95   47   49 1    
    96   47  170 1    
    97   48  171 1    
    98   48  172 1    
    99   48  173 1    
   100   49   50 am   BACKBONE|DICT|INTERRES
   101   49  174 1    
   102   50   51 2    
   103   50   52 1    
   104   52   53 1    
   105   52   54 1    
   106   52  175 1    
   107   53  176 1    
   108   53  177 1    
   109   53  178 1    
   110   54   55 am   BACKBONE|DICT|INTERRES
   111   54  179 1    
   112   55   56 2    
   113   55   57 1    
   114   57   58 1    
   115   57   59 1    
   116   57  180 1    
   117   58  181 1    
   118   58  182 1    
   119   58  183 1    
   120   59   60 am   BACKBONE|DICT|INTERRES
   121   59  184 1    
   122   60   61 2    
   123   60   62 1    
   124   62   63 1    
   125   62   64 1    
   126   62  185 1    
   127   63  186 1    
   128   63  187 1    
   129   63  188 1    
   130   64   65 am   BACKBONE|DICT|INTERRES
   131   64  189 1    
   132   65   66 2    
   133   67   68 2    
   134   67   69 am   BACKBONE|DICT|INTERRES
   135   69   70 1    
   136   69  190 1    
   137   70   71 1    
   138   70   72 1    
   139   70  191 1    
   140   71  192 1    
   141   71  193 1    
   142   71  194 1    
   143   72   73 2    
   144   72   74 am   BACKBONE|DICT|INTERRES
   145   74   75 1    
   146   74  195 1    
   147   75   76 1    
   148   75   77 1    
   149   75  196 1    
   150   76  197 1    
   151   76  198 1    
   152   76  199 1    
   153   77   78 2    
   154   77   79 am   BACKBONE|DICT|INTERRES
   155   79   80 1    
   156   79  200 1    
   157   80   81 1    
   158   80   82 1    
   159   80  201 1    
   160   81  202 1    
   161   81  203 1    
   162   81  204 1    
   163   82   83 2    
   164   82   84 am   BACKBONE|DICT|INTERRES
   165   84   85 1    
   166   84  205 1    
   167   85   86 1    
   168   85   87 1    
   169   85  206 1    
   170   86  207 1    
   171   86  208 1    
   172   86  209 1    
   173   87   88 2    
   174   87   89 am   BACKBONE|DICT|INTERRES
   175   89   90 1    
   176   89  210 1    
   177   90   91 1    
   178   90   92 1    
   179   90  211 1    
   180   91  212 1    
   181   91  213 1    
   182   91  214 1    
   183   92   93 2    
   184   92   94 am   BACKBONE|DICT|INTERRES
   185   94   95 1    
   186   94  215 1    
   187   95   96 1    
   188   95   97 1    
   189   95  216 1    
   190   96  217 1    
   191   96  218 1    
   192   96  219 1    
   193   97   98 2    
   194   97   99 am   BACKBONE|DICT|INTERRES
   195   99  100 1    
   196   99  220 1    
   197  100  101 1    
   198  100  102 1    
   199  100  221 1    
   200  101  222 1    
   201  101  223 1    
   202  101  224 1    
   203  102  103 2    
   204  102  104 am   BACKBONE|DICT|INTERRES
   205  104  105 1    
   206  104  225 1    
   207  105  106 1    
   208  105  107 1    
   209  105  226 1    
   210  106  227 1    
   211  106  228 1    
   212  106  229 1    
   213  107  108 2    
   214  107  109 am   BACKBONE|DICT|INTERRES
   215  109  110 1    
   216  109  230 1    
   217  110  111 1    
   218  110  112 1    
   219  110  231 1    
   220  111  232 1    
   221  111  233 1    
   222  111  234 1    
   223  112  113 2    
   224  112  114 am   BACKBONE|DICT|INTERRES
   225  114  115 1    
   226  114  235 1    
   227  115  116 1    
   228  115  117 1    
   229  115  236 1    
   230  116  237 1    
   231  116  238 1    
   232  116  239 1    
   233  117  118 2    
   234  117  119 am   BACKBONE|DICT|INTERRES
   235  119  120 1    
   236  119  240 1    
   237  120  121 1    
   238  120  124 1    
   239  120  241 1    
   240  121  122 am   BACKBONE|DICT|INTERRES
   241  121  123 2    
   242  122  242 1    
   243  122  243 1    
   244  124  125 1    
   245  124  244 1    
   246  124  245 1    
   247  125  126 1    
   248  126  246 1    
   249  126  247 1    
@<TRIPOS>SUBSTRUCTURE
     1 UNK         1 GROUP             0       ****    0 ROOT    
