@<TRIPOS>MOLECULE
3R540
247   249    1
SMALL
USER_CHARGES


@<TRIPOS>ATOM
      1 CA          2.1079  -10.0636  -51.0296 C.3       0 UNK        -0.1800 
      2 C           1.9446  -11.5151  -50.6010 C.2       0 UNK         0.5000 
      3 O           1.9645  -12.4094  -51.4470 O.2       0 UNK        -0.5000 
      4 N           1.7766  -11.7502  -49.2942 N.am      1 UNK        -0.5000 
      5 CA          1.6400  -13.0749  -48.6855 C.3       1 UNK         0.1400 
      6 C6          1.1462  -12.9887  -47.2193 C.3       23 UNK        -0.0398 
      7 S7         -0.5653  -12.3711  -47.0992 S.3       23 UNK        -0.2404 
      8 C8         -1.4810  -13.9061  -46.7554 C.3       23 UNK        -0.0205 
      9 C9         -1.5955  -14.7916  -47.9866 C.ar      23 UNK        -0.0193 
     10 C10        -2.6420  -14.5901  -48.8897 C.ar      23 UNK        -0.1150 
     11 C11        -2.7740  -15.3975  -50.0256 C.ar      23 UNK        -0.0193 
     12 C12        -1.8165  -16.3878  -50.2646 C.ar      23 UNK        -0.1150 
     13 C13        -0.7577  -16.5954  -49.3763 C.ar      23 UNK        -0.0193 
     14 C14        -0.6643  -15.8072  -48.2256 C.ar      23 UNK        -0.1150 
     15 C15         0.3002  -17.6477  -49.6838 C.3       23 UNK        -0.0205 
     16 S16        -0.3600  -19.3416  -49.6361 S.3       23 UNK        -0.2404 
     17 C17        -0.8529  -19.4864  -47.8882 C.3       23 UNK        -0.0398 
     18 CA         -0.4998  -20.8614  -47.2724 C.3       11 UNK         0.1400 
     19 N          -0.4813  -20.8074  -45.8074 N.am      11 UNK        -0.5000 
     20 C          -0.1616  -21.8302  -45.0008 C.2       10 UNK         0.5000 
     21 O           0.2249  -22.9276  -45.3979 O.2       10 UNK        -0.5000 
     22 CA         -0.3535  -21.6080  -43.4941 C.3       10 UNK         0.1400 
     23 CB          0.8818  -20.9379  -42.8887 C.3       10 UNK        -0.1800 
     24 N          -1.5432  -20.8096  -43.2043 N.am      10 UNK        -0.5000 
     25 C          -2.7971  -21.2554  -43.3684 C.2       9 UNK         0.5000 
     26 O          -3.0758  -22.3941  -43.7446 O.2       9 UNK        -0.5000 
     27 CA         -3.9258  -20.2383  -43.1248 C.3       9 UNK         0.1400 
     28 CB         -4.1604  -20.0296  -41.6211 C.3       9 UNK        -0.1800 
     29 N          -3.6568  -18.9480  -43.7595 N.am      9 UNK        -0.5000 
     30 C          -3.5292  -18.7636  -45.0810 C.2       8 UNK         0.5000 
     31 O          -3.6706  -19.6587  -45.9125 O.2       8 UNK        -0.5000 
     32 CA         -3.1407  -17.3528  -45.5565 C.3       8 UNK         0.1400 
     33 CB         -4.3965  -16.5456  -45.9092 C.3       8 UNK        -0.1800 
     34 N          -2.3365  -16.5974  -44.5941 N.am      8 UNK        -0.5000 
     35 C          -1.1204  -16.9447  -44.1497 C.2       7 UNK         0.5000 
     36 O          -0.5539  -17.9914  -44.4752 O.2       7 UNK        -0.5000 
     37 CA         -0.4350  -15.9123  -43.2280 C.3       7 UNK         0.1400 
     38 CB         -1.3920  -15.3487  -42.1540 C.3       7 UNK        -0.1800 
     39 N           0.8077  -16.3698  -42.6052 N.am      7 UNK        -0.5000 
     40 C           0.9659  -17.3463  -41.6980 C.2       6 UNK         0.5000 
     41 O           0.0632  -18.1006  -41.3321 O.2       6 UNK        -0.5000 
     42 CA          2.3609  -17.4640  -41.0413 C.3       6 UNK         0.1400 
     43 CB          3.1495  -18.6635  -41.5854 C.3       6 UNK        -0.1800 
     44 N           3.1682  -16.2511  -41.2023 N.am      6 UNK        -0.5000 
     45 C           2.9610  -15.1136  -40.5213 C.2       5 UNK         0.5000 
     46 O           2.1181  -15.0018  -39.6303 O.2       5 UNK        -0.5000 
     47 CA          3.8185  -13.8865  -40.8943 C.3       5 UNK         0.1400 
     48 CB          4.9080  -13.6520  -39.8362 C.3       5 UNK        -0.1800 
     49 N           4.4532  -13.9584  -42.2129 N.am      5 UNK        -0.5000 
     50 C           3.8158  -14.0017  -43.3904 C.2       4 UNK         0.5000 
     51 O           2.5878  -14.0243  -43.5004 O.2       4 UNK        -0.5000 
     52 CA          4.6869  -14.0549  -44.6640 C.3       4 UNK         0.1400 
     53 CB          6.2087  -14.1064  -44.3984 C.3       4 UNK        -0.1800 
     54 N           4.2913  -15.1545  -45.5459 N.am      4 UNK        -0.5000 
     55 C           4.2253  -16.4598  -45.2357 C.2       3 UNK         0.5000 
     56 O           4.5198  -16.9096  -44.1276 O.2       3 UNK        -0.5000 
     57 CA          3.7349  -17.4304  -46.3320 C.3       3 UNK         0.1400 
     58 CB          2.3780  -18.0397  -45.9470 C.3       3 UNK        -0.1800 
     59 N           3.5953  -16.7958  -47.6434 N.am      3 UNK        -0.5000 
     60 C           4.5966  -16.5424  -48.4967 C.2       2 UNK         0.5000 
     61 O           5.7621  -16.8909  -48.3093 O.2       2 UNK        -0.5000 
     62 CA          4.2317  -15.7336  -49.7595 C.3       2 UNK         0.1400 
     63 CB          4.0048  -16.6745  -50.9524 C.3       2 UNK        -0.1800 
     64 N           3.0498  -14.8770  -49.5908 N.am      2 UNK        -0.5000 
     65 C           2.9786  -13.8342  -48.7515 C.2       1 UNK         0.5000 
     66 O           3.9059  -13.4862  -48.0186 O.2       1 UNK        -0.5000 
     67 C          -1.4427  -21.9713  -47.7854 C.2       11 UNK         0.5000 
     68 O          -1.0089  -22.8450  -48.5379 O.2       11 UNK        -0.5000 
     69 N          -2.6983  -21.9441  -47.3163 N.am      12 UNK        -0.5000 
     70 CA         -3.7303  -22.9274  -47.6346 C.3       12 UNK         0.1400 
     71 CB         -5.0734  -22.4663  -47.0503 C.3       12 UNK        -0.1800 
     72 C          -3.3811  -24.3444  -47.1503 C.2       12 UNK         0.5000 
     73 O          -3.6165  -25.3013  -47.8857 O.2       12 UNK        -0.5000 
     74 N          -2.8036  -24.4581  -45.9458 N.am      13 UNK        -0.5000 
     75 CA         -2.3485  -25.7259  -45.3736 C.3       13 UNK         0.1400 
     76 CB         -1.9652  -25.5235  -43.9001 C.3       13 UNK        -0.1800 
     77 C          -1.1825  -26.3544  -46.1592 C.2       13 UNK         0.5000 
     78 O          -1.2035  -27.5602  -46.4086 O.2       13 UNK        -0.5000 
     79 N          -0.1964  -25.5313  -46.5413 N.am      14 UNK        -0.5000 
     80 CA          0.9865  -25.9502  -47.2918 C.3       14 UNK         0.1400 
     81 CB          2.0469  -24.8391  -47.2453 C.3       14 UNK        -0.1800 
     82 C           0.6663  -26.3296  -48.7469 C.2       14 UNK         0.5000 
     83 O           1.1486  -27.3573  -49.2251 O.2       14 UNK        -0.5000 
     84 N          -0.1332  -25.4965  -49.4261 N.am      15 UNK        -0.5000 
     85 CA         -0.4954  -25.6839  -50.8316 C.3       15 UNK         0.1400 
     86 CB         -0.9117  -24.3302  -51.4233 C.3       15 UNK        -0.1800 
     87 C          -1.6185  -26.7141  -51.0453 C.2       15 UNK         0.5000 
     88 O          -1.7843  -27.1884  -52.1693 O.2       15 UNK        -0.5000 
     89 N          -2.4062  -26.9936  -49.9964 N.am      16 UNK        -0.5000 
     90 CA         -3.6281  -27.8114  -49.9387 C.3       16 UNK         0.1400 
     91 CB         -3.3793  -29.2566  -50.4105 C.3       16 UNK        -0.1800 
     92 C          -4.8338  -27.1765  -50.6639 C.2       16 UNK         0.5000 
     93 O          -5.9494  -27.2221  -50.1443 O.2       16 UNK        -0.5000 
     94 N          -4.5871  -26.5737  -51.8293 N.am      17 UNK        -0.5000 
     95 CA         -5.5221  -25.7907  -52.6220 C.3       17 UNK         0.1400 
     96 CB         -6.2609  -26.7069  -53.6150 C.3       17 UNK        -0.1800 
     97 C          -4.6989  -24.6942  -53.3108 C.2       17 UNK         0.5000 
     98 O          -4.2280  -24.8910  -54.4325 O.2       17 UNK        -0.5000 
     99 N          -4.4706  -23.5883  -52.5897 N.am      18 UNK        -0.5000 
    100 CA        -3.6823  -22.4412  -53.0428 C.3       18 UNK         0.1400 
    101 CB        -3.5187  -21.4445  -51.8817 C.3       18 UNK        -0.1800 
    102 C         -4.3171  -21.7499  -54.2629 C.2       18 UNK         0.5000 
    103 O         -5.4760  -21.3358  -54.1923 O.2       18 UNK        -0.5000 
    104 N         -3.5389  -21.6040  -55.3440 N.am      19 UNK        -0.5000 
    105 CA        -3.9543  -20.9565  -56.5948 C.3       19 UNK         0.1400 
    106 CB        -2.8841  -21.2067  -57.6682 C.3       19 UNK        -0.1800 
    107 C         -4.2252  -19.4461  -56.4431 C.2       19 UNK         0.5000 
    108 O         -5.0081  -18.8846  -57.2096 O.2       19 UNK        -0.5000 
    109 N         -3.5948  -18.8280  -55.4358 N.am      20 UNK        -0.5000 
    110 CA        -3.8109  -17.4425  -55.0195 C.3       20 UNK         0.1400 
    111 CB        -2.5944  -16.9956  -54.1929 C.3       20 UNK        -0.1800 
    112 C         -5.1155  -17.2358  -54.2187 C.2       20 UNK         0.5000 
    113 O         -5.4661  -16.0873  -53.9482 O.2       20 UNK        -0.5000 
    114 N         -5.7967  -18.3315  -53.8473 N.am      21 UNK        -0.5000 
    115 CA        -6.9829  -18.3976  -52.9933 C.3       21 UNK         0.1400 
    116 CB        -8.1845  -17.6631  -53.6326 C.3       21 UNK        -0.1800 
    117 C         -6.6525  -17.9744  -51.5469 C.2       21 UNK         0.5000 
    118 O         -5.7207  -18.5319  -50.9657 O.2       21 UNK        -0.5000 
    119 N         -7.4268  -17.0361  -50.9868 N.am      22 UNK        -0.5000 
    120 CA        -7.3468  -16.5405  -49.5980 C.3       22 UNK         0.1400 
    121 C         -7.8426  -17.5500  -48.5157 C.2       22 UNK         0.5000 
    122 N         -8.4804  -18.6569  -48.8768 N.am      22 UNK        -0.7600 
    123 O         -7.6873  -17.3092  -47.3219 O.2       22 UNK        -0.5000 
    124 C124       -5.9722  -15.9132  -49.2246 C.3       23 UNK        -0.0398 
    125 S125       -5.4675  -14.5543  -50.3339 S.3       23 UNK        -0.2404 
    126 C126       -3.9103  -15.2081  -51.0312 C.3       23 UNK        -0.0205 
    127 H127        2.0617   -9.3819  -50.1799 H         1 UNK         0.0600 
    128 H128        1.3189   -9.7882  -51.7295 H         1 UNK         0.0600 
    129 H129        3.0687   -9.9247  -51.5252 H         1 UNK         0.0600 
    130 H130        1.7734  -10.9732  -48.6493 H         1 UNK         0.3000 
    131 H131        0.8996  -13.6335  -49.2620 H         1 UNK         0.0600 
    132 H132        1.7874  -12.3238  -46.6376 H         1 UNK         0.0800 
    133 H133        1.2093  -13.9585  -46.7232 H         1 UNK         0.0800 
    134 H134       -0.9987  -14.4442  -45.9418 H         1 UNK         0.0800 
    135 H135       -2.4779  -13.6454  -46.3973 H         1 UNK         0.0800 
    136 H136       -3.3528  -13.7987  -48.7010 H         1 UNK         0.1150 
    137 H137       -1.8907  -17.0047  -51.1479 H         1 UNK         0.1150 
    138 H138        0.1420  -15.9698  -47.5259 H         1 UNK         0.1150 
    139 H139        0.7023  -17.4606  -50.6802 H         1 UNK         0.0800 
    140 H140        1.1409  -17.5757  -48.9943 H         1 UNK         0.0800 
    141 H141       -1.9202  -19.2768  -47.8221 H         1 UNK         0.0800 
    142 H142       -0.3578  -18.6970  -47.3217 H         1 UNK         0.0800 
    143 H143        0.5147  -21.1237  -47.5805 H         1 UNK         0.0600 
    144 H144       -0.7508  -19.9304  -45.3767 H         1 UNK         0.3000 
    145 H145       -0.4727  -22.5848  -43.0211 H         1 UNK         0.0600 
    146 H146        0.7693  -20.8230  -41.8108 H         1 UNK         0.0600 
    147 H147        1.7783  -21.5339  -43.0636 H         1 UNK         0.0600 
    148 H148        1.0519  -19.9515  -43.3206 H         1 UNK         0.0600 
    149 H149       -1.3888  -19.8470  -42.9343 H         1 UNK         0.3000 
    150 H150       -4.8405  -20.6445  -43.5618 H         1 UNK         0.0600 
    151 H151       -4.3705  -20.9777  -41.1243 H         1 UNK         0.0600 
    152 H152       -5.0130  -19.3743  -41.4426 H         1 UNK         0.0600 
    153 H153       -3.2900  -19.5886  -41.1331 H         1 UNK         0.0600 
    154 H154       -3.5140  -18.1579  -43.1486 H         1 UNK         0.3000 
    155 H155       -2.5468  -17.4622  -46.4649 H         1 UNK         0.0600 
    156 H156       -5.0157  -17.0921  -46.6209 H         1 UNK         0.0600 
    157 H157       -4.1407  -15.5913  -46.3686 H         1 UNK         0.0600 
    158 H158       -5.0095  -16.3451  -45.0298 H         1 UNK         0.0600 
    159 H159       -2.7392  -15.7316  -44.2671 H         1 UNK         0.3000 
    160 H160       -0.1361  -15.0828  -43.8689 H         1 UNK         0.0600 
    161 H161       -1.8322  -16.1410  -41.5474 H         1 UNK         0.0600 
    162 H162       -2.2095  -14.7810  -42.5989 H         1 UNK         0.0600 
    163 H163       -0.8680  -14.6691  -41.4812 H         1 UNK         0.0600 
    164 H164        1.6205  -15.8099  -42.8341 H         1 UNK         0.3000 
    165 H165        2.2063  -17.6275  -39.9726 H         1 UNK         0.0600 
    166 H166        4.1786  -18.6604  -41.2257 H         1 UNK         0.0600 
    167 H167        2.7022  -19.5993  -41.2540 H         1 UNK         0.0600 
    168 H168        3.1753  -18.6735  -42.6745 H         1 UNK         0.0600 
    169 H169        3.8661  -16.2659  -41.9355 H         1 UNK         0.3000 
    170 H170        3.1531  -13.0208  -40.8964 H         1 UNK         0.0600 
    171 H171        4.4734  -13.5563  -38.8402 H         1 UNK         0.0600 
    172 H172        5.6213  -14.4766  -39.8049 H         1 UNK         0.0600 
    173 H173        5.4620  -12.7344  -40.0354 H         1 UNK         0.0600 
    174 H174        5.4628  -13.9714  -42.2198 H         1 UNK         0.3000 
    175 H175        4.4780  -13.1338  -45.2098 H         1 UNK         0.0600 
    176 H176        6.4996  -14.9955  -43.8375 H         1 UNK         0.0600 
    177 H177        6.7635  -14.1163  -45.3368 H         1 UNK         0.0600 
    178 H178        6.5453  -13.2308  -43.8420 H         1 UNK         0.0600 
    179 H179        4.0486  -14.8697  -46.4867 H         1 UNK         0.3000 
    180 H180        4.4659  -18.2384  -46.4030 H         1 UNK         0.0600 
    181 H181        1.6028  -17.2764  -45.8808 H         1 UNK         0.0600 
    182 H182        2.4263  -18.5393  -44.9792 H         1 UNK         0.0600 
    183 H183        2.0583  -18.7847  -46.6755 H         1 UNK         0.0600 
    184 H184        2.6760  -16.4657  -47.8882 H         1 UNK         0.3000 
    185 H185        5.0813  -15.0876  -49.9909 H         1 UNK         0.0600 
    186 H186        4.8907  -17.2819  -51.1428 H         1 UNK         0.0600 
    187 H187        3.1735  -17.3575  -50.7768 H         1 UNK         0.0600 
    188 H188        3.7951  -16.1146  -51.8640 H         1 UNK         0.0600 
    189 H189        2.2676  -15.0638  -50.2021 H         1 UNK         0.3000 
    190 H190       -2.9814  -21.1798  -46.7063 H         1 UNK         0.3000 
    191 H191       -3.8268  -22.9648  -48.7217 H         1 UNK         0.0600 
    192 H192       -5.3704  -21.5011  -47.4614 H         1 UNK         0.0600 
    193 H193       -5.8669  -23.1778  -47.2822 H         1 UNK         0.0600 
    194 H194       -5.0256  -22.3658  -45.9651 H         1 UNK         0.0600 
    195 H195       -2.6843  -23.6286  -45.3746 H         1 UNK         0.3000 
    196 H196       -3.1859  -26.4259  -45.4088 H         1 UNK         0.0600 
    197 H197       -1.6443  -26.4625  -43.4474 H         1 UNK         0.0600 
    198 H198       -2.8113  -25.1556  -43.3195 H         1 UNK         0.0600 
    199 H199       -1.1482  -24.8105  -43.7910 H         1 UNK         0.0600 
    200 H200       -0.2303  -24.5540  -46.2613 H         1 UNK         0.3000 
    201 H201        1.4034  -26.8326  -46.8017 H         1 UNK         0.0600 
    202 H202        2.3506  -24.6285  -46.2197 H         1 UNK         0.0600 
    203 H203        1.6759  -23.9101  -47.6805 H         1 UNK         0.0600 
    204 H204        2.9424  -25.1278  -47.7970 H         1 UNK         0.0600 
    205 H205       -0.4696  -24.6477  -48.9768 H         1 UNK         0.3000 
    206 H206        0.3828  -26.0342  -51.3782 H         1 UNK         0.0600 
    207 H207       -0.1291  -23.5820  -51.2966 H         1 UNK         0.0600 
    208 H208       -1.1099  -24.4181  -52.4919 H         1 UNK         0.0600 
    209 H209       -1.8173  -23.9529  -50.9479 H         1 UNK         0.0600 
    210 H210       -2.2252  -26.4788  -49.1431 H         1 UNK         0.3000 
    211 H211       -3.8923  -27.8593  -48.8812 H         1 UNK         0.0600 
    212 H212       -3.1637  -29.3102  -51.4777 H         1 UNK         0.0600 
    213 H213       -4.2568  -29.8779  -50.2275 H         1 UNK         0.0600 
    214 H214       -2.5439  -29.7074  -49.8747 H         1 UNK         0.0600 
    215 H215       -3.6357  -26.6169  -52.1846 H         1 UNK         0.3000 
    216 H216       -6.2574  -25.3117  -51.9719 H         1 UNK         0.0600 
    217 H217       -6.9268  -26.1287  -54.2564 H         1 UNK         0.0600 
    218 H218       -6.8707  -27.4429  -53.0909 H         1 UNK         0.0600 
    219 H219       -5.5672  -27.2479  -54.2599 H         1 UNK         0.0600 
    220 H220       -4.8957  -23.5061  -51.6783 H         1 UNK         0.3000 
    221 H221       -2.6916  -22.8039  -53.3219 H         1 UNK         0.0600 
    222 H222       -4.4819  -21.0666  -51.5357 H         1 UNK         0.0600 
    223 H223       -3.0143  -21.8989  -51.0292 H         1 UNK         0.0600 
    224 H224       -2.9221  -20.5830  -52.1848 H         1 UNK         0.0600 
    225 H225       -2.6029  -21.9834  -55.3285 H         1 UNK         0.3000 
    226 H226       -4.8848  -21.4244  -56.9230 H         1 UNK         0.0600 
    227 H227       -2.7401  -22.2735  -57.8409 H         1 UNK         0.0600 
    228 H228       -3.1745  -20.7614  -58.6208 H         1 UNK         0.0600 
    229 H229       -1.9218  -20.7781  -57.3854 H         1 UNK         0.0600 
    230 H230       -2.9599  -19.3726  -54.8715 H         1 UNK         0.3000 
    231 H231       -3.8714  -16.8132  -55.9099 H         1 UNK         0.0600 
    232 H232       -2.4719  -17.6124  -53.3025 H         1 UNK         0.0600 
    233 H233       -2.6960  -15.9596  -53.8672 H         1 UNK         0.0600 
    234 H234       -1.6756  -17.0613  -54.7757 H         1 UNK         0.0600 
    235 H235       -5.4239  -19.2364  -54.1085 H         1 UNK         0.3000 
    236 H236       -7.2470  -19.4546  -52.9375 H         1 UNK         0.0600 
    237 H237       -8.3609  -18.0205  -54.6472 H         1 UNK         0.0600 
    238 H238       -9.1007  -17.8438  -53.0693 H         1 UNK         0.0600 
    239 H239       -8.0344  -16.5846  -53.6860 H         1 UNK         0.0600 
    240 H240       -8.1612  -16.6301  -51.5482 H         1 UNK         0.3000 
    241 H241       -8.0774  -15.7323  -49.5533 H         1 UNK         0.0600 
    242 H242       -8.8093  -19.2911  -48.1660 H         1 UNK         0.3800 
    243 H243       -8.6385  -18.8668  -49.8484 H         1 UNK         0.3800 
    244 H244       -6.0144  -15.4877  -48.2213 H         1 UNK         0.0800 
    245 H245       -5.1959  -16.6785  -49.1898 H         1 UNK         0.0800 
    246 H246       -4.1315  -16.1582  -51.5183 H         1 UNK         0.0800 
    247 H247       -3.5699  -14.5304  -51.8147 H         1 UNK         0.0800 
@<TRIPOS>BOND
     1    1    2 1    
     2    1  127 1    
     3    1  128 1    
     4    1  129 1    
     5    2    3 2    
     6    2    4 am   BACKBONE|DICT|INTERRES
     7    4    5 1    
     8    4  130 1    
     9    5    6 1    
    10    5   65 1    
    11    5  131 1    
    12    6    7 1    
    13    6  132 1    
    14    6  133 1    
    15    7    8 1    
    16    8    9 1    
    17    8  134 1    
    18    8  135 1    
    19    9   10 ar   
    20    9   14 ar   
    21   10   11 ar   
    22   10  136 1    
    23   11   12 ar   
    24   11  126 1    
    25   12   13 ar   
    26   12  137 1    
    27   13   14 ar   
    28   13   15 1    
    29   14  138 1    
    30   15   16 1    
    31   15  139 1    
    32   15  140 1    
    33   16   17 1    
    34   17   18 1    
    35   17  141 1    
    36   17  142 1    
    37   18   19 1    
    38   18   67 1    
    39   18  143 1    
    40   19   20 am   BACKBONE|DICT|INTERRES
    41   19  144 1    
    42   20   21 2    
    43   20   22 1    
    44   22   23 1    
    45   22   24 1    
    46   22  145 1    
    47   23  146 1    
    48   23  147 1    
    49   23  148 1    
    50   24   25 am   BACKBONE|DICT|INTERRES
    51   24  149 1    
    52   25   26 2    
    53   25   27 1    
    54   27   28 1    
    55   27   29 1    
    56   27  150 1    
    57   28  151 1    
    58   28  152 1    
    59   28  153 1    
    60   29   30 am   BACKBONE|DICT|INTERRES
    61   29  154 1    
    62   30   31 2    
    63   30   32 1    
    64   32   33 1    
    65   32   34 1    
    66   32  155 1    
    67   33  156 1    
    68   33  157 1    
    69   33  158 1    
    70   34   35 am   BACKBONE|DICT|INTERRES
    71   34  159 1    
    72   35   36 2    
    73   35   37 1    
    74   37   38 1    
    75   37   39 1    
    76   37  160 1    
    77   38  161 1    
    78   38  162 1    
    79   38  163 1    
    80   39   40 am   BACKBONE|DICT|INTERRES
    81   39  164 1    
    82   40   41 2    
    83   40   42 1    
    84   42   43 1    
    85   42   44 1    
    86   42  165 1    
    87   43  166 1    
    88   43  167 1    
    89   43  168 1    
    90   44   45 am   BACKBONE|DICT|INTERRES
    91   44  169 1    
    92   45   46 2    
    93   45   47 1    
    94   47   48 1    
    95   47   49 1    
    96   47  170 1    
    97   48  171 1    
    98   48  172 1    
    99   48  173 1    
   100   49   50 am   BACKBONE|DICT|INTERRES
   101   49  174 1    
   102   50   51 2    
   103   50   52 1    
   104   52   53 1    
   105   52   54 1    
   106   52  175 1    
   107   53  176 1    
   108   53  177 1    
   109   53  178 1    
   110   54   55 am   BACKBONE|DICT|INTERRES
   111   54  179 1    
   112   55   56 2    
   113   55   57 1    
   114   57   58 1    
   115   57   59 1    
   116   57  180 1    
   117   58  181 1    
   118   58  182 1    
   119   58  183 1    
   120   59   60 am   BACKBONE|DICT|INTERRES
   121   59  184 1    
   122   60   61 2    
   123   60   62 1    
   124   62   63 1    
   125   62   64 1    
   126   62  185 1    
   127   63  186 1    
   128   63  187 1    
   129   63  188 1    
   130   64   65 am   BACKBONE|DICT|INTERRES
   131   64  189 1    
   132   65   66 2    
   133   67   68 2    
   134   67   69 am   BACKBONE|DICT|INTERRES
   135   69   70 1    
   136   69  190 1    
   137   70   71 1    
   138   70   72 1    
   139   70  191 1    
   140   71  192 1    
   141   71  193 1    
   142   71  194 1    
   143   72   73 2    
   144   72   74 am   BACKBONE|DICT|INTERRES
   145   74   75 1    
   146   74  195 1    
   147   75   76 1    
   148   75   77 1    
   149   75  196 1    
   150   76  197 1    
   151   76  198 1    
   152   76  199 1    
   153   77   78 2    
   154   77   79 am   BACKBONE|DICT|INTERRES
   155   79   80 1    
   156   79  200 1    
   157   80   81 1    
   158   80   82 1    
   159   80  201 1    
   160   81  202 1    
   161   81  203 1    
   162   81  204 1    
   163   82   83 2    
   164   82   84 am   BACKBONE|DICT|INTERRES
   165   84   85 1    
   166   84  205 1    
   167   85   86 1    
   168   85   87 1    
   169   85  206 1    
   170   86  207 1    
   171   86  208 1    
   172   86  209 1    
   173   87   88 2    
   174   87   89 am   BACKBONE|DICT|INTERRES
   175   89   90 1    
   176   89  210 1    
   177   90   91 1    
   178   90   92 1    
   179   90  211 1    
   180   91  212 1    
   181   91  213 1    
   182   91  214 1    
   183   92   93 2    
   184   92   94 am   BACKBONE|DICT|INTERRES
   185   94   95 1    
   186   94  215 1    
   187   95   96 1    
   188   95   97 1    
   189   95  216 1    
   190   96  217 1    
   191   96  218 1    
   192   96  219 1    
   193   97   98 2    
   194   97   99 am   BACKBONE|DICT|INTERRES
   195   99  100 1    
   196   99  220 1    
   197  100  101 1    
   198  100  102 1    
   199  100  221 1    
   200  101  222 1    
   201  101  223 1    
   202  101  224 1    
   203  102  103 2    
   204  102  104 am   BACKBONE|DICT|INTERRES
   205  104  105 1    
   206  104  225 1    
   207  105  106 1    
   208  105  107 1    
   209  105  226 1    
   210  106  227 1    
   211  106  228 1    
   212  106  229 1    
   213  107  108 2    
   214  107  109 am   BACKBONE|DICT|INTERRES
   215  109  110 1    
   216  109  230 1    
   217  110  111 1    
   218  110  112 1    
   219  110  231 1    
   220  111  232 1    
   221  111  233 1    
   222  111  234 1    
   223  112  113 2    
   224  112  114 am   BACKBONE|DICT|INTERRES
   225  114  115 1    
   226  114  235 1    
   227  115  116 1    
   228  115  117 1    
   229  115  236 1    
   230  116  237 1    
   231  116  238 1    
   232  116  239 1    
   233  117  118 2    
   234  117  119 am   BACKBONE|DICT|INTERRES
   235  119  120 1    
   236  119  240 1    
   237  120  121 1    
   238  120  124 1    
   239  120  241 1    
   240  121  122 am   BACKBONE|DICT|INTERRES
   241  121  123 2    
   242  122  242 1    
   243  122  243 1    
   244  124  125 1    
   245  124  244 1    
   246  124  245 1    
   247  125  126 1    
   248  126  246 1    
   249  126  247 1    
@<TRIPOS>SUBSTRUCTURE
     1 UNK         1 GROUP             0       ****    0 ROOT    
