@<TRIPOS>MOLECULE
3R540
247   249    1
SMALL
USER_CHARGES


@<TRIPOS>ATOM
      1 CA         -1.9179  -10.9510  -49.3236 C.3       0 UNK        -0.1800 
      2 C          -1.6312  -12.2598  -48.6017 C.2       0 UNK         0.5000 
      3 O          -2.4460  -12.7006  -47.7923 O.2       0 UNK        -0.5000 
      4 N          -0.4796  -12.8800  -48.8979 N.am      1 UNK        -0.5000 
      5 CA         -0.0030  -14.1392  -48.3056 C.3       1 UNK         0.1400 
      6 C6         -0.9677  -15.3273  -48.5852 C.3       23 UNK        -0.0398 
      7 S7         -0.1425  -16.9366  -48.8013 S.3       23 UNK        -0.2404 
      8 C8          0.6187  -16.7618  -50.4464 C.3       23 UNK        -0.0205 
      9 C9          1.3734  -18.0109  -50.8905 C.ar      23 UNK        -0.0193 
     10 C10         1.2250  -18.4761  -52.1992 C.ar      23 UNK        -0.1150 
     11 C11         1.9331  -19.5948  -52.6457 C.ar      23 UNK        -0.0193 
     12 C12         2.8144  -20.2414  -51.7750 C.ar      23 UNK        -0.1150 
     13 C13         2.9855  -19.7853  -50.4631 C.ar      23 UNK        -0.0193 
     14 C14         2.2594  -18.6711  -50.0300 C.ar      23 UNK        -0.1150 
     15 C15         4.0091  -20.4346  -49.5352 C.3       23 UNK        -0.0205 
     16 S16         3.9514  -22.2568  -49.5254 S.3       23 UNK        -0.2404 
     17 C17         2.4998  -22.6256  -48.4828 C.3       23 UNK        -0.0398 
     18 CA          2.9073  -23.4498  -47.2261 C.3       11 UNK         0.1400 
     19 N           3.1355  -22.5890  -46.0565 N.am      11 UNK        -0.5000 
     20 C           3.9017  -22.9116  -45.0046 C.2       10 UNK         0.5000 
     21 O           4.5619  -23.9486  -44.9339 O.2       10 UNK        -0.5000 
     22 CA          3.8981  -21.9351  -43.8113 C.3       10 UNK         0.1400 
     23 CB          4.8838  -20.7807  -44.0457 C.3       10 UNK        -0.1800 
     24 N           2.5664  -21.3999  -43.5120 N.am      10 UNK        -0.5000 
     25 C           1.5339  -22.1342  -43.0697 C.2       9 UNK         0.5000 
     26 O           1.6057  -23.3404  -42.8358 O.2       9 UNK        -0.5000 
     27 CA          0.1775  -21.4199  -42.9124 C.3       9 UNK         0.1400 
     28 CB          0.0939  -20.6788  -41.5699 C.3       9 UNK        -0.1800 
     29 N          -0.0996  -20.4880  -44.0036 N.am      9 UNK        -0.5000 
     30 C          -0.2231  -20.8358  -45.2925 C.2       8 UNK         0.5000 
     31 O          -0.1684  -21.9914  -45.7056 O.2       8 UNK        -0.5000 
     32 CA         -0.3564  -19.6843  -46.2966 C.3       8 UNK         0.1400 
     33 CB         -1.7988  -19.1580  -46.3139 C.3       8 UNK        -0.1800 
     34 N           0.5837  -18.6082  -45.9807 N.am      8 UNK        -0.5000 
     35 C           1.9172  -18.7333  -46.0554 C.2       7 UNK         0.5000 
     36 O           2.4807  -19.7541  -46.4460 O.2       7 UNK        -0.5000 
     37 CA          2.7663  -17.5553  -45.5497 C.3       7 UNK         0.1400 
     38 CB          3.1158  -16.5851  -46.6864 C.3       7 UNK        -0.1800 
     39 N           2.1032  -16.8490  -44.4521 N.am      7 UNK        -0.5000 
     40 C           2.0531  -17.3402  -43.2043 C.2       6 UNK         0.5000 
     41 O           2.5957  -18.3956  -42.8745 O.2       6 UNK        -0.5000 
     42 CA          1.2401  -16.5613  -42.1523 C.3       6 UNK         0.1400 
     43 CB          2.1416  -15.5806  -41.3882 C.3       6 UNK        -0.1800 
     44 N           0.0729  -15.8525  -42.6834 N.am      6 UNK        -0.5000 
     45 C          -0.9651  -16.4488  -43.2897 C.2       5 UNK         0.5000 
     46 O          -1.0084  -17.6621  -43.5000 O.2       5 UNK        -0.5000 
     47 CA         -2.1427  -15.5426  -43.7153 C.3       5 UNK         0.1400 
     48 CB         -3.4283  -16.3259  -44.0529 C.3       5 UNK        -0.1800 
     49 N          -2.4162  -14.4788  -42.7455 N.am      5 UNK        -0.5000 
     50 C          -2.7811  -14.6193  -41.4602 C.2       4 UNK         0.5000 
     51 O          -3.0228  -15.7063  -40.9331 O.2       4 UNK        -0.5000 
     52 CA         -2.8913  -13.3227  -40.6218 C.3       4 UNK         0.1400 
     53 CB         -2.5665  -13.5548  -39.1308 C.3       4 UNK        -0.1800 
     54 N          -2.1024  -12.2011  -41.1523 N.am      4 UNK        -0.5000 
     55 C          -0.7757  -12.1730  -41.3404 C.2       3 UNK         0.5000 
     56 O          -0.0132  -13.0961  -41.0486 O.2       3 UNK        -0.5000 
     57 CA         -0.2107  -10.9178  -42.0268 C.3       3 UNK         0.1400 
     58 CB          0.5633  -10.0512  -41.0220 C.3       3 UNK        -0.1800 
     59 N           0.6711  -11.2697  -43.1411 N.am      3 UNK        -0.5000 
     60 C           0.3083  -11.9782  -44.2195 C.2       2 UNK         0.5000 
     61 O          -0.8437  -12.3736  -44.4160 O.2       2 UNK        -0.5000 
     62 CA          1.4336  -12.2619  -45.2341 C.3       2 UNK         0.1400 
     63 CB          2.5196  -13.1811  -44.6404 C.3       2 UNK        -0.1800 
     64 N           0.9512  -12.7696  -46.5230 N.am      2 UNK        -0.5000 
     65 C           0.4203  -13.9665  -46.8237 C.2       1 UNK         0.5000 
     66 O           0.3025  -14.8956  -46.0211 O.2       1 UNK        -0.5000 
     67 C           1.9077  -24.5994  -46.9461 C.2       11 UNK         0.5000 
     68 O           1.7631  -25.4796  -47.7957 O.2       11 UNK        -0.5000 
     69 N           1.2424  -24.5804  -45.7807 N.am      12 UNK        -0.5000 
     70 CA          0.1924  -25.5003  -45.3280 C.3       12 UNK         0.1400 
     71 CB          0.7572  -26.9194  -45.1106 C.3       12 UNK        -0.1800 
     72 C          -1.0624  -25.4736  -46.2291 C.2       12 UNK         0.5000 
     73 O          -1.7151  -26.5017  -46.4212 O.2       12 UNK        -0.5000 
     74 N          -1.3748  -24.2894  -46.7668 N.am      13 UNK        -0.5000 
     75 CA         -2.5510  -24.0150  -47.5827 C.3       13 UNK         0.1400 
     76 CB         -2.2429  -22.8171  -48.4943 C.3       13 UNK        -0.1800 
     77 C          -3.7744  -23.7276  -46.6943 C.2       13 UNK         0.5000 
     78 O          -3.6277  -23.2213  -45.5792 O.2       13 UNK        -0.5000 
     79 N          -4.9673  -24.0354  -47.2180 N.am      14 UNK        -0.5000 
     80 CA         -6.2522  -23.8395  -46.5366 C.3       14 UNK         0.1400 
     81 CB         -7.3043  -24.7320  -47.2141 C.3       14 UNK        -0.1800 
     82 C          -6.7301  -22.3722  -46.5160 C.2       14 UNK         0.5000 
     83 O          -7.6310  -22.0386  -45.7453 O.2       14 UNK        -0.5000 
     84 N          -6.1355  -21.5313  -47.3663 N.am      15 UNK        -0.5000 
     85 CA         -6.4174  -20.1118  -47.5382 C.3       15 UNK         0.1400 
     86 CB         -7.6790  -19.9349  -48.4053 C.3       15 UNK        -0.1800 
     87 C          -5.1937  -19.4698  -48.2060 C.2       15 UNK         0.5000 
     88 O          -4.2864  -20.1921  -48.6305 O.2       15 UNK        -0.5000 
     89 N          -5.1989  -18.1358  -48.3278 N.am      16 UNK        -0.5000 
     90 CA         -4.1941  -17.3477  -49.0486 C.3       16 UNK         0.1400 
     91 CB         -4.5952  -15.8646  -49.0065 C.3       16 UNK        -0.1800 
     92 C          -4.0261  -17.8379  -50.4996 C.2       16 UNK         0.5000 
     93 O          -4.9921  -17.7938  -51.2634 O.2       16 UNK        -0.5000 
     94 N          -2.8377  -18.3784  -50.8113 N.am      17 UNK        -0.5000 
     95 CA         -2.4670  -19.0434  -52.0705 C.3       17 UNK         0.1400 
     96 CB         -2.4600  -18.0256  -53.2306 C.3       17 UNK        -0.1800 
     97 C          -3.3177  -20.2927  -52.4047 C.2       17 UNK         0.5000 
     98 O          -3.3706  -20.7029  -53.5670 O.2       17 UNK        -0.5000 
     99 N          -3.9965  -20.8598  -51.3920 N.am      18 UNK        -0.5000 
    100 CA        -5.0580  -21.8691  -51.4955 C.3       18 UNK         0.1400 
    101 CB        -4.4687  -23.2427  -51.8705 C.3       18 UNK        -0.1800 
    102 C         -6.1910  -21.4062  -52.4389 C.2       18 UNK         0.5000 
    103 O         -6.6622  -22.1787  -53.2740 O.2       18 UNK        -0.5000 
    104 N         -6.5340  -20.1125  -52.3381 N.am      19 UNK        -0.5000 
    105 CA        -7.3143  -19.2951  -53.2710 C.3       19 UNK         0.1400 
    106 CB        -8.7152  -19.8738  -53.5533 C.3       19 UNK        -0.1800 
    107 C         -6.5224  -19.0002  -54.5590 C.2       19 UNK         0.5000 
    108 O         -6.2573  -17.8331  -54.8480 O.2       19 UNK        -0.5000 
    109 N         -6.1287  -20.0577  -55.2777 N.am      20 UNK        -0.5000 
    110 CA        -5.2720  -20.0366  -56.4617 C.3       20 UNK         0.1400 
    111 CB        -5.9594  -19.3031  -57.6367 C.3       20 UNK        -0.1800 
    112 C         -4.8891  -21.4842  -56.8177 C.2       20 UNK         0.5000 
    113 O         -5.1611  -21.9342  -57.9330 O.2       20 UNK        -0.5000 
    114 N         -4.3115  -22.2127  -55.8532 N.am      21 UNK        -0.5000 
    115 CA        -4.0063  -23.6426  -55.9878 C.3       21 UNK         0.1400 
    116 CB        -5.2135  -24.4766  -55.5173 C.3       21 UNK        -0.1800 
    117 C         -2.6964  -24.0644  -55.2955 C.2       21 UNK         0.5000 
    118 O         -2.4384  -25.2637  -55.1820 O.2       21 UNK        -0.5000 
    119 N         -1.8825  -23.0977  -54.8520 N.am      22 UNK        -0.5000 
    120 CA        -0.5738  -23.3313  -54.2139 C.3       22 UNK         0.1400 
    121 C          0.5509  -23.8656  -55.1531 C.2       22 UNK         0.5000 
    122 N          0.3845  -23.8524  -56.4702 N.am      22 UNK        -0.7600 
    123 O          1.5906  -24.3101  -54.6743 O.2       22 UNK        -0.5000 
    124 C124       -0.1059  -22.0927  -53.4103 C.3       23 UNK        -0.0398 
    125 S125        0.0591  -20.5889  -54.4377 S.3       23 UNK        -0.2404 
    126 C126        1.7691  -20.0813  -54.0789 C.3       23 UNK        -0.0205 
    127 H127       -2.0315  -10.1422  -48.6019 H         1 UNK         0.0600 
    128 H128       -2.8430  -11.0326  -49.8941 H         1 UNK         0.0600 
    129 H129       -1.1165  -10.6823  -50.0122 H         1 UNK         0.0600 
    130 H130        0.1352  -12.4652  -49.5851 H         1 UNK         0.3000 
    131 H131        0.9313  -14.3399  -48.8293 H         1 UNK         0.0600 
    132 H132       -1.5287  -15.1434  -49.5018 H         1 UNK         0.0800 
    133 H133       -1.7154  -15.4148  -47.7951 H         1 UNK         0.0800 
    134 H134       -0.1626  -16.5112  -51.1654 H         1 UNK         0.0800 
    135 H135        1.3198  -15.9276  -50.4424 H         1 UNK         0.0800 
    136 H136        0.5601  -17.9652  -52.8812 H         1 UNK         0.1150 
    137 H137        3.3834  -21.0915  -52.1241 H         1 UNK         0.1150 
    138 H138        2.3992  -18.3026  -49.0248 H         1 UNK         0.1150 
    139 H139        5.0016  -20.1286  -49.8673 H         1 UNK         0.0800 
    140 H140        3.9091  -20.0675  -48.5147 H         1 UNK         0.0800 
    141 H141        1.9796  -21.7070  -48.2081 H         1 UNK         0.0800 
    142 H142        1.8014  -23.1687  -49.1224 H         1 UNK         0.0800 
    143 H143        3.8473  -23.9626  -47.4423 H         1 UNK         0.0600 
    144 H144        2.6775  -21.6821  -46.0656 H         1 UNK         0.3000 
    145 H145        4.2346  -22.4878  -42.9317 H         1 UNK         0.0600 
    146 H146        4.9039  -20.0982  -43.1958 H         1 UNK         0.0600 
    147 H147        4.6288  -20.2041  -44.9340 H         1 UNK         0.0600 
    148 H148        5.8975  -21.1587  -44.1838 H         1 UNK         0.0600 
    149 H149        2.4377  -20.4022  -43.6327 H         1 UNK         0.3000 
    150 H150       -0.6030  -22.1836  -42.9279 H         1 UNK         0.0600 
    151 H151        0.8527  -19.9007  -41.4891 H         1 UNK         0.0600 
    152 H152       -0.8811  -20.2089  -41.4387 H         1 UNK         0.0600 
    153 H153        0.2399  -21.3664  -40.7361 H         1 UNK         0.0600 
    154 H154       -0.2007  -19.5071  -43.7618 H         1 UNK         0.3000 
    155 H155       -0.1135  -20.0577  -47.2939 H         1 UNK         0.0600 
    156 H156       -2.4574  -19.8752  -46.8002 H         1 UNK         0.0600 
    157 H157       -1.8805  -18.2151  -46.8493 H         1 UNK         0.0600 
    158 H158       -2.1929  -19.0058  -45.3104 H         1 UNK         0.0600 
    159 H159        0.1932  -17.7526  -45.6125 H         1 UNK         0.3000 
    160 H160        3.7082  -17.9616  -45.1756 H         1 UNK         0.0600 
    161 H161        2.2294  -16.2334  -47.2091 H         1 UNK         0.0600 
    162 H162        3.7530  -17.0729  -47.4247 H         1 UNK         0.0600 
    163 H163        3.6579  -15.7159  -46.3148 H         1 UNK         0.0600 
    164 H164        1.5766  -16.0160  -44.6907 H         1 UNK         0.3000 
    165 H165        0.8685  -17.2959  -41.4349 H         1 UNK         0.0600 
    166 H166        1.6236  -15.1653  -40.5239 H         1 UNK         0.0600 
    167 H167        3.0373  -16.0791  -41.0152 H         1 UNK         0.0600 
    168 H168        2.4646  -14.7504  -42.0158 H         1 UNK         0.0600 
    169 H169        0.0195  -14.8604  -42.4898 H         1 UNK         0.3000 
    170 H170       -1.8305  -15.0359  -44.6275 H         1 UNK         0.0600 
    171 H171       -3.2765  -16.9640  -44.9226 H         1 UNK         0.0600 
    172 H172       -3.7448  -16.9639  -43.2274 H         1 UNK         0.0600 
    173 H173       -4.2504  -15.6514  -44.2919 H         1 UNK         0.0600 
    174 H174       -2.2070  -13.5451  -43.0788 H         1 UNK         0.3000 
    175 H175       -3.9359  -13.0153  -40.6857 H         1 UNK         0.0600 
    176 H176       -1.5565  -13.9416  -38.9917 H         1 UNK         0.0600 
    177 H177       -2.6538  -12.6308  -38.5594 H         1 UNK         0.0600 
    178 H178       -3.2550  -14.2744  -38.6864 H         1 UNK         0.0600 
    179 H179       -2.6429  -11.3993  -41.4471 H         1 UNK         0.3000 
    180 H180       -1.0361  -10.3269  -42.4292 H         1 UNK         0.0600 
    181 H181        1.4202  -10.5841  -40.6074 H         1 UNK         0.0600 
    182 H182       -0.0750   -9.7573  -40.1878 H         1 UNK         0.0600 
    183 H183        0.9295   -9.1362  -41.4881 H         1 UNK         0.0600 
    184 H184        1.6378  -10.9972  -43.0413 H         1 UNK         0.3000 
    185 H185        1.8999  -11.3014  -45.4584 H         1 UNK         0.0600 
    186 H186        3.0160  -12.7104  -43.7915 H         1 UNK         0.0600 
    187 H187        2.1001  -14.1198  -44.2857 H         1 UNK         0.0600 
    188 H188        3.2900  -13.4111  -45.3761 H         1 UNK         0.0600 
    189 H189        0.9600  -12.0883  -47.2682 H         1 UNK         0.3000 
    190 H190        1.4140  -23.7959  -45.1658 H         1 UNK         0.3000 
    191 H191       -0.1320  -25.1257  -44.3562 H         1 UNK         0.0600 
    192 H192        0.0189  -27.5644  -44.6329 H         1 UNK         0.0600 
    193 H193        1.6345  -26.8984  -44.4640 H         1 UNK         0.0600 
    194 H194        1.0433  -27.3918  -46.0505 H         1 UNK         0.0600 
    195 H195       -0.8407  -23.4751  -46.4675 H         1 UNK         0.3000 
    196 H196       -2.7639  -24.8832  -48.2102 H         1 UNK         0.0600 
    197 H197       -1.9940  -21.9264  -47.9182 H         1 UNK         0.0600 
    198 H198       -1.4049  -23.0302  -49.1582 H         1 UNK         0.0600 
    199 H199       -3.0993  -22.5699  -49.1198 H         1 UNK         0.0600 
    200 H200       -5.0088  -24.4516  -48.1370 H         1 UNK         0.3000 
    201 H201       -6.1487  -24.1632  -45.4987 H         1 UNK         0.0600 
    202 H202       -8.2707  -24.6461  -46.7155 H         1 UNK         0.0600 
    203 H203       -7.0146  -25.7823  -47.1767 H         1 UNK         0.0600 
    204 H204       -7.4499  -24.4595  -48.2602 H         1 UNK         0.0600 
    205 H205       -5.3442  -21.8549  -47.9073 H         1 UNK         0.3000 
    206 H206       -6.5622  -19.6469  -46.5610 H         1 UNK         0.0600 
    207 H207       -8.5483  -20.3995  -47.9400 H         1 UNK         0.0600 
    208 H208       -7.9189  -18.8809  -48.5486 H         1 UNK         0.0600 
    209 H209       -7.5530  -20.3802  -49.3930 H         1 UNK         0.0600 
    210 H210       -5.9912  -17.6207  -47.9734 H         1 UNK         0.3000 
    211 H211       -3.2431  -17.4577  -48.5279 H         1 UNK         0.0600 
    212 H212       -5.5906  -15.7055  -49.4232 H         1 UNK         0.0600 
    213 H213       -3.9023  -15.2508  -49.5822 H         1 UNK         0.0600 
    214 H214       -4.5929  -15.4839  -47.9848 H         1 UNK         0.0600 
    215 H215       -2.1258  -18.4012  -50.0938 H         1 UNK         0.3000 
    216 H216       -1.4483  -19.4053  -51.9333 H         1 UNK         0.0600 
    217 H217       -1.8606  -17.1494  -52.9857 H         1 UNK         0.0600 
    218 H218       -3.4667  -17.6858  -53.4763 H         1 UNK         0.0600 
    219 H219       -2.0391  -18.4619  -54.1364 H         1 UNK         0.0600 
    220 H220       -3.8772  -20.4672  -50.4615 H         1 UNK         0.3000 
    221 H221       -5.5044  -21.9597  -50.5045 H         1 UNK         0.0600 
    222 H222       -5.2406  -24.0129  -51.8783 H         1 UNK         0.0600 
    223 H223       -4.0118  -23.2243  -52.8571 H         1 UNK         0.0600 
    224 H224       -3.7045  -23.5573  -51.1615 H         1 UNK         0.0600 
    225 H225       -6.0072  -19.5514  -51.6771 H         1 UNK         0.3000 
    226 H226       -7.4588  -18.3395  -52.7641 H         1 UNK         0.0600 
    227 H227       -9.2526  -20.0721  -52.6261 H         1 UNK         0.0600 
    228 H228       -9.3118  -19.1669  -54.1308 H         1 UNK         0.0600 
    229 H229       -8.6770  -20.8013  -54.1243 H         1 UNK         0.0600 
    230 H230       -6.3635  -20.9795  -54.9210 H         1 UNK         0.3000 
    231 H231       -4.3488  -19.5107  -56.2102 H         1 UNK         0.0600 
    232 H232       -5.3423  -19.3386  -58.5353 H         1 UNK         0.0600 
    233 H233       -6.1289  -18.2498  -57.4167 H         1 UNK         0.0600 
    234 H234       -6.9226  -19.7531  -57.8796 H         1 UNK         0.0600 
    235 H235       -4.0951  -21.7726  -54.9605 H         1 UNK         0.3000 
    236 H236       -3.8394  -23.8737  -57.0418 H         1 UNK         0.0600 
    237 H237       -6.1131  -24.2187  -56.0763 H         1 UNK         0.0600 
    238 H238       -5.0406  -25.5433  -55.6637 H         1 UNK         0.0600 
    239 H239       -5.4241  -24.3205  -54.4602 H         1 UNK         0.0600 
    240 H240       -2.1506  -22.1288  -54.9603 H         1 UNK         0.3000 
    241 H241       -0.7280  -24.1274  -53.4828 H         1 UNK         0.0600 
    242 H242       -0.4588  -23.4806  -56.8756 H         1 UNK         0.3800 
    243 H243        1.1161  -24.2049  -57.0671 H         1 UNK         0.3800 
    244 H244        0.8346  -22.3038  -52.8985 H         1 UNK         0.0800 
    245 H245       -0.8222  -21.8831  -52.6163 H         1 UNK         0.0800 
    246 H246        2.0465  -19.2747  -54.7586 H         1 UNK         0.0800 
    247 H247        2.4435  -20.9116  -54.2950 H         1 UNK         0.0800 
@<TRIPOS>BOND
     1    1    2 1    
     2    1  127 1    
     3    1  128 1    
     4    1  129 1    
     5    2    3 2    
     6    2    4 am   BACKBONE|DICT|INTERRES
     7    4    5 1    
     8    4  130 1    
     9    5    6 1    
    10    5   65 1    
    11    5  131 1    
    12    6    7 1    
    13    6  132 1    
    14    6  133 1    
    15    7    8 1    
    16    8    9 1    
    17    8  134 1    
    18    8  135 1    
    19    9   10 ar   
    20    9   14 ar   
    21   10   11 ar   
    22   10  136 1    
    23   11   12 ar   
    24   11  126 1    
    25   12   13 ar   
    26   12  137 1    
    27   13   14 ar   
    28   13   15 1    
    29   14  138 1    
    30   15   16 1    
    31   15  139 1    
    32   15  140 1    
    33   16   17 1    
    34   17   18 1    
    35   17  141 1    
    36   17  142 1    
    37   18   19 1    
    38   18   67 1    
    39   18  143 1    
    40   19   20 am   BACKBONE|DICT|INTERRES
    41   19  144 1    
    42   20   21 2    
    43   20   22 1    
    44   22   23 1    
    45   22   24 1    
    46   22  145 1    
    47   23  146 1    
    48   23  147 1    
    49   23  148 1    
    50   24   25 am   BACKBONE|DICT|INTERRES
    51   24  149 1    
    52   25   26 2    
    53   25   27 1    
    54   27   28 1    
    55   27   29 1    
    56   27  150 1    
    57   28  151 1    
    58   28  152 1    
    59   28  153 1    
    60   29   30 am   BACKBONE|DICT|INTERRES
    61   29  154 1    
    62   30   31 2    
    63   30   32 1    
    64   32   33 1    
    65   32   34 1    
    66   32  155 1    
    67   33  156 1    
    68   33  157 1    
    69   33  158 1    
    70   34   35 am   BACKBONE|DICT|INTERRES
    71   34  159 1    
    72   35   36 2    
    73   35   37 1    
    74   37   38 1    
    75   37   39 1    
    76   37  160 1    
    77   38  161 1    
    78   38  162 1    
    79   38  163 1    
    80   39   40 am   BACKBONE|DICT|INTERRES
    81   39  164 1    
    82   40   41 2    
    83   40   42 1    
    84   42   43 1    
    85   42   44 1    
    86   42  165 1    
    87   43  166 1    
    88   43  167 1    
    89   43  168 1    
    90   44   45 am   BACKBONE|DICT|INTERRES
    91   44  169 1    
    92   45   46 2    
    93   45   47 1    
    94   47   48 1    
    95   47   49 1    
    96   47  170 1    
    97   48  171 1    
    98   48  172 1    
    99   48  173 1    
   100   49   50 am   BACKBONE|DICT|INTERRES
   101   49  174 1    
   102   50   51 2    
   103   50   52 1    
   104   52   53 1    
   105   52   54 1    
   106   52  175 1    
   107   53  176 1    
   108   53  177 1    
   109   53  178 1    
   110   54   55 am   BACKBONE|DICT|INTERRES
   111   54  179 1    
   112   55   56 2    
   113   55   57 1    
   114   57   58 1    
   115   57   59 1    
   116   57  180 1    
   117   58  181 1    
   118   58  182 1    
   119   58  183 1    
   120   59   60 am   BACKBONE|DICT|INTERRES
   121   59  184 1    
   122   60   61 2    
   123   60   62 1    
   124   62   63 1    
   125   62   64 1    
   126   62  185 1    
   127   63  186 1    
   128   63  187 1    
   129   63  188 1    
   130   64   65 am   BACKBONE|DICT|INTERRES
   131   64  189 1    
   132   65   66 2    
   133   67   68 2    
   134   67   69 am   BACKBONE|DICT|INTERRES
   135   69   70 1    
   136   69  190 1    
   137   70   71 1    
   138   70   72 1    
   139   70  191 1    
   140   71  192 1    
   141   71  193 1    
   142   71  194 1    
   143   72   73 2    
   144   72   74 am   BACKBONE|DICT|INTERRES
   145   74   75 1    
   146   74  195 1    
   147   75   76 1    
   148   75   77 1    
   149   75  196 1    
   150   76  197 1    
   151   76  198 1    
   152   76  199 1    
   153   77   78 2    
   154   77   79 am   BACKBONE|DICT|INTERRES
   155   79   80 1    
   156   79  200 1    
   157   80   81 1    
   158   80   82 1    
   159   80  201 1    
   160   81  202 1    
   161   81  203 1    
   162   81  204 1    
   163   82   83 2    
   164   82   84 am   BACKBONE|DICT|INTERRES
   165   84   85 1    
   166   84  205 1    
   167   85   86 1    
   168   85   87 1    
   169   85  206 1    
   170   86  207 1    
   171   86  208 1    
   172   86  209 1    
   173   87   88 2    
   174   87   89 am   BACKBONE|DICT|INTERRES
   175   89   90 1    
   176   89  210 1    
   177   90   91 1    
   178   90   92 1    
   179   90  211 1    
   180   91  212 1    
   181   91  213 1    
   182   91  214 1    
   183   92   93 2    
   184   92   94 am   BACKBONE|DICT|INTERRES
   185   94   95 1    
   186   94  215 1    
   187   95   96 1    
   188   95   97 1    
   189   95  216 1    
   190   96  217 1    
   191   96  218 1    
   192   96  219 1    
   193   97   98 2    
   194   97   99 am   BACKBONE|DICT|INTERRES
   195   99  100 1    
   196   99  220 1    
   197  100  101 1    
   198  100  102 1    
   199  100  221 1    
   200  101  222 1    
   201  101  223 1    
   202  101  224 1    
   203  102  103 2    
   204  102  104 am   BACKBONE|DICT|INTERRES
   205  104  105 1    
   206  104  225 1    
   207  105  106 1    
   208  105  107 1    
   209  105  226 1    
   210  106  227 1    
   211  106  228 1    
   212  106  229 1    
   213  107  108 2    
   214  107  109 am   BACKBONE|DICT|INTERRES
   215  109  110 1    
   216  109  230 1    
   217  110  111 1    
   218  110  112 1    
   219  110  231 1    
   220  111  232 1    
   221  111  233 1    
   222  111  234 1    
   223  112  113 2    
   224  112  114 am   BACKBONE|DICT|INTERRES
   225  114  115 1    
   226  114  235 1    
   227  115  116 1    
   228  115  117 1    
   229  115  236 1    
   230  116  237 1    
   231  116  238 1    
   232  116  239 1    
   233  117  118 2    
   234  117  119 am   BACKBONE|DICT|INTERRES
   235  119  120 1    
   236  119  240 1    
   237  120  121 1    
   238  120  124 1    
   239  120  241 1    
   240  121  122 am   BACKBONE|DICT|INTERRES
   241  121  123 2    
   242  122  242 1    
   243  122  243 1    
   244  124  125 1    
   245  124  244 1    
   246  124  245 1    
   247  125  126 1    
   248  126  246 1    
   249  126  247 1    
@<TRIPOS>SUBSTRUCTURE
     1 UNK         1 GROUP             0       ****    0 ROOT    
