@<TRIPOS>MOLECULE
3R540
247   249    1
SMALL
USER_CHARGES


@<TRIPOS>ATOM
      1 CA         -1.8230  -11.5506  -48.6676 C.3       0 UNK        -0.1800 
      2 C          -0.3397  -11.6456  -48.3377 C.2       0 UNK         0.5000 
      3 O           0.4218  -10.7352  -48.6664 O.2       0 UNK        -0.5000 
      4 N           0.0697  -12.7499  -47.7020 N.am      1 UNK        -0.5000 
      5 CA          1.4438  -13.0238  -47.2602 C.3       1 UNK         0.1400 
      6 C6          1.6496  -14.4906  -46.7841 C.3       23 UNK        -0.0398 
      7 S7          0.7203  -15.7455  -47.7286 S.3       23 UNK        -0.2404 
      8 C8          1.8884  -16.2570  -49.0209 C.3       23 UNK        -0.0205 
      9 C9          1.3747  -17.5090  -49.7167 C.ar      23 UNK        -0.0193 
     10 C10         0.2645  -17.4422  -50.5645 C.ar      23 UNK        -0.1150 
     11 C11        -0.2410  -18.5977  -51.1685 C.ar      23 UNK        -0.0193 
     12 C12         0.3739  -19.8280  -50.9185 C.ar      23 UNK        -0.1150 
     13 C13         1.4878  -19.9091  -50.0765 C.ar      23 UNK        -0.0193 
     14 C14         1.9886  -18.7431  -49.4892 C.ar      23 UNK        -0.1150 
     15 C15         2.1507  -21.2553  -49.8069 C.3       23 UNK        -0.0205 
     16 S16         2.2375  -21.6594  -48.0298 S.3       23 UNK        -0.2404 
     17 C17         0.4768  -21.6192  -47.5607 C.3       23 UNK        -0.0398 
     18 CA          0.1436  -22.5946  -46.4029 C.3       11 UNK         0.1400 
     19 N           0.8388  -22.2271  -45.1669 N.am      11 UNK        -0.5000 
     20 C           1.5381  -23.0548  -44.3816 C.2       10 UNK         0.5000 
     21 O           1.6377  -24.2666  -44.5807 O.2       10 UNK        -0.5000 
     22 CA          2.2286  -22.4020  -43.1638 C.3       10 UNK         0.1400 
     23 CB          3.3497  -23.2700  -42.5554 C.3       10 UNK        -0.1800 
     24 N           2.7000  -21.0432  -43.4535 N.am      10 UNK        -0.5000 
     25 C           3.6414  -20.6682  -44.3351 C.2       9 UNK         0.5000 
     26 O           4.3524  -21.4539  -44.9616 O.2       9 UNK        -0.5000 
     27 CA          3.8103  -19.1529  -44.5726 C.3       9 UNK         0.1400 
     28 CB          3.2337  -18.7509  -45.9387 C.3       9 UNK        -0.1800 
     29 N           3.1656  -18.3403  -43.5421 N.am      9 UNK        -0.5000 
     30 C           3.6823  -18.0903  -42.3324 C.2       8 UNK         0.5000 
     31 O           4.7944  -18.4734  -41.9681 O.2       8 UNK        -0.5000 
     32 CA          2.7937  -17.2935  -41.3609 C.3       8 UNK         0.1400 
     33 CB          3.1340  -15.8003  -41.4350 C.3       8 UNK        -0.1800 
     34 N           1.3611  -17.4928  -41.6122 N.am      8 UNK        -0.5000 
     35 C           0.7114  -18.6224  -41.2902 C.2       7 UNK         0.5000 
     36 O           1.2560  -19.5943  -40.7663 O.2       7 UNK        -0.5000 
     37 CA         -0.7835  -18.7065  -41.6405 C.3       7 UNK         0.1400 
     38 CB         -1.6315  -17.9572  -40.6029 C.3       7 UNK        -0.1800 
     39 N          -1.0993  -18.2015  -42.9736 N.am      7 UNK        -0.5000 
     40 C          -0.6718  -18.7137  -44.1319 C.2       6 UNK         0.5000 
     41 O           0.0897  -19.6777  -44.2077 O.2       6 UNK        -0.5000 
     42 CA         -1.1560  -18.0415  -45.4310 C.3       6 UNK         0.1400 
     43 CB         -2.4592  -18.6778  -45.9357 C.3       6 UNK        -0.1800 
     44 N          -1.2690  -16.5803  -45.3694 N.am      6 UNK        -0.5000 
     45 C          -2.0757  -15.8059  -44.6334 C.2       5 UNK         0.5000 
     46 O          -2.9237  -16.2291  -43.8456 O.2       5 UNK        -0.5000 
     47 CA         -1.8468  -14.2901  -44.7660 C.3       5 UNK         0.1400 
     48 CB         -3.0966  -13.5824  -45.3105 C.3       5 UNK        -0.1800 
     49 N          -1.4511  -13.6785  -43.4978 N.am      5 UNK        -0.5000 
     50 C          -0.3671  -14.0100  -42.7840 C.2       4 UNK         0.5000 
     51 O           0.4216  -14.9065  -43.0946 O.2       4 UNK        -0.5000 
     52 CA         -0.1265  -13.2124  -41.4987 C.3       4 UNK         0.1400 
     53 CB         -0.3765  -14.0791  -40.2510 C.3       4 UNK        -0.1800 
     54 N           1.2429  -12.7099  -41.5182 N.am      4 UNK        -0.5000 
     55 C           1.6928  -11.6639  -40.8184 C.2       3 UNK         0.5000 
     56 O           1.0003  -11.0368  -40.0153 O.2       3 UNK        -0.5000 
     57 CA          3.1447  -11.2078  -41.0679 C.3       3 UNK         0.1400 
     58 CB          4.1686  -12.1761  -40.4443 C.3       3 UNK        -0.1800 
     59 N           3.4465  -10.9136  -42.4759 N.am      3 UNK        -0.5000 
     60 C           3.5263  -11.7611  -43.5099 C.2       2 UNK         0.5000 
     61 O           3.3960  -12.9833  -43.4158 O.2       2 UNK        -0.5000 
     62 CA          3.8120  -11.1263  -44.8861 C.3       2 UNK         0.1400 
     63 CB          5.3262  -11.0346  -45.1300 C.3       2 UNK        -0.1800 
     64 N           3.2008  -11.8826  -45.9813 N.am      2 UNK        -0.5000 
     65 C           1.8817  -12.0524  -46.1401 C.2       1 UNK         0.5000 
     66 O           1.0341  -11.5167  -45.4193 O.2       1 UNK        -0.5000 
     67 C          -1.3818  -22.6482  -46.1918 C.2       11 UNK         0.5000 
     68 O          -2.0949  -22.9161  -47.1554 O.2       11 UNK        -0.5000 
     69 N          -1.8729  -22.3830  -44.9710 N.am      12 UNK        -0.5000 
     70 CA         -3.2914  -22.2113  -44.6255 C.3       12 UNK         0.1400 
     71 CB         -3.4107  -21.9717  -43.1134 C.3       12 UNK        -0.1800 
     72 C          -4.2343  -23.3462  -45.0772 C.2       12 UNK         0.5000 
     73 O          -5.3676  -23.0687  -45.4709 O.2       12 UNK        -0.5000 
     74 N          -3.7440  -24.5925  -45.0463 N.am      13 UNK        -0.5000 
     75 CA         -4.4736  -25.7755  -45.5088 C.3       13 UNK         0.1400 
     76 CB         -3.7788  -27.0346  -44.9686 C.3       13 UNK        -0.1800 
     77 C          -4.6028  -25.8501  -47.0438 C.2       13 UNK         0.5000 
     78 O          -5.5995  -26.3730  -47.5426 O.2       13 UNK        -0.5000 
     79 N          -3.5989  -25.3309  -47.7622 N.am      14 UNK        -0.5000 
     80 CA         -3.5480  -25.2922  -49.2235 C.3       14 UNK         0.1400 
     81 CB         -2.0791  -25.3369  -49.6730 C.3       14 UNK        -0.1800 
     82 C          -4.2454  -24.0384  -49.7745 C.2       14 UNK         0.5000 
     83 O          -4.9139  -24.1112  -50.8067 O.2       14 UNK        -0.5000 
     84 N          -4.1038  -22.9115  -49.0631 N.am      15 UNK        -0.5000 
     85 CA         -4.6652  -21.5979  -49.3866 C.3       15 UNK         0.1400 
     86 CB         -4.1496  -20.5673  -48.3747 C.3       15 UNK        -0.1800 
     87 C          -6.2034  -21.5664  -49.4648 C.2       15 UNK         0.5000 
     88 O          -6.7502  -20.6976  -50.1434 O.2       15 UNK        -0.5000 
     89 N          -6.8709  -22.5529  -48.8499 N.am      16 UNK        -0.5000 
     90 CA         -8.3008  -22.8362  -49.0041 C.3       16 UNK         0.1400 
     91 CB         -8.6769  -23.9918  -48.0646 C.3       16 UNK        -0.1800 
     92 C          -8.7151  -23.1638  -50.4576 C.2       16 UNK         0.5000 
     93 O          -9.8637  -22.9188  -50.8272 O.2       16 UNK        -0.5000 
     94 N          -7.7686  -23.6757  -51.2565 N.am      17 UNK        -0.5000 
     95 CA         -7.8865  -23.9127  -52.6961 C.3       17 UNK         0.1400 
     96 CB         -7.6415  -25.4081  -52.9647 C.3       17 UNK        -0.1800 
     97 C          -6.8962  -23.0224  -53.4788 C.2       17 UNK         0.5000 
     98 O          -6.5074  -23.3717  -54.5956 O.2       17 UNK        -0.5000 
     99 N          -6.4606  -21.9092  -52.8632 N.am      18 UNK        -0.5000 
    100 CA        -5.4744  -20.9352  -53.3524 C.3       18 UNK         0.1400 
    101 CB        -6.0486  -20.1559  -54.5518 C.3       18 UNK        -0.1800 
    102 C         -4.0911  -21.5494  -53.6633 C.2       18 UNK         0.5000 
    103 O         -3.3492  -21.0082  -54.4852 O.2       18 UNK        -0.5000 
    104 N         -3.7903  -22.7061  -53.0524 N.am      19 UNK        -0.5000 
    105 CA        -2.6275  -23.5708  -53.2852 C.3       19 UNK         0.1400 
    106 CB        -1.3545  -22.9036  -52.7284 C.3       19 UNK        -0.1800 
    107 C         -2.4656  -24.0358  -54.7513 C.2       19 UNK         0.5000 
    108 O         -1.3754  -24.4601  -55.1365 O.2       19 UNK        -0.5000 
    109 N         -3.5447  -23.9201  -55.5448 N.am      20 UNK        -0.5000 
    110 CA        -3.6080  -24.0785  -57.0009 C.3       20 UNK         0.1400 
    111 CB        -3.4410  -25.5624  -57.3881 C.3       20 UNK        -0.1800 
    112 C         -2.6393  -23.1440  -57.7669 C.2       20 UNK         0.5000 
    113 O         -2.2021  -23.4945  -58.8651 O.2       20 UNK        -0.5000 
    114 N         -2.3060  -21.9847  -57.1781 N.am      21 UNK        -0.5000 
    115 CA        -1.2759  -21.0737  -57.6818 C.3       21 UNK         0.1400 
    116 CB         0.0609  -21.3882  -56.9887 C.3       21 UNK        -0.1800 
    117 C         -1.6423  -19.5934  -57.4989 C.2       21 UNK         0.5000 
    118 O         -1.3307  -18.7885  -58.3780 O.2       21 UNK        -0.5000 
    119 N         -2.2864  -19.2496  -56.3773 N.am      22 UNK        -0.5000 
    120 CA        -2.6568  -17.8702  -56.0169 C.3       22 UNK         0.1400 
    121 C         -3.9974  -17.3828  -56.6427 C.2       22 UNK         0.5000 
    122 N         -4.7258  -18.2048  -57.3887 N.am      22 UNK        -0.7600 
    123 O         -4.3796  -16.2304  -56.4590 O.2       22 UNK        -0.5000 
    124 C124       -2.6374  -17.6569  -54.4803 C.3       23 UNK        -0.0398 
    125 S125       -0.9940  -17.9701  -53.7489 S.3       23 UNK        -0.2404 
    126 C126       -1.4585  -18.5127  -52.0768 C.3       23 UNK        -0.0205 
    127 H127       -2.3674  -12.4404  -48.3504 H         1 UNK         0.0600 
    128 H128       -2.2630  -10.6874  -48.1683 H         1 UNK         0.0600 
    129 H129       -1.9622  -11.4325  -49.7422 H         1 UNK         0.0600 
    130 H130       -0.5997  -13.4753  -47.4994 H         1 UNK         0.3000 
    131 H131        2.0915  -12.8568  -48.1235 H         1 UNK         0.0600 
    132 H132        1.3430  -14.6046  -45.7420 H         1 UNK         0.0800 
    133 H133        2.7104  -14.7459  -46.7986 H         1 UNK         0.0800 
    134 H134        2.8696  -16.4386  -48.5797 H         1 UNK         0.0800 
    135 H135        2.0103  -15.4508  -49.7457 H         1 UNK         0.0800 
    136 H136       -0.2146  -16.4898  -50.7436 H         1 UNK         0.1150 
    137 H137       -0.0148  -20.7224  -51.3820 H         1 UNK         0.1150 
    138 H138        2.8488  -18.8031  -48.8392 H         1 UNK         0.1150 
    139 H139        1.6260  -22.0589  -50.3260 H         1 UNK         0.0800 
    140 H140        3.1627  -21.2364  -50.2130 H         1 UNK         0.0800 
    141 H141       -0.1095  -21.8632  -48.4489 H         1 UNK         0.0800 
    142 H142        0.2147  -20.5938  -47.2936 H         1 UNK         0.0800 
    143 H143        0.4424  -23.5974  -46.7145 H         1 UNK         0.0600 
    144 H144        0.7733  -21.2484  -44.8948 H         1 UNK         0.3000 
    145 H145        1.4539  -22.2916  -42.4036 H         1 UNK         0.0600 
    146 H146        3.8168  -22.7710  -41.7063 H         1 UNK         0.0600 
    147 H147        2.9540  -24.2202  -42.1951 H         1 UNK         0.0600 
    148 H148        4.1293  -23.4979  -43.2825 H         1 UNK         0.0600 
    149 H149        2.1703  -20.3059  -43.0089 H         1 UNK         0.3000 
    150 H150        4.8804  -18.9351  -44.5773 H         1 UNK         0.0600 
    151 H151        3.7528  -19.2771  -46.7399 H         1 UNK         0.0600 
    152 H152        3.3503  -17.6829  -46.1234 H         1 UNK         0.0600 
    153 H153        2.1734  -18.9931  -46.0199 H         1 UNK         0.0600 
    154 H154        2.2413  -17.9919  -43.7487 H         1 UNK         0.3000 
    155 H155        3.0190  -17.6377  -40.3491 H         1 UNK         0.0600 
    156 H156        2.9316  -15.3947  -42.4258 H         1 UNK         0.0600 
    157 H157        4.1906  -15.6311  -41.2245 H         1 UNK         0.0600 
    158 H158        2.5638  -15.2246  -40.7073 H         1 UNK         0.0600 
    159 H159        0.8662  -16.7362  -42.0725 H         1 UNK         0.3000 
    160 H160       -1.0671  -19.7605  -41.6118 H         1 UNK         0.0600 
    161 H161       -2.6961  -18.1073  -40.7835 H         1 UNK         0.0600 
    162 H162       -1.4376  -16.8850  -40.6255 H         1 UNK         0.0600 
    163 H163       -1.4197  -18.3105  -39.5929 H         1 UNK         0.0600 
    164 H164       -1.7501  -17.4226  -43.0296 H         1 UNK         0.3000 
    165 H165       -0.3888  -18.2397  -46.1811 H         1 UNK         0.0600 
    166 H166       -2.8021  -18.1999  -46.8534 H         1 UNK         0.0600 
    167 H167       -2.3013  -19.7308  -46.1615 H         1 UNK         0.0600 
    168 H168       -3.2610  -18.6103  -45.1997 H         1 UNK         0.0600 
    169 H169       -0.5946  -16.1104  -45.9599 H         1 UNK         0.3000 
    170 H170       -1.0340  -14.1173  -45.4711 H         1 UNK         0.0600 
    171 H171       -3.4065  -14.0150  -46.2628 H         1 UNK         0.0600 
    172 H172       -3.9388  -13.6666  -44.6225 H         1 UNK         0.0600 
    173 H173       -2.9066  -12.5227  -45.4827 H         1 UNK         0.0600 
    174 H174       -2.0580  -12.9506  -43.1504 H         1 UNK         0.3000 
    175 H175       -0.8107  -12.3614  -41.4797 H         1 UNK         0.0600 
    176 H176       -0.2066  -13.5164  -39.3332 H         1 UNK         0.0600 
    177 H177       -1.4083  -14.4311  -40.2264 H         1 UNK         0.0600 
    178 H178        0.2701  -14.9561  -40.2294 H         1 UNK         0.0600 
    179 H179        1.8637  -13.1445  -42.1981 H         1 UNK         0.3000 
    180 H180        3.2580  -10.2555  -40.5472 H         1 UNK         0.0600 
    181 H181        4.1464  -13.1584  -40.9131 H         1 UNK         0.0600 
    182 H182        3.9692  -12.3200  -39.3818 H         1 UNK         0.0600 
    183 H183        5.1825  -11.7866  -40.5350 H         1 UNK         0.0600 
    184 H184        3.5558   -9.9290  -42.6766 H         1 UNK         0.3000 
    185 H185        3.3935  -10.1178  -44.9004 H         1 UNK         0.0600 
    186 H186        5.7918  -12.0211  -45.1412 H         1 UNK         0.0600 
    187 H187        5.5452  -10.5481  -46.0807 H         1 UNK         0.0600 
    188 H188        5.8143  -10.4512  -44.3482 H         1 UNK         0.0600 
    189 H189        3.8388  -12.3753  -46.5887 H         1 UNK         0.3000 
    190 H190       -1.2082  -22.1803  -44.2391 H         1 UNK         0.3000 
    191 H191       -3.6372  -21.3081  -45.1282 H         1 UNK         0.0600 
    192 H192       -2.8665  -21.0761  -42.8132 H         1 UNK         0.0600 
    193 H193       -3.0186  -22.8130  -42.5409 H         1 UNK         0.0600 
    194 H194       -4.4516  -21.8297  -42.8194 H         1 UNK         0.0600 
    195 H195       -2.8020  -24.7333  -44.7119 H         1 UNK         0.3000 
    196 H196       -5.4834  -25.7412  -45.0939 H         1 UNK         0.0600 
    197 H197       -4.3112  -27.9362  -45.2747 H         1 UNK         0.0600 
    198 H198       -3.7479  -27.0314  -43.8789 H         1 UNK         0.0600 
    199 H199       -2.7545  -27.1182  -45.3342 H         1 UNK         0.0600 
    200 H200       -2.8595  -24.8387  -47.2768 H         1 UNK         0.3000 
    201 H201       -4.0557  -26.1697  -49.6296 H         1 UNK         0.0600 
    202 H202       -1.5678  -26.2058  -49.2585 H         1 UNK         0.0600 
    203 H203       -1.5295  -24.4472  -49.3628 H         1 UNK         0.0600 
    204 H204       -2.0026  -25.4086  -50.7572 H         1 UNK         0.0600 
    205 H205       -3.4828  -22.9397  -48.2563 H         1 UNK         0.3000 
    206 H206       -4.2871  -21.3194  -50.3717 H         1 UNK         0.0600 
    207 H207       -3.0607  -20.5157  -48.3902 H         1 UNK         0.0600 
    208 H208       -4.5245  -19.5688  -48.6029 H         1 UNK         0.0600 
    209 H209       -4.4633  -20.8136  -47.3602 H         1 UNK         0.0600 
    210 H210       -6.3374  -23.2108  -48.2995 H         1 UNK         0.3000 
    211 H211       -8.8526  -21.9457  -48.6966 H         1 UNK         0.0600 
    212 H212       -8.1326  -24.9042  -48.3129 H         1 UNK         0.0600 
    213 H213       -9.7425  -24.2164  -48.1268 H         1 UNK         0.0600 
    214 H214       -8.4571  -23.7434  -47.0259 H         1 UNK         0.0600 
    215 H215       -6.8433  -23.8438  -50.8718 H         1 UNK         0.3000 
    216 H216       -8.8877  -23.6580  -53.0485 H         1 UNK         0.0600 
    217 H217       -7.7755  -25.6477  -54.0202 H         1 UNK         0.0600 
    218 H218       -8.3399  -26.0279  -52.4022 H         1 UNK         0.0600 
    219 H219       -6.6298  -25.7041  -52.6839 H         1 UNK         0.0600 
    220 H220       -6.8417  -21.6985  -51.9476 H         1 UNK         0.3000 
    221 H221       -5.3143  -20.2239  -52.5415 H         1 UNK         0.0600 
    222 H222       -6.1412  -20.7843  -55.4381 H         1 UNK         0.0600 
    223 H223       -7.0340  -19.7498  -54.3237 H         1 UNK         0.0600 
    224 H224       -5.4095  -19.3142  -54.8134 H         1 UNK         0.0600 
    225 H225       -4.4647  -23.0868  -52.3955 H         1 UNK         0.3000 
    226 H226       -2.8101  -24.4793  -52.7124 H         1 UNK         0.0600 
    227 H227       -1.4879  -22.6225  -51.6836 H         1 UNK         0.0600 
    228 H228       -1.0912  -22.0064  -53.2897 H         1 UNK         0.0600 
    229 H229       -0.5010  -23.5809  -52.7729 H         1 UNK         0.0600 
    230 H230       -4.4041  -23.5936  -55.1164 H         1 UNK         0.3000 
    231 H231       -4.6135  -23.7725  -57.2926 H         1 UNK         0.0600 
    232 H232       -4.1408  -26.1933  -56.8399 H         1 UNK         0.0600 
    233 H233       -2.4326  -25.9229  -57.1832 H         1 UNK         0.0600 
    234 H234       -3.6337  -25.7154  -58.4505 H         1 UNK         0.0600 
    235 H235       -2.7148  -21.7601  -56.2776 H         1 UNK         0.3000 
    236 H236       -1.1447  -21.2234  -58.7556 H         1 UNK         0.0600 
    237 H237        0.8510  -20.7217  -57.3368 H         1 UNK         0.0600 
    238 H238       -0.0140  -21.2755  -55.9061 H         1 UNK         0.0600 
    239 H239        0.3811  -22.4096  -57.1958 H         1 UNK         0.0600 
    240 H240       -2.5305  -19.9546  -55.6861 H         1 UNK         0.3000 
    241 H241       -1.8983  -17.2030  -56.4309 H         1 UNK         0.0600 
    242 H242       -5.5872  -17.8759  -57.7956 H         1 UNK         0.3800 
    243 H243       -4.4161  -19.1477  -57.5586 H         1 UNK         0.3800 
    244 H244       -2.9143  -16.6317  -54.2285 H         1 UNK         0.0800 
    245 H245       -3.3759  -18.2995  -54.0003 H         1 UNK         0.0800 
    246 H246       -1.9602  -19.4801  -52.1381 H         1 UNK         0.0800 
    247 H247       -2.1805  -17.8132  -51.6525 H         1 UNK         0.0800 
@<TRIPOS>BOND
     1    1    2 1    
     2    1  127 1    
     3    1  128 1    
     4    1  129 1    
     5    2    3 2    
     6    2    4 am   BACKBONE|DICT|INTERRES
     7    4    5 1    
     8    4  130 1    
     9    5    6 1    
    10    5   65 1    
    11    5  131 1    
    12    6    7 1    
    13    6  132 1    
    14    6  133 1    
    15    7    8 1    
    16    8    9 1    
    17    8  134 1    
    18    8  135 1    
    19    9   10 ar   
    20    9   14 ar   
    21   10   11 ar   
    22   10  136 1    
    23   11   12 ar   
    24   11  126 1    
    25   12   13 ar   
    26   12  137 1    
    27   13   14 ar   
    28   13   15 1    
    29   14  138 1    
    30   15   16 1    
    31   15  139 1    
    32   15  140 1    
    33   16   17 1    
    34   17   18 1    
    35   17  141 1    
    36   17  142 1    
    37   18   19 1    
    38   18   67 1    
    39   18  143 1    
    40   19   20 am   BACKBONE|DICT|INTERRES
    41   19  144 1    
    42   20   21 2    
    43   20   22 1    
    44   22   23 1    
    45   22   24 1    
    46   22  145 1    
    47   23  146 1    
    48   23  147 1    
    49   23  148 1    
    50   24   25 am   BACKBONE|DICT|INTERRES
    51   24  149 1    
    52   25   26 2    
    53   25   27 1    
    54   27   28 1    
    55   27   29 1    
    56   27  150 1    
    57   28  151 1    
    58   28  152 1    
    59   28  153 1    
    60   29   30 am   BACKBONE|DICT|INTERRES
    61   29  154 1    
    62   30   31 2    
    63   30   32 1    
    64   32   33 1    
    65   32   34 1    
    66   32  155 1    
    67   33  156 1    
    68   33  157 1    
    69   33  158 1    
    70   34   35 am   BACKBONE|DICT|INTERRES
    71   34  159 1    
    72   35   36 2    
    73   35   37 1    
    74   37   38 1    
    75   37   39 1    
    76   37  160 1    
    77   38  161 1    
    78   38  162 1    
    79   38  163 1    
    80   39   40 am   BACKBONE|DICT|INTERRES
    81   39  164 1    
    82   40   41 2    
    83   40   42 1    
    84   42   43 1    
    85   42   44 1    
    86   42  165 1    
    87   43  166 1    
    88   43  167 1    
    89   43  168 1    
    90   44   45 am   BACKBONE|DICT|INTERRES
    91   44  169 1    
    92   45   46 2    
    93   45   47 1    
    94   47   48 1    
    95   47   49 1    
    96   47  170 1    
    97   48  171 1    
    98   48  172 1    
    99   48  173 1    
   100   49   50 am   BACKBONE|DICT|INTERRES
   101   49  174 1    
   102   50   51 2    
   103   50   52 1    
   104   52   53 1    
   105   52   54 1    
   106   52  175 1    
   107   53  176 1    
   108   53  177 1    
   109   53  178 1    
   110   54   55 am   BACKBONE|DICT|INTERRES
   111   54  179 1    
   112   55   56 2    
   113   55   57 1    
   114   57   58 1    
   115   57   59 1    
   116   57  180 1    
   117   58  181 1    
   118   58  182 1    
   119   58  183 1    
   120   59   60 am   BACKBONE|DICT|INTERRES
   121   59  184 1    
   122   60   61 2    
   123   60   62 1    
   124   62   63 1    
   125   62   64 1    
   126   62  185 1    
   127   63  186 1    
   128   63  187 1    
   129   63  188 1    
   130   64   65 am   BACKBONE|DICT|INTERRES
   131   64  189 1    
   132   65   66 2    
   133   67   68 2    
   134   67   69 am   BACKBONE|DICT|INTERRES
   135   69   70 1    
   136   69  190 1    
   137   70   71 1    
   138   70   72 1    
   139   70  191 1    
   140   71  192 1    
   141   71  193 1    
   142   71  194 1    
   143   72   73 2    
   144   72   74 am   BACKBONE|DICT|INTERRES
   145   74   75 1    
   146   74  195 1    
   147   75   76 1    
   148   75   77 1    
   149   75  196 1    
   150   76  197 1    
   151   76  198 1    
   152   76  199 1    
   153   77   78 2    
   154   77   79 am   BACKBONE|DICT|INTERRES
   155   79   80 1    
   156   79  200 1    
   157   80   81 1    
   158   80   82 1    
   159   80  201 1    
   160   81  202 1    
   161   81  203 1    
   162   81  204 1    
   163   82   83 2    
   164   82   84 am   BACKBONE|DICT|INTERRES
   165   84   85 1    
   166   84  205 1    
   167   85   86 1    
   168   85   87 1    
   169   85  206 1    
   170   86  207 1    
   171   86  208 1    
   172   86  209 1    
   173   87   88 2    
   174   87   89 am   BACKBONE|DICT|INTERRES
   175   89   90 1    
   176   89  210 1    
   177   90   91 1    
   178   90   92 1    
   179   90  211 1    
   180   91  212 1    
   181   91  213 1    
   182   91  214 1    
   183   92   93 2    
   184   92   94 am   BACKBONE|DICT|INTERRES
   185   94   95 1    
   186   94  215 1    
   187   95   96 1    
   188   95   97 1    
   189   95  216 1    
   190   96  217 1    
   191   96  218 1    
   192   96  219 1    
   193   97   98 2    
   194   97   99 am   BACKBONE|DICT|INTERRES
   195   99  100 1    
   196   99  220 1    
   197  100  101 1    
   198  100  102 1    
   199  100  221 1    
   200  101  222 1    
   201  101  223 1    
   202  101  224 1    
   203  102  103 2    
   204  102  104 am   BACKBONE|DICT|INTERRES
   205  104  105 1    
   206  104  225 1    
   207  105  106 1    
   208  105  107 1    
   209  105  226 1    
   210  106  227 1    
   211  106  228 1    
   212  106  229 1    
   213  107  108 2    
   214  107  109 am   BACKBONE|DICT|INTERRES
   215  109  110 1    
   216  109  230 1    
   217  110  111 1    
   218  110  112 1    
   219  110  231 1    
   220  111  232 1    
   221  111  233 1    
   222  111  234 1    
   223  112  113 2    
   224  112  114 am   BACKBONE|DICT|INTERRES
   225  114  115 1    
   226  114  235 1    
   227  115  116 1    
   228  115  117 1    
   229  115  236 1    
   230  116  237 1    
   231  116  238 1    
   232  116  239 1    
   233  117  118 2    
   234  117  119 am   BACKBONE|DICT|INTERRES
   235  119  120 1    
   236  119  240 1    
   237  120  121 1    
   238  120  124 1    
   239  120  241 1    
   240  121  122 am   BACKBONE|DICT|INTERRES
   241  121  123 2    
   242  122  242 1    
   243  122  243 1    
   244  124  125 1    
   245  124  244 1    
   246  124  245 1    
   247  125  126 1    
   248  126  246 1    
   249  126  247 1    
@<TRIPOS>SUBSTRUCTURE
     1 UNK         1 GROUP             0       ****    0 ROOT    
