@<TRIPOS>MOLECULE
3R540
247   249    1
SMALL
USER_CHARGES


@<TRIPOS>ATOM
      1 CA         -1.7277  -10.4052  -47.5965 C.3       0 UNK        -0.1800 
      2 C          -1.0153  -11.3081  -46.6016 C.2       0 UNK         0.5000 
      3 O           0.0494  -10.9491  -46.0992 O.2       0 UNK        -0.5000 
      4 N          -1.6068  -12.4693  -46.2920 N.am      1 UNK        -0.5000 
      5 CA         -1.0679  -13.5031  -45.3938 C.3       1 UNK         0.1400 
      6 C6         -1.8422  -14.8392  -45.5116 C.3       23 UNK        -0.0398 
      7 S7         -3.6321  -14.7122  -45.1568 S.3       23 UNK        -0.2404 
      8 C8         -4.3756  -14.6972  -46.8237 C.3       23 UNK        -0.0205 
      9 C9         -4.1446  -15.9981  -47.5793 C.ar      23 UNK        -0.0193 
     10 C10        -3.2683  -16.0391  -48.6673 C.ar      23 UNK        -0.1150 
     11 C11        -3.0418  -17.2341  -49.3578 C.ar      23 UNK        -0.0193 
     12 C12        -3.7047  -18.3958  -48.9473 C.ar      23 UNK        -0.1150 
     13 C13        -4.5851  -18.3681  -47.8618 C.ar      23 UNK        -0.0193 
     14 C14        -4.8123  -17.1619  -47.1927 C.ar      23 UNK        -0.1150 
     15 C15        -5.2716  -19.6467  -47.4004 C.3       23 UNK        -0.0205 
     16 S16        -4.9670  -20.0143  -45.6383 S.3       23 UNK        -0.2404 
     17 C17        -3.1435  -20.1128  -45.5758 C.3       23 UNK        -0.0398 
     18 CA         -2.6085  -21.5165  -45.9385 C.3       11 UNK         0.1400 
     19 N          -1.2326  -21.4590  -46.4444 N.am      11 UNK        -0.5000 
     20 C          -0.5794  -22.4738  -47.0277 C.2       10 UNK         0.5000 
     21 O          -1.0691  -23.5894  -47.1965 O.2       10 UNK        -0.5000 
     22 CA          0.8790  -22.2162  -47.4474 C.3       10 UNK         0.1400 
     23 CB          0.9489  -21.3932  -48.7409 C.3       10 UNK        -0.1800 
     24 N           1.6392  -21.5482  -46.3921 N.am      10 UNK        -0.5000 
     25 C           1.9616  -22.1211  -45.2243 C.2       9 UNK         0.5000 
     26 O           1.7475  -23.3051  -44.9666 O.2       9 UNK        -0.5000 
     27 CA          2.5929  -21.2176  -44.1486 C.3       9 UNK         0.1400 
     28 CB          4.1178  -21.1530  -44.3191 C.3       9 UNK        -0.1800 
     29 N           2.0415  -19.8611  -44.1427 N.am      9 UNK        -0.5000 
     30 C           0.7673  -19.5536  -43.8595 C.2       8 UNK         0.5000 
     31 O          -0.0788  -20.3843  -43.5305 O.2       8 UNK        -0.5000 
     32 CA          0.3559  -18.0779  -44.0254 C.3       8 UNK         0.1400 
     33 CB          0.7934  -17.2493  -42.8102 C.3       8 UNK        -0.1800 
     34 N           0.8875  -17.4848  -45.2554 N.am      8 UNK        -0.5000 
     35 C           0.5637  -17.9068  -46.4867 C.2       7 UNK         0.5000 
     36 O          -0.2713  -18.7817  -46.7035 O.2       7 UNK        -0.5000 
     37 CA          1.3485  -17.3072  -47.6644 C.3       7 UNK         0.1400 
     38 CB          0.7224  -15.9915  -48.1459 C.3       7 UNK        -0.1800 
     39 N           2.7542  -17.0981  -47.3221 N.am      7 UNK        -0.5000 
     40 C           3.6484  -18.0905  -47.2062 C.2       6 UNK         0.5000 
     41 O           3.3849  -19.2729  -47.4240 O.2       6 UNK        -0.5000 
     42 CA          5.0616  -17.7030  -46.7303 C.3       6 UNK         0.1400 
     43 CB          5.9294  -17.2639  -47.9188 C.3       6 UNK        -0.1800 
     44 N           5.0493  -16.6415  -45.7221 N.am      6 UNK        -0.5000 
     45 C           4.5365  -16.7714  -44.4901 C.2       5 UNK         0.5000 
     46 O           4.0723  -17.8243  -44.0562 O.2       5 UNK        -0.5000 
     47 CA          4.4853  -15.5035  -43.6145 C.3       5 UNK         0.1400 
     48 CB          5.7509  -15.3934  -42.7523 C.3       5 UNK        -0.1800 
     49 N           4.3109  -14.2642  -44.3781 N.am      5 UNK        -0.5000 
     50 C           3.2715  -13.9950  -45.1780 C.2       4 UNK         0.5000 
     51 O           2.3324  -14.7727  -45.3595 O.2       4 UNK        -0.5000 
     52 CA          3.3077  -12.6424  -45.9093 C.3       4 UNK         0.1400 
     53 CB          2.6871  -12.7330  -47.3142 C.3       4 UNK        -0.1800 
     54 N           2.6122  -11.6131  -45.1430 N.am      4 UNK        -0.5000 
     55 C           3.1129  -10.9790  -44.0739 C.2       3 UNK         0.5000 
     56 O           4.2327  -11.2035  -43.6125 O.2       3 UNK        -0.5000 
     57 CA          2.2229   -9.9135  -43.4125 C.3       3 UNK         0.1400 
     58 CB          2.2612   -8.6055  -44.2188 C.3       3 UNK        -0.1800 
     59 N           0.8382  -10.3718  -43.3114 N.am      3 UNK        -0.5000 
     60 C           0.2065  -10.6733  -42.1678 C.2       2 UNK         0.5000 
     61 O           0.7091  -10.5417  -41.0510 O.2       2 UNK        -0.5000 
     62 CA         -1.2323  -11.2229  -42.2829 C.3       2 UNK         0.1400 
     63 CB         -2.2560  -10.0889  -42.1218 C.3       2 UNK        -0.1800 
     64 N          -1.4822  -11.9113  -43.5499 N.am      2 UNK        -0.5000 
     65 C          -0.8894  -13.0535  -43.9248 C.2       1 UNK         0.5000 
     66 O          -0.1830  -13.7206  -43.1704 O.2       1 UNK        -0.5000 
     67 C          -2.7916  -22.5179  -44.7757 C.2       11 UNK         0.5000 
     68 O          -3.8734  -23.0877  -44.6337 O.2       11 UNK        -0.5000 
     69 N          -1.7266  -22.7860  -44.0066 N.am      12 UNK        -0.5000 
     70 CA         -1.6783  -23.8506  -42.9983 C.3       12 UNK         0.1400 
     71 CB         -0.3876  -23.7193  -42.1766 C.3       12 UNK        -0.1800 
     72 C          -1.8134  -25.2711  -43.5947 C.2       12 UNK         0.5000 
     73 O          -2.2000  -26.1914  -42.8741 O.2       12 UNK        -0.5000 
     74 N          -1.5382  -25.4146  -44.8986 N.am      13 UNK        -0.5000 
     75 CA         -1.7830  -26.6077  -45.7086 C.3       13 UNK         0.1400 
     76 CB         -0.4759  -26.9892  -46.4261 C.3       13 UNK        -0.1800 
     77 C          -2.9408  -26.3666  -46.7042 C.2       13 UNK         0.5000 
     78 O          -2.9917  -27.0117  -47.7520 O.2       13 UNK        -0.5000 
     79 N          -3.8347  -25.4186  -46.3814 N.am      14 UNK        -0.5000 
     80 CA         -5.0247  -24.9515  -47.1066 C.3       14 UNK         0.1400 
     81 CB         -6.0195  -26.1015  -47.3539 C.3       14 UNK        -0.1800 
     82 C          -4.7497  -24.1775  -48.4104 C.2       14 UNK         0.5000 
     83 O          -5.5772  -23.3487  -48.7935 O.2       14 UNK        -0.5000 
     84 N          -3.6359  -24.4751  -49.0957 N.am      15 UNK        -0.5000 
     85 CA         -3.1998  -23.9198  -50.3867 C.3       15 UNK         0.1400 
     86 CB         -2.8628  -22.4205  -50.2398 C.3       15 UNK        -0.1800 
     87 C          -4.2001  -24.1683  -51.5395 C.2       15 UNK         0.5000 
     88 O          -4.1624  -23.4575  -52.5460 O.2       15 UNK        -0.5000 
     89 N          -5.1103  -25.1374  -51.3547 N.am      16 UNK        -0.5000 
     90 CA         -6.3105  -25.3985  -52.1590 C.3       16 UNK         0.1400 
     91 CB         -5.9330  -25.9967  -53.5279 C.3       16 UNK        -0.1800 
     92 C          -7.2364  -24.1643  -52.2701 C.2       16 UNK         0.5000 
     93 O          -7.8377  -23.9416  -53.3209 O.2       16 UNK        -0.5000 
     94 N          -7.3100  -23.3783  -51.1829 N.am      17 UNK        -0.5000 
     95 CA         -7.9807  -22.0794  -51.0715 C.3       17 UNK         0.1400 
     96 CB         -9.5056  -22.2076  -51.2754 C.3       17 UNK        -0.1800 
     97 C          -7.3199  -21.0158  -51.9735 C.2       17 UNK         0.5000 
     98 O          -8.0082  -20.3184  -52.7206 O.2       17 UNK        -0.5000 
     99 N          -5.9848  -20.9251  -51.8684 N.am      18 UNK        -0.5000 
    100 CA        -5.0896  -20.0151  -52.5935 C.3       18 UNK         0.1400 
    101 CB        -5.3929  -18.5447  -52.2322 C.3       18 UNK        -0.1800 
    102 C         -5.0911  -20.2710  -54.1155 C.2       18 UNK         0.5000 
    103 O         -5.2345  -19.3315  -54.9014 O.2       18 UNK        -0.5000 
    104 N         -4.9546  -21.5457  -54.5009 N.am      19 UNK        -0.5000 
    105 CA        -4.9516  -21.9958  -55.8940 C.3       19 UNK         0.1400 
    106 CB        -6.2789  -22.7034  -56.2068 C.3       19 UNK        -0.1800 
    107 C         -3.7592  -22.9128  -56.2090 C.2       19 UNK         0.5000 
    108 O         -3.2298  -22.8416  -57.3188 O.2       19 UNK        -0.5000 
    109 N         -3.3468  -23.7497  -55.2472 N.am      20 UNK        -0.5000 
    110 CA        -2.2061  -24.6602  -55.3825 C.3       20 UNK         0.1400 
    111 CB        -2.4943  -25.9537  -54.6047 C.3       20 UNK        -0.1800 
    112 C         -0.8928  -24.0234  -54.8958 C.2       20 UNK         0.5000 
    113 O          0.1816  -24.5155  -55.2434 O.2       20 UNK        -0.5000 
    114 N         -0.9946  -22.9492  -54.1073 N.am      21 UNK        -0.5000 
    115 CA         0.1166  -22.1766  -53.5719 C.3       21 UNK         0.1400 
    116 CB         0.6353  -22.8402  -52.2841 C.3       21 UNK        -0.1800 
    117 C         -0.3613  -20.7411  -53.3155 C.2       21 UNK         0.5000 
    118 O         -1.5673  -20.5210  -53.1745 O.2       21 UNK        -0.5000 
    119 N          0.6067  -19.8167  -53.2588 N.am      22 UNK        -0.5000 
    120 CA         0.4662  -18.3638  -53.0489 C.3       22 UNK         0.1400 
    121 C         -0.5708  -17.6320  -53.9619 C.2       22 UNK         0.5000 
    122 N         -0.9780  -16.4117  -53.6351 N.am      22 UNK        -0.7600 
    123 O         -0.9479  -18.1198  -55.0250 O.2       22 UNK        -0.5000 
    124 C124        0.4610  -17.9587  -51.5428 C.3       23 UNK        -0.0398 
    125 S125       -0.8983  -18.6125  -50.5117 S.3       23 UNK        -0.2404 
    126 C126       -2.1007  -17.2451  -50.5571 C.3       23 UNK        -0.0205 
    127 H127       -1.0902  -10.2289  -48.4628 H         1 UNK         0.0600 
    128 H128       -1.9517   -9.4434  -47.1352 H         1 UNK         0.0600 
    129 H129       -2.6633  -10.8433  -47.9449 H         1 UNK         0.0600 
    130 H130       -2.5011  -12.6865  -46.7054 H         1 UNK         0.3000 
    131 H131       -0.0549  -13.7023  -45.7428 H         1 UNK         0.0600 
    132 H132       -1.6990  -15.2499  -46.5094 H         1 UNK         0.0800 
    133 H133       -1.4159  -15.5856  -44.8392 H         1 UNK         0.0800 
    134 H134       -5.4495  -14.5325  -46.7245 H         1 UNK         0.0800 
    135 H135       -3.9923  -13.8479  -47.3899 H         1 UNK         0.0800 
    136 H136       -2.7600  -15.1367  -48.9766 H         1 UNK         0.1150 
    137 H137       -3.5288  -19.3229  -49.4742 H         1 UNK         0.1150 
    138 H138       -5.4891  -17.1344  -46.3503 H         1 UNK         0.1150 
    139 H139       -6.3458  -19.5475  -47.5603 H         1 UNK         0.0800 
    140 H140       -4.9498  -20.5005  -47.9992 H         1 UNK         0.0800 
    141 H141       -2.8028  -19.8075  -44.5848 H         1 UNK         0.0800 
    142 H142       -2.7391  -19.3665  -46.2579 H         1 UNK         0.0800 
    143 H143       -3.2057  -21.8963  -46.7704 H         1 UNK         0.0600 
    144 H144       -0.7725  -20.5528  -46.3901 H         1 UNK         0.3000 
    145 H145        1.3433  -23.1853  -47.6419 H         1 UNK         0.0600 
    146 H146        1.9739  -21.3095  -49.1021 H         1 UNK         0.0600 
    147 H147        0.3586  -21.8565  -49.5300 H         1 UNK         0.0600 
    148 H148        0.5631  -20.3854  -48.5993 H         1 UNK         0.0600 
    149 H149        1.9073  -20.5854  -46.5573 H         1 UNK         0.3000 
    150 H150        2.3787  -21.6658  -43.1761 H         1 UNK         0.0600 
    151 H151        4.5558  -22.1517  -44.3003 H         1 UNK         0.0600 
    152 H152        4.5803  -20.5798  -43.5155 H         1 UNK         0.0600 
    153 H153        4.3977  -20.6890  -45.2650 H         1 UNK         0.0600 
    154 H154        2.6941  -19.1065  -44.3377 H         1 UNK         0.3000 
    155 H155       -0.7339  -18.0407  -44.0849 H         1 UNK         0.0600 
    156 H156        0.3260  -17.6224  -41.8983 H         1 UNK         0.0600 
    157 H157        0.5046  -16.2057  -42.9200 H         1 UNK         0.0600 
    158 H158        1.8717  -17.2835  -42.6604 H         1 UNK         0.0600 
    159 H159        1.5615  -16.7338  -45.1586 H         1 UNK         0.3000 
    160 H160        1.3003  -18.0196  -48.4898 H         1 UNK         0.0600 
    161 H161        0.7383  -15.2272  -47.3721 H         1 UNK         0.0600 
    162 H162       -0.3175  -16.1432  -48.4325 H         1 UNK         0.0600 
    163 H163        1.2467  -15.5996  -49.0172 H         1 UNK         0.0600 
    164 H164        3.0198  -16.1622  -47.0500 H         1 UNK         0.3000 
    165 H165        5.5167  -18.5895  -46.2835 H         1 UNK         0.0600 
    166 H166        6.9536  -17.0608  -47.6055 H         1 UNK         0.0600 
    167 H167        5.9723  -18.0448  -48.6794 H         1 UNK         0.0600 
    168 H168        5.5380  -16.3637  -48.3942 H         1 UNK         0.0600 
    169 H169        5.4187  -15.7435  -45.9968 H         1 UNK         0.3000 
    170 H170        3.6260  -15.6002  -42.9483 H         1 UNK         0.0600 
    171 H171        5.8936  -16.2928  -42.1514 H         1 UNK         0.0600 
    172 H172        6.6445  -15.2612  -43.3635 H         1 UNK         0.0600 
    173 H173        5.6868  -14.5509  -42.0634 H         1 UNK         0.0600 
    174 H174        5.0124  -13.5488  -44.2446 H         1 UNK         0.3000 
    175 H175        4.3515  -12.3462  -46.0336 H         1 UNK         0.0600 
    176 H176        1.6234  -12.9649  -47.2773 H         1 UNK         0.0600 
    177 H177        2.8002  -11.7923  -47.8531 H         1 UNK         0.0600 
    178 H178        3.1719  -13.5088  -47.9081 H         1 UNK         0.0600 
    179 H179        1.6820  -11.3665  -45.4734 H         1 UNK         0.3000 
    180 H180        2.6350   -9.7098  -42.4221 H         1 UNK         0.0600 
    181 H181        1.8545   -8.7368  -45.2225 H         1 UNK         0.0600 
    182 H182        3.2835   -8.2396  -44.3223 H         1 UNK         0.0600 
    183 H183        1.6843   -7.8237  -43.7247 H         1 UNK         0.0600 
    184 H184        0.3582  -10.5346  -44.1903 H         1 UNK         0.3000 
    185 H185       -1.3804  -11.9384  -41.4713 H         1 UNK         0.0600 
    186 H186       -2.1166   -9.5692  -41.1729 H         1 UNK         0.0600 
    187 H187       -2.1654   -9.3488  -42.9179 H         1 UNK         0.0600 
    188 H188       -3.2761  -10.4732  -42.1336 H         1 UNK         0.0600 
    189 H189       -2.0549  -11.4286  -44.2264 H         1 UNK         0.3000 
    190 H190       -0.8917  -22.2222  -44.1216 H         1 UNK         0.3000 
    191 H191       -2.5230  -23.7011  -42.3228 H         1 UNK         0.0600 
    192 H192        0.4974  -23.9132  -42.7810 H         1 UNK         0.0600 
    193 H193       -0.2902  -22.7219  -41.7470 H         1 UNK         0.0600 
    194 H194       -0.3792  -24.4317  -41.3509 H         1 UNK         0.0600 
    195 H195       -1.2416  -24.5999  -45.4265 H         1 UNK         0.3000 
    196 H196       -2.0799  -27.4454  -45.0751 H         1 UNK         0.0600 
    197 H197        0.3330  -27.1450  -45.7123 H         1 UNK         0.0600 
    198 H198       -0.1600  -26.2134  -47.1247 H         1 UNK         0.0600 
    199 H199       -0.5912  -27.9151  -46.9908 H         1 UNK         0.0600 
    200 H200       -3.6642  -24.9016  -45.5258 H         1 UNK         0.3000 
    201 H201       -5.5135  -24.2424  -46.4372 H         1 UNK         0.0600 
    202 H202       -6.9494  -25.7256  -47.7828 H         1 UNK         0.0600 
    203 H203       -6.2744  -26.6082  -46.4231 H         1 UNK         0.0600 
    204 H204       -5.6229  -26.8464  -48.0440 H         1 UNK         0.0600 
    205 H205       -3.0512  -25.2098  -48.7117 H         1 UNK         0.3000 
    206 H206       -2.2833  -24.4449  -50.6583 H         1 UNK         0.0600 
    207 H207       -2.1306  -22.2546  -49.4527 H         1 UNK         0.0600 
    208 H208       -3.7424  -21.8233  -50.0023 H         1 UNK         0.0600 
    209 H209       -2.4370  -22.0190  -51.1585 H         1 UNK         0.0600 
    210 H210       -5.0366  -25.6730  -50.5018 H         1 UNK         0.3000 
    211 H211       -6.8821  -26.1540  -51.6182 H         1 UNK         0.0600 
    212 H212       -5.2894  -26.8684  -53.4121 H         1 UNK         0.0600 
    213 H213       -6.8208  -26.3207  -54.0721 H         1 UNK         0.0600 
    214 H214       -5.4141  -25.2742  -54.1549 H         1 UNK         0.0600 
    215 H215       -6.7502  -23.6294  -50.3736 H         1 UNK         0.3000 
    216 H216       -7.8204  -21.7461  -50.0449 H         1 UNK         0.0600 
    217 H217      -10.0062  -21.2653  -51.0506 H         1 UNK         0.0600 
    218 H218       -9.7623  -22.4732  -52.3010 H         1 UNK         0.0600 
    219 H219       -9.9289  -22.9651  -50.6160 H         1 UNK         0.0600 
    220 H220       -5.5245  -21.5860  -51.2600 H         1 UNK         0.3000 
    221 H221       -4.0801  -20.2353  -52.2440 H         1 UNK         0.0600 
    222 H222       -6.3636  -18.2235  -52.6102 H         1 UNK         0.0600 
    223 H223       -5.3909  -18.3907  -51.1544 H         1 UNK         0.0600 
    224 H224       -4.6447  -17.8783  -52.6613 H         1 UNK         0.0600 
    225 H225       -4.8174  -22.2517  -53.7828 H         1 UNK         0.3000 
    226 H226       -4.8645  -21.1389  -56.5651 H         1 UNK         0.0600 
    227 H227       -7.1287  -22.0462  -56.0218 H         1 UNK         0.0600 
    228 H228       -6.3225  -23.0082  -57.2531 H         1 UNK         0.0600 
    229 H229       -6.4114  -23.5979  -55.5989 H         1 UNK         0.0600 
    230 H230       -3.7954  -23.7310  -54.3361 H         1 UNK         0.3000 
    231 H231       -2.0686  -24.9290  -56.4320 H         1 UNK         0.0600 
    232 H232       -1.6579  -26.6499  -54.6797 H         1 UNK         0.0600 
    233 H233       -3.3708  -26.4631  -55.0040 H         1 UNK         0.0600 
    234 H234       -2.6652  -25.7619  -53.5457 H         1 UNK         0.0600 
    235 H235       -1.9065  -22.5593  -53.9038 H         1 UNK         0.3000 
    236 H236        0.9193  -22.1390  -54.3116 H         1 UNK         0.0600 
    237 H237        1.0470  -23.8286  -52.4883 H         1 UNK         0.0600 
    238 H238        1.4278  -22.2481  -51.8252 H         1 UNK         0.0600 
    239 H239       -0.1606  -22.9583  -51.5492 H         1 UNK         0.0600 
    240 H240        1.5555  -20.1261  -53.4103 H         1 UNK         0.3000 
    241 H241        1.4095  -17.9780  -53.4372 H         1 UNK         0.0600 
    242 H242       -1.6179  -15.9378  -54.2531 H         1 UNK         0.3800 
    243 H243       -0.6431  -15.9364  -52.8143 H         1 UNK         0.3800 
    244 H244        1.3815  -18.3309  -51.0915 H         1 UNK         0.0800 
    245 H245        0.5263  -16.8771  -51.4263 H         1 UNK         0.0800 
    246 H246       -1.5658  -16.2969  -50.6127 H         1 UNK         0.0800 
    247 H247       -2.6884  -17.3238  -51.4710 H         1 UNK         0.0800 
@<TRIPOS>BOND
     1    1    2 1    
     2    1  127 1    
     3    1  128 1    
     4    1  129 1    
     5    2    3 2    
     6    2    4 am   BACKBONE|DICT|INTERRES
     7    4    5 1    
     8    4  130 1    
     9    5    6 1    
    10    5   65 1    
    11    5  131 1    
    12    6    7 1    
    13    6  132 1    
    14    6  133 1    
    15    7    8 1    
    16    8    9 1    
    17    8  134 1    
    18    8  135 1    
    19    9   10 ar   
    20    9   14 ar   
    21   10   11 ar   
    22   10  136 1    
    23   11   12 ar   
    24   11  126 1    
    25   12   13 ar   
    26   12  137 1    
    27   13   14 ar   
    28   13   15 1    
    29   14  138 1    
    30   15   16 1    
    31   15  139 1    
    32   15  140 1    
    33   16   17 1    
    34   17   18 1    
    35   17  141 1    
    36   17  142 1    
    37   18   19 1    
    38   18   67 1    
    39   18  143 1    
    40   19   20 am   BACKBONE|DICT|INTERRES
    41   19  144 1    
    42   20   21 2    
    43   20   22 1    
    44   22   23 1    
    45   22   24 1    
    46   22  145 1    
    47   23  146 1    
    48   23  147 1    
    49   23  148 1    
    50   24   25 am   BACKBONE|DICT|INTERRES
    51   24  149 1    
    52   25   26 2    
    53   25   27 1    
    54   27   28 1    
    55   27   29 1    
    56   27  150 1    
    57   28  151 1    
    58   28  152 1    
    59   28  153 1    
    60   29   30 am   BACKBONE|DICT|INTERRES
    61   29  154 1    
    62   30   31 2    
    63   30   32 1    
    64   32   33 1    
    65   32   34 1    
    66   32  155 1    
    67   33  156 1    
    68   33  157 1    
    69   33  158 1    
    70   34   35 am   BACKBONE|DICT|INTERRES
    71   34  159 1    
    72   35   36 2    
    73   35   37 1    
    74   37   38 1    
    75   37   39 1    
    76   37  160 1    
    77   38  161 1    
    78   38  162 1    
    79   38  163 1    
    80   39   40 am   BACKBONE|DICT|INTERRES
    81   39  164 1    
    82   40   41 2    
    83   40   42 1    
    84   42   43 1    
    85   42   44 1    
    86   42  165 1    
    87   43  166 1    
    88   43  167 1    
    89   43  168 1    
    90   44   45 am   BACKBONE|DICT|INTERRES
    91   44  169 1    
    92   45   46 2    
    93   45   47 1    
    94   47   48 1    
    95   47   49 1    
    96   47  170 1    
    97   48  171 1    
    98   48  172 1    
    99   48  173 1    
   100   49   50 am   BACKBONE|DICT|INTERRES
   101   49  174 1    
   102   50   51 2    
   103   50   52 1    
   104   52   53 1    
   105   52   54 1    
   106   52  175 1    
   107   53  176 1    
   108   53  177 1    
   109   53  178 1    
   110   54   55 am   BACKBONE|DICT|INTERRES
   111   54  179 1    
   112   55   56 2    
   113   55   57 1    
   114   57   58 1    
   115   57   59 1    
   116   57  180 1    
   117   58  181 1    
   118   58  182 1    
   119   58  183 1    
   120   59   60 am   BACKBONE|DICT|INTERRES
   121   59  184 1    
   122   60   61 2    
   123   60   62 1    
   124   62   63 1    
   125   62   64 1    
   126   62  185 1    
   127   63  186 1    
   128   63  187 1    
   129   63  188 1    
   130   64   65 am   BACKBONE|DICT|INTERRES
   131   64  189 1    
   132   65   66 2    
   133   67   68 2    
   134   67   69 am   BACKBONE|DICT|INTERRES
   135   69   70 1    
   136   69  190 1    
   137   70   71 1    
   138   70   72 1    
   139   70  191 1    
   140   71  192 1    
   141   71  193 1    
   142   71  194 1    
   143   72   73 2    
   144   72   74 am   BACKBONE|DICT|INTERRES
   145   74   75 1    
   146   74  195 1    
   147   75   76 1    
   148   75   77 1    
   149   75  196 1    
   150   76  197 1    
   151   76  198 1    
   152   76  199 1    
   153   77   78 2    
   154   77   79 am   BACKBONE|DICT|INTERRES
   155   79   80 1    
   156   79  200 1    
   157   80   81 1    
   158   80   82 1    
   159   80  201 1    
   160   81  202 1    
   161   81  203 1    
   162   81  204 1    
   163   82   83 2    
   164   82   84 am   BACKBONE|DICT|INTERRES
   165   84   85 1    
   166   84  205 1    
   167   85   86 1    
   168   85   87 1    
   169   85  206 1    
   170   86  207 1    
   171   86  208 1    
   172   86  209 1    
   173   87   88 2    
   174   87   89 am   BACKBONE|DICT|INTERRES
   175   89   90 1    
   176   89  210 1    
   177   90   91 1    
   178   90   92 1    
   179   90  211 1    
   180   91  212 1    
   181   91  213 1    
   182   91  214 1    
   183   92   93 2    
   184   92   94 am   BACKBONE|DICT|INTERRES
   185   94   95 1    
   186   94  215 1    
   187   95   96 1    
   188   95   97 1    
   189   95  216 1    
   190   96  217 1    
   191   96  218 1    
   192   96  219 1    
   193   97   98 2    
   194   97   99 am   BACKBONE|DICT|INTERRES
   195   99  100 1    
   196   99  220 1    
   197  100  101 1    
   198  100  102 1    
   199  100  221 1    
   200  101  222 1    
   201  101  223 1    
   202  101  224 1    
   203  102  103 2    
   204  102  104 am   BACKBONE|DICT|INTERRES
   205  104  105 1    
   206  104  225 1    
   207  105  106 1    
   208  105  107 1    
   209  105  226 1    
   210  106  227 1    
   211  106  228 1    
   212  106  229 1    
   213  107  108 2    
   214  107  109 am   BACKBONE|DICT|INTERRES
   215  109  110 1    
   216  109  230 1    
   217  110  111 1    
   218  110  112 1    
   219  110  231 1    
   220  111  232 1    
   221  111  233 1    
   222  111  234 1    
   223  112  113 2    
   224  112  114 am   BACKBONE|DICT|INTERRES
   225  114  115 1    
   226  114  235 1    
   227  115  116 1    
   228  115  117 1    
   229  115  236 1    
   230  116  237 1    
   231  116  238 1    
   232  116  239 1    
   233  117  118 2    
   234  117  119 am   BACKBONE|DICT|INTERRES
   235  119  120 1    
   236  119  240 1    
   237  120  121 1    
   238  120  124 1    
   239  120  241 1    
   240  121  122 am   BACKBONE|DICT|INTERRES
   241  121  123 2    
   242  122  242 1    
   243  122  243 1    
   244  124  125 1    
   245  124  244 1    
   246  124  245 1    
   247  125  126 1    
   248  126  246 1    
   249  126  247 1    
@<TRIPOS>SUBSTRUCTURE
     1 UNK         1 GROUP             0       ****    0 ROOT    
