@<TRIPOS>MOLECULE
3R540
247   249    1
SMALL
USER_CHARGES


@<TRIPOS>ATOM
      1 CA          0.7154  -15.8013  -47.0097 C.3       0 UNK        -0.1800 
      2 C           2.0980  -15.2543  -47.3204 C.2       0 UNK         0.5000 
      3 O           3.0076  -16.0190  -47.6412 O.2       0 UNK        -0.5000 
      4 N           2.2552  -13.9294  -47.2152 N.am      1 UNK        -0.5000 
      5 CA          3.4750  -13.1767  -47.5317 C.3       1 UNK         0.1400 
      6 C6          3.9004  -13.2779  -49.0246 C.3       23 UNK        -0.0398 
      7 S7          2.6428  -12.5883  -50.1558 S.3       23 UNK        -0.2404 
      8 C8          2.6030  -13.8228  -51.4945 C.3       23 UNK        -0.0205 
      9 C9          1.5885  -14.9259  -51.2317 C.ar      23 UNK        -0.0193 
     10 C10         0.2345  -14.7020  -51.4964 C.ar      23 UNK        -0.1150 
     11 C11        -0.7071  -15.7131  -51.2902 C.ar      23 UNK        -0.0193 
     12 C12        -0.2837  -16.9536  -50.8054 C.ar      23 UNK        -0.1150 
     13 C13         1.0684  -17.2004  -50.5493 C.ar      23 UNK        -0.0193 
     14 C14         1.9989  -16.1774  -50.7634 C.ar      23 UNK        -0.1150 
     15 C15         1.5364  -18.5750  -50.0826 C.3       23 UNK        -0.0205 
     16 S16         0.8364  -19.0562  -48.4714 S.3       23 UNK        -0.2404 
     17 C17        -0.7244  -19.8773  -48.9456 C.3       23 UNK        -0.0398 
     18 CA         -0.7783  -21.3476  -48.4737 C.3       11 UNK         0.1400 
     19 N          -0.5495  -21.4883  -47.0335 N.am      11 UNK        -0.5000 
     20 C          -0.2924  -22.6443  -46.4088 C.2       10 UNK         0.5000 
     21 O          -0.1954  -23.7263  -46.9859 O.2       10 UNK        -0.5000 
     22 CA         -0.1769  -22.5825  -44.8762 C.3       10 UNK         0.1400 
     23 CB          1.2434  -22.1808  -44.4518 C.3       10 UNK        -0.1800 
     24 N          -1.1496  -21.6524  -44.2995 N.am      10 UNK        -0.5000 
     25 C          -2.4700  -21.8894  -44.2579 C.2       9 UNK         0.5000 
     26 O          -2.9829  -22.9363  -44.6526 O.2       9 UNK        -0.5000 
     27 CA         -3.3772  -20.7554  -43.7394 C.3       9 UNK         0.1400 
     28 CB         -3.5446  -20.8541  -42.2163 C.3       9 UNK        -0.1800 
     29 N          -2.8871  -19.4203  -44.0855 N.am      9 UNK        -0.5000 
     30 C          -2.7202  -18.9647  -45.3351 C.2       8 UNK         0.5000 
     31 O          -3.0446  -19.6019  -46.3361 O.2       8 UNK        -0.5000 
     32 CA         -2.0275  -17.5984  -45.5058 C.3       8 UNK         0.1400 
     33 CB         -3.0563  -16.5016  -45.8143 C.3       8 UNK        -0.1800 
     34 N          -1.2091  -17.1833  -44.3597 N.am      8 UNK        -0.5000 
     35 C          -0.1347  -17.8381  -43.8931 C.2       7 UNK         0.5000 
     36 O           0.2561  -18.9079  -44.3624 O.2       7 UNK        -0.5000 
     37 CA          0.5778  -17.2289  -42.6682 C.3       7 UNK         0.1400 
     38 CB          2.0781  -17.5827  -42.6144 C.3       7 UNK        -0.1800 
     39 N           0.3334  -15.7878  -42.5027 N.am      7 UNK        -0.5000 
     40 C           0.8581  -14.7675  -43.1997 C.2       6 UNK         0.5000 
     41 O           1.7024  -14.8981  -44.0874 O.2       6 UNK        -0.5000 
     42 CA          0.3261  -13.3636  -42.8378 C.3       6 UNK         0.1400 
     43 CB          0.0923  -13.1878  -41.3246 C.3       6 UNK        -0.1800 
     44 N           1.2176  -12.2987  -43.2936 N.am      6 UNK        -0.5000 
     45 C           1.2328  -11.7719  -44.5261 C.2       5 UNK         0.5000 
     46 O           0.5165  -12.1756  -45.4447 O.2       5 UNK        -0.5000 
     47 CA          2.2243  -10.6176  -44.7992 C.3       5 UNK         0.1400 
     48 CB          1.6241   -9.5229  -45.7046 C.3       5 UNK        -0.1800 
     49 N           2.8321  -10.0437  -43.5948 N.am      5 UNK        -0.5000 
     50 C           2.2365   -9.3592  -42.6050 C.2       4 UNK         0.5000 
     51 O           1.0532   -9.0181  -42.6250 O.2       4 UNK        -0.5000 
     52 CA          3.1140   -9.0277  -41.3727 C.3       4 UNK         0.1400 
     53 CB          2.2914   -8.9403  -40.0698 C.3       4 UNK        -0.1800 
     54 N           4.2576   -9.9381  -41.2002 N.am      4 UNK        -0.5000 
     55 C           4.2054  -11.2688  -41.0417 C.2       3 UNK         0.5000 
     56 O           3.1587  -11.9147  -40.9636 O.2       3 UNK        -0.5000 
     57 CA          5.5523  -12.0148  -41.0512 C.3       3 UNK         0.1400 
     58 CB          5.8498  -12.6225  -39.6723 C.3       3 UNK        -0.1800 
     59 N           5.5617  -13.0773  -42.0600 N.am      3 UNK        -0.5000 
     60 C           5.3693  -12.8970  -43.3749 C.2       2 UNK         0.5000 
     61 O           5.2463  -11.7804  -43.8862 O.2       2 UNK        -0.5000 
     62 CA          5.3046  -14.1609  -44.2608 C.3       2 UNK         0.1400 
     63 CB          4.9397  -15.4377  -43.4799 C.3       2 UNK        -0.1800 
     64 N           4.3427  -13.9733  -45.3493 N.am      2 UNK        -0.5000 
     65 C           4.6430  -13.4568  -46.5516 C.2       1 UNK         0.5000 
     66 O           5.7937  -13.1703  -46.8885 O.2       1 UNK        -0.5000 
     67 C          -2.1050  -22.0053  -48.9009 C.2       11 UNK         0.5000 
     68 O          -2.1661  -22.5916  -49.9818 O.2       11 UNK        -0.5000 
     69 N          -3.1319  -21.9139  -48.0436 N.am      12 UNK        -0.5000 
     70 CA         -4.4063  -22.6142  -48.1889 C.3       12 UNK         0.1400 
     71 CB         -5.4212  -22.0827  -47.1674 C.3       12 UNK        -0.1800 
     72 C          -4.2361  -24.1366  -48.0704 C.2       12 UNK         0.5000 
     73 O          -4.7288  -24.8658  -48.9298 O.2       12 UNK        -0.5000 
     74 N          -3.4989  -24.5901  -47.0455 N.am      13 UNK        -0.5000 
     75 CA         -3.1709  -26.0002  -46.8160 C.3       13 UNK         0.1400 
     76 CB         -2.4301  -26.1515  -45.4798 C.3       13 UNK        -0.1800 
     77 C          -2.3617  -26.6298  -47.9657 C.2       13 UNK         0.5000 
     78 O          -2.6398  -27.7666  -48.3479 O.2       13 UNK        -0.5000 
     79 N          -1.4260  -25.8624  -48.5433 N.am      14 UNK        -0.5000 
     80 CA         -0.6466  -26.2331  -49.7292 C.3       14 UNK         0.1400 
     81 CB          0.4346  -25.1699  -49.9758 C.3       14 UNK        -0.1800 
     82 C          -1.5021  -26.4366  -50.9978 C.2       14 UNK         0.5000 
     83 O          -1.1056  -27.2011  -51.8777 O.2       14 UNK        -0.5000 
     84 N          -2.6662  -25.7777  -51.0540 N.am      15 UNK        -0.5000 
     85 CA         -3.6759  -25.9121  -52.1040 C.3       15 UNK         0.1400 
     86 CB         -4.1840  -24.5074  -52.4609 C.3       15 UNK        -0.1800 
     87 C          -4.8374  -26.8372  -51.6800 C.2       15 UNK         0.5000 
     88 O          -5.8845  -26.8261  -52.3294 O.2       15 UNK        -0.5000 
     89 N          -4.6589  -27.5967  -50.5860 N.am      16 UNK        -0.5000 
     90 CA         -5.6078  -28.5467  -49.9894 C.3       16 UNK         0.1400 
     91 CB         -5.7935  -29.7666  -50.9153 C.3       16 UNK        -0.1800 
     92 C          -6.9531  -27.9119  -49.5696 C.2       16 UNK         0.5000 
     93 O          -7.9755  -28.5988  -49.5477 O.2       16 UNK        -0.5000 
     94 N          -6.9286  -26.6048  -49.2688 N.am      17 UNK        -0.5000 
     95 CA         -8.0560  -25.7255  -48.9436 C.3       17 UNK         0.1400 
     96 CB         -8.7330  -26.1601  -47.6277 C.3       17 UNK        -0.1800 
     97 C          -9.0690  -25.5259  -50.0945 C.2       17 UNK         0.5000 
     98 O         -10.1402  -24.9638  -49.8605 O.2       17 UNK        -0.5000 
     99 N          -8.7218  -25.9510  -51.3190 N.am      18 UNK        -0.5000 
    100 CA        -9.5301  -25.7477  -52.5253 C.3       18 UNK         0.1400 
    101 CB        -9.1435  -26.8054  -53.5703 C.3       18 UNK        -0.1800 
    102 C         -9.3628  -24.3290  -53.1038 C.2       18 UNK         0.5000 
    103 O        -10.2422  -23.8515  -53.8218 O.2       18 UNK        -0.5000 
    104 N         -8.2411  -23.6868  -52.7677 N.am      19 UNK        -0.5000 
    105 CA        -7.8575  -22.3227  -53.1032 C.3       19 UNK         0.1400 
    106 CB        -7.4310  -22.2322  -54.5855 C.3       19 UNK        -0.1800 
    107 C         -6.7504  -21.9252  -52.1100 C.2       19 UNK         0.5000 
    108 O         -6.7739  -22.3871  -50.9659 O.2       19 UNK        -0.5000 
    109 N         -5.7774  -21.1292  -52.5606 N.am      20 UNK        -0.5000 
    110 CA        -4.5277  -20.8647  -51.8606 C.3       20 UNK         0.1400 
    111 CB        -4.6441  -19.5927  -51.0066 C.3       20 UNK        -0.1800 
    112 C         -3.4097  -20.7605  -52.9018 C.2       20 UNK         0.5000 
    113 O         -3.6516  -20.2797  -54.0123 O.2       20 UNK        -0.5000 
    114 N         -2.2110  -21.2224  -52.5303 N.am      21 UNK        -0.5000 
    115 CA        -1.0113  -21.3011  -53.3676 C.3       21 UNK         0.1400 
    116 CB        -0.0530  -22.3239  -52.7291 C.3       21 UNK        -0.1800 
    117 C         -0.3385  -19.9307  -53.6206 C.2       21 UNK         0.5000 
    118 O          0.8676  -19.7875  -53.4162 O.2       21 UNK        -0.5000 
    119 N         -1.1299  -18.9444  -54.0546 N.am      22 UNK        -0.5000 
    120 CA        -0.7085  -17.5563  -54.3119 C.3       22 UNK         0.1400 
    121 C          0.0778  -17.3466  -55.6396 C.2       22 UNK         0.5000 
    122 N          0.1790  -18.3344  -56.5208 N.am      22 UNK        -0.7600 
    123 O          0.6110  -16.2659  -55.8749 O.2       22 UNK        -0.5000 
    124 C124       -1.8955  -16.5581  -54.2148 C.3       23 UNK        -0.0398 
    125 S125       -2.8954  -16.7379  -52.6947 S.3       23 UNK        -0.2404 
    126 C126       -2.1779  -15.4663  -51.6012 C.3       23 UNK        -0.0205 
    127 H127        0.1166  -15.0909  -46.4392 H         1 UNK         0.0600 
    128 H128        0.1857  -16.0371  -47.9321 H         1 UNK         0.0600 
    129 H129        0.8126  -16.7136  -46.4239 H         1 UNK         0.0600 
    130 H130        1.4775  -13.3715  -46.8787 H         1 UNK         0.3000 
    131 H131        3.2159  -12.1326  -47.3585 H         1 UNK         0.0600 
    132 H132        4.8175  -12.7156  -49.2064 H         1 UNK         0.0800 
    133 H133        4.1245  -14.3105  -49.2930 H         1 UNK         0.0800 
    134 H134        2.3418  -13.3153  -52.4242 H         1 UNK         0.0800 
    135 H135        3.5993  -14.2386  -51.6529 H         1 UNK         0.0800 
    136 H136       -0.0821  -13.7381  -51.8696 H         1 UNK         0.1150 
    137 H137       -1.0152  -17.7316  -50.6575 H         1 UNK         0.1150 
    138 H138        3.0467  -16.3558  -50.5671 H         1 UNK         0.1150 
    139 H139        1.2976  -19.3241  -50.8372 H         1 UNK         0.0800 
    140 H140        2.6229  -18.5849  -49.9862 H         1 UNK         0.0800 
    141 H141       -0.8410  -19.8438  -50.0294 H         1 UNK         0.0800 
    142 H142       -1.5511  -19.2991  -48.5303 H         1 UNK         0.0800 
    143 H143        0.0229  -21.8873  -48.9836 H         1 UNK         0.0600 
    144 H144       -0.6064  -20.6430  -46.4841 H         1 UNK         0.3000 
    145 H145       -0.3783  -23.5805  -44.4815 H         1 UNK         0.0600 
    146 H146        1.3353  -22.1405  -43.3663 H         1 UNK         0.0600 
    147 H147        1.9750  -22.9039  -44.8143 H         1 UNK         0.0600 
    148 H148        1.5253  -21.2053  -44.8492 H         1 UNK         0.0600 
    149 H149       -0.7968  -20.7454  -44.0173 H         1 UNK         0.3000 
    150 H150       -4.3589  -20.8798  -44.2006 H         1 UNK         0.0600 
    151 H151       -3.9303  -21.8333  -41.9290 H         1 UNK         0.0600 
    152 H152       -4.2488  -20.1082  -41.8473 H         1 UNK         0.0600 
    153 H153       -2.5968  -20.7090  -41.6962 H         1 UNK         0.0600 
    154 H154       -2.5995  -18.8289  -43.3205 H         1 UNK         0.3000 
    155 H155       -1.3665  -17.6935  -46.3686 H         1 UNK         0.0600 
    156 H156       -2.5666  -15.5546  -46.0421 H         1 UNK         0.0600 
    157 H157       -3.7341  -16.3384  -44.9756 H         1 UNK         0.0600 
    158 H158       -3.6632  -16.7676  -46.6810 H         1 UNK         0.0600 
    159 H159       -1.4731  -16.3209  -43.9077 H         1 UNK         0.3000 
    160 H160        0.1133  -17.7002  -41.8011 H         1 UNK         0.0600 
    161 H161        2.2193  -18.6577  -42.4964 H         1 UNK         0.0600 
    162 H162        2.5729  -17.0962  -41.7740 H         1 UNK         0.0600 
    163 H163        2.5932  -17.2921  -43.5298 H         1 UNK         0.0600 
    164 H164       -0.3314  -15.5548  -41.7781 H         1 UNK         0.3000 
    165 H165       -0.6364  -13.2468  -43.3398 H         1 UNK         0.0600 
    166 H166        0.9782  -13.4534  -40.7464 H         1 UNK         0.0600 
    167 H167       -0.1627  -12.1555  -41.0829 H         1 UNK         0.0600 
    168 H168       -0.7324  -13.8070  -40.9710 H         1 UNK         0.0600 
    169 H169        1.8831  -11.9608  -42.6073 H         1 UNK         0.3000 
    170 H170        3.0542  -11.0650  -45.3431 H         1 UNK         0.0600 
    171 H171        1.3390   -9.9312  -46.6749 H         1 UNK         0.0600 
    172 H172        0.7314   -9.0768  -45.2659 H         1 UNK         0.0600 
    173 H173        2.3434   -8.7252  -45.8897 H         1 UNK         0.0600 
    174 H174        3.8038  -10.3048  -43.4640 H         1 UNK         0.3000 
    175 H175        3.5361   -8.0400  -41.5628 H         1 UNK         0.0600 
    176 H176        2.9278   -8.7063  -39.2164 H         1 UNK         0.0600 
    177 H177        1.5371   -8.1553  -40.1340 H         1 UNK         0.0600 
    178 H178        1.7718   -9.8746  -39.8549 H         1 UNK         0.0600 
    179 H179        5.1669   -9.5035  -41.2811 H         1 UNK         0.3000 
    180 H180        6.3507  -11.3121  -41.2982 H         1 UNK         0.0600 
    181 H181        5.0966  -13.3577  -39.3853 H         1 UNK         0.0600 
    182 H182        5.8654  -11.8508  -38.9015 H         1 UNK         0.0600 
    183 H183        6.8225  -13.1146  -39.6585 H         1 UNK         0.0600 
    184 H184        5.6277  -14.0217  -41.7106 H         1 UNK         0.3000 
    185 H185        6.3024  -14.3089  -44.6780 H         1 UNK         0.0600 
    186 H186        4.7836  -16.2787  -44.1559 H         1 UNK         0.0600 
    187 H187        5.7374  -15.7263  -42.7947 H         1 UNK         0.0600 
    188 H188        4.0294  -15.3070  -42.8947 H         1 UNK         0.0600 
    189 H189        3.3764  -14.2011  -45.1355 H         1 UNK         0.3000 
    190 H190       -3.0269  -21.3226  -47.2245 H         1 UNK         0.3000 
    191 H191       -4.8002  -22.4038  -49.1815 H         1 UNK         0.0600 
    192 H192       -5.5614  -21.0071  -47.2766 H         1 UNK         0.0600 
    193 H193       -6.3947  -22.5540  -47.3086 H         1 UNK         0.0600 
    194 H194       -5.1085  -22.2773  -46.1422 H         1 UNK         0.0600 
    195 H195       -3.1620  -23.9293  -46.3518 H         1 UNK         0.3000 
    196 H196       -4.1138  -26.5461  -46.7430 H         1 UNK         0.0600 
    197 H197       -2.2075  -27.1990  -45.2731 H         1 UNK         0.0600 
    198 H198       -3.0316  -25.7775  -44.6511 H         1 UNK         0.0600 
    199 H199       -1.4850  -25.6089  -45.4788 H         1 UNK         0.0600 
    200 H200       -1.2072  -24.9650  -48.1202 H         1 UNK         0.3000 
    201 H201       -0.1497  -27.1815  -49.5156 H         1 UNK         0.0600 
    202 H202        1.1015  -25.0787  -49.1184 H         1 UNK         0.0600 
    203 H203       -0.0023  -24.1898  -50.1653 H         1 UNK         0.0600 
    204 H204        1.0488  -25.4275  -50.8395 H         1 UNK         0.0600 
    205 H205       -2.9199  -25.1809  -50.2764 H         1 UNK         0.3000 
    206 H206       -3.2319  -26.3480  -53.0009 H         1 UNK         0.0600 
    207 H207       -3.3648  -23.8686  -52.7890 H         1 UNK         0.0600 
    208 H208       -4.9154  -24.5377  -53.2693 H         1 UNK         0.0600 
    209 H209       -4.6574  -24.0350  -51.6009 H         1 UNK         0.0600 
    210 H210       -3.7818  -27.5073  -50.0862 H         1 UNK         0.3000 
    211 H211       -5.1435  -28.8995  -49.0677 H         1 UNK         0.0600 
    212 H212       -6.3131  -29.4994  -51.8361 H         1 UNK         0.0600 
    213 H213       -6.3763  -30.5474  -50.4254 H         1 UNK         0.0600 
    214 H214       -4.8331  -30.2047  -51.1869 H         1 UNK         0.0600 
    215 H215       -6.0293  -26.1278  -49.3068 H         1 UNK         0.3000 
    216 H216       -7.6156  -24.7421  -48.7722 H         1 UNK         0.0600 
    217 H217       -8.0015  -26.2732  -46.8275 H         1 UNK         0.0600 
    218 H218       -9.2624  -27.1068  -47.7366 H         1 UNK         0.0600 
    219 H219       -9.4599  -25.4174  -47.2970 H         1 UNK         0.0600 
    220 H220       -7.8199  -26.3961  -51.4485 H         1 UNK         0.3000 
    221 H221      -10.5842  -25.8862  -52.2760 H         1 UNK         0.0600 
    222 H222       -8.1066  -26.6961  -53.8901 H         1 UNK         0.0600 
    223 H223       -9.2684  -27.8142  -53.1763 H         1 UNK         0.0600 
    224 H224       -9.7705  -26.7223  -54.4589 H         1 UNK         0.0600 
    225 H225       -7.6158  -24.1377  -52.1125 H         1 UNK         0.3000 
    226 H226       -8.7091  -21.6625  -52.9294 H         1 UNK         0.0600 
    227 H227       -8.2226  -22.5801  -55.2490 H         1 UNK         0.0600 
    228 H228       -7.2107  -21.2042  -54.8749 H         1 UNK         0.0600 
    229 H229       -6.5444  -22.8354  -54.7858 H         1 UNK         0.0600 
    230 H230       -5.7876  -20.8164  -53.5234 H         1 UNK         0.3000 
    231 H231       -4.2917  -21.7083  -51.2150 H         1 UNK         0.0600 
    232 H232       -3.6931  -19.3499  -50.5307 H         1 UNK         0.0600 
    233 H233       -5.3809  -19.7203  -50.2134 H         1 UNK         0.0600 
    234 H234       -4.9434  -18.7336  -51.6074 H         1 UNK         0.0600 
    235 H235       -2.1276  -21.6464  -51.6101 H         1 UNK         0.3000 
    236 H236       -1.3053  -21.6908  -54.3442 H         1 UNK         0.0600 
    237 H237        0.8299  -22.4792  -53.3503 H         1 UNK         0.0600 
    238 H238        0.2877  -21.9952  -51.7465 H         1 UNK         0.0600 
    239 H239       -0.5359  -23.2941  -52.6071 H         1 UNK         0.0600 
    240 H240       -2.1155  -19.1518  -54.1868 H         1 UNK         0.3000 
    241 H241        0.0015  -17.2904  -53.5287 H         1 UNK         0.0600 
    242 H242       -0.2536  -19.2261  -56.3415 H         1 UNK         0.3800 
    243 H243        0.6935  -18.1882  -57.3753 H         1 UNK         0.3800 
    244 H244       -1.5363  -15.5294  -54.2793 H         1 UNK         0.0800 
    245 H245       -2.5671  -16.6960  -55.0637 H         1 UNK         0.0800 
    246 H246       -2.3218  -14.4860  -52.0581 H         1 UNK         0.0800 
    247 H247       -2.7352  -15.4547  -50.6637 H         1 UNK         0.0800 
@<TRIPOS>BOND
     1    1    2 1    
     2    1  127 1    
     3    1  128 1    
     4    1  129 1    
     5    2    3 2    
     6    2    4 am   BACKBONE|DICT|INTERRES
     7    4    5 1    
     8    4  130 1    
     9    5    6 1    
    10    5   65 1    
    11    5  131 1    
    12    6    7 1    
    13    6  132 1    
    14    6  133 1    
    15    7    8 1    
    16    8    9 1    
    17    8  134 1    
    18    8  135 1    
    19    9   10 ar   
    20    9   14 ar   
    21   10   11 ar   
    22   10  136 1    
    23   11   12 ar   
    24   11  126 1    
    25   12   13 ar   
    26   12  137 1    
    27   13   14 ar   
    28   13   15 1    
    29   14  138 1    
    30   15   16 1    
    31   15  139 1    
    32   15  140 1    
    33   16   17 1    
    34   17   18 1    
    35   17  141 1    
    36   17  142 1    
    37   18   19 1    
    38   18   67 1    
    39   18  143 1    
    40   19   20 am   BACKBONE|DICT|INTERRES
    41   19  144 1    
    42   20   21 2    
    43   20   22 1    
    44   22   23 1    
    45   22   24 1    
    46   22  145 1    
    47   23  146 1    
    48   23  147 1    
    49   23  148 1    
    50   24   25 am   BACKBONE|DICT|INTERRES
    51   24  149 1    
    52   25   26 2    
    53   25   27 1    
    54   27   28 1    
    55   27   29 1    
    56   27  150 1    
    57   28  151 1    
    58   28  152 1    
    59   28  153 1    
    60   29   30 am   BACKBONE|DICT|INTERRES
    61   29  154 1    
    62   30   31 2    
    63   30   32 1    
    64   32   33 1    
    65   32   34 1    
    66   32  155 1    
    67   33  156 1    
    68   33  157 1    
    69   33  158 1    
    70   34   35 am   BACKBONE|DICT|INTERRES
    71   34  159 1    
    72   35   36 2    
    73   35   37 1    
    74   37   38 1    
    75   37   39 1    
    76   37  160 1    
    77   38  161 1    
    78   38  162 1    
    79   38  163 1    
    80   39   40 am   BACKBONE|DICT|INTERRES
    81   39  164 1    
    82   40   41 2    
    83   40   42 1    
    84   42   43 1    
    85   42   44 1    
    86   42  165 1    
    87   43  166 1    
    88   43  167 1    
    89   43  168 1    
    90   44   45 am   BACKBONE|DICT|INTERRES
    91   44  169 1    
    92   45   46 2    
    93   45   47 1    
    94   47   48 1    
    95   47   49 1    
    96   47  170 1    
    97   48  171 1    
    98   48  172 1    
    99   48  173 1    
   100   49   50 am   BACKBONE|DICT|INTERRES
   101   49  174 1    
   102   50   51 2    
   103   50   52 1    
   104   52   53 1    
   105   52   54 1    
   106   52  175 1    
   107   53  176 1    
   108   53  177 1    
   109   53  178 1    
   110   54   55 am   BACKBONE|DICT|INTERRES
   111   54  179 1    
   112   55   56 2    
   113   55   57 1    
   114   57   58 1    
   115   57   59 1    
   116   57  180 1    
   117   58  181 1    
   118   58  182 1    
   119   58  183 1    
   120   59   60 am   BACKBONE|DICT|INTERRES
   121   59  184 1    
   122   60   61 2    
   123   60   62 1    
   124   62   63 1    
   125   62   64 1    
   126   62  185 1    
   127   63  186 1    
   128   63  187 1    
   129   63  188 1    
   130   64   65 am   BACKBONE|DICT|INTERRES
   131   64  189 1    
   132   65   66 2    
   133   67   68 2    
   134   67   69 am   BACKBONE|DICT|INTERRES
   135   69   70 1    
   136   69  190 1    
   137   70   71 1    
   138   70   72 1    
   139   70  191 1    
   140   71  192 1    
   141   71  193 1    
   142   71  194 1    
   143   72   73 2    
   144   72   74 am   BACKBONE|DICT|INTERRES
   145   74   75 1    
   146   74  195 1    
   147   75   76 1    
   148   75   77 1    
   149   75  196 1    
   150   76  197 1    
   151   76  198 1    
   152   76  199 1    
   153   77   78 2    
   154   77   79 am   BACKBONE|DICT|INTERRES
   155   79   80 1    
   156   79  200 1    
   157   80   81 1    
   158   80   82 1    
   159   80  201 1    
   160   81  202 1    
   161   81  203 1    
   162   81  204 1    
   163   82   83 2    
   164   82   84 am   BACKBONE|DICT|INTERRES
   165   84   85 1    
   166   84  205 1    
   167   85   86 1    
   168   85   87 1    
   169   85  206 1    
   170   86  207 1    
   171   86  208 1    
   172   86  209 1    
   173   87   88 2    
   174   87   89 am   BACKBONE|DICT|INTERRES
   175   89   90 1    
   176   89  210 1    
   177   90   91 1    
   178   90   92 1    
   179   90  211 1    
   180   91  212 1    
   181   91  213 1    
   182   91  214 1    
   183   92   93 2    
   184   92   94 am   BACKBONE|DICT|INTERRES
   185   94   95 1    
   186   94  215 1    
   187   95   96 1    
   188   95   97 1    
   189   95  216 1    
   190   96  217 1    
   191   96  218 1    
   192   96  219 1    
   193   97   98 2    
   194   97   99 am   BACKBONE|DICT|INTERRES
   195   99  100 1    
   196   99  220 1    
   197  100  101 1    
   198  100  102 1    
   199  100  221 1    
   200  101  222 1    
   201  101  223 1    
   202  101  224 1    
   203  102  103 2    
   204  102  104 am   BACKBONE|DICT|INTERRES
   205  104  105 1    
   206  104  225 1    
   207  105  106 1    
   208  105  107 1    
   209  105  226 1    
   210  106  227 1    
   211  106  228 1    
   212  106  229 1    
   213  107  108 2    
   214  107  109 am   BACKBONE|DICT|INTERRES
   215  109  110 1    
   216  109  230 1    
   217  110  111 1    
   218  110  112 1    
   219  110  231 1    
   220  111  232 1    
   221  111  233 1    
   222  111  234 1    
   223  112  113 2    
   224  112  114 am   BACKBONE|DICT|INTERRES
   225  114  115 1    
   226  114  235 1    
   227  115  116 1    
   228  115  117 1    
   229  115  236 1    
   230  116  237 1    
   231  116  238 1    
   232  116  239 1    
   233  117  118 2    
   234  117  119 am   BACKBONE|DICT|INTERRES
   235  119  120 1    
   236  119  240 1    
   237  120  121 1    
   238  120  124 1    
   239  120  241 1    
   240  121  122 am   BACKBONE|DICT|INTERRES
   241  121  123 2    
   242  122  242 1    
   243  122  243 1    
   244  124  125 1    
   245  124  244 1    
   246  124  245 1    
   247  125  126 1    
   248  126  246 1    
   249  126  247 1    
@<TRIPOS>SUBSTRUCTURE
     1 UNK         1 GROUP             0       ****    0 ROOT    
