@<TRIPOS>MOLECULE
3R540
247   249    1
SMALL
USER_CHARGES


@<TRIPOS>ATOM
      1 CA         -2.1221  -15.2239  -51.6163 C.3       0 UNK        -0.1800 
      2 C          -1.1339  -14.8242  -50.5305 C.2       0 UNK         0.5000 
      3 O          -0.9668  -13.6347  -50.2602 O.2       0 UNK        -0.5000 
      4 N          -0.4719  -15.8125  -49.9189 N.am      1 UNK        -0.5000 
      5 CA          0.4758  -15.6491  -48.8128 C.3       1 UNK         0.1400 
      6 C6          1.2919  -16.9399  -48.5221 C.3       23 UNK        -0.0398 
      7 S7          1.8784  -17.8452  -49.9973 S.3       23 UNK        -0.2404 
      8 C8          0.9038  -19.3842  -49.8848 C.3       23 UNK        -0.0205 
      9 C9         -0.5477  -19.1736  -50.2916 C.ar      23 UNK        -0.0193 
     10 C10        -0.9501  -19.4084  -51.6096 C.ar      23 UNK        -0.1150 
     11 C11        -2.2833  -19.2236  -51.9880 C.ar      23 UNK        -0.0193 
     12 C12        -3.2129  -18.7906  -51.0392 C.ar      23 UNK        -0.1150 
     13 C13        -2.8235  -18.5442  -49.7212 C.ar      23 UNK        -0.0193 
     14 C14        -1.4928  -18.7509  -49.3523 C.ar      23 UNK        -0.1150 
     15 C15        -3.8326  -18.0200  -48.7101 C.3       23 UNK        -0.0205 
     16 S16        -4.5381  -19.3473  -47.6837 S.3       23 UNK        -0.2404 
     17 C17        -3.2188  -19.6182  -46.4485 C.3       23 UNK        -0.0398 
     18 CA         -2.3731  -20.8795  -46.7449 C.3       11 UNK         0.1400 
     19 N          -1.0665  -20.8352  -46.0835 N.am      11 UNK        -0.5000 
     20 C          -0.0953  -21.7406  -46.2681 C.2       10 UNK         0.5000 
     21 O          -0.1720  -22.6596  -47.0841 O.2       10 UNK        -0.5000 
     22 CA          1.1404  -21.6593  -45.3531 C.3       10 UNK         0.1400 
     23 CB          2.3030  -20.9660  -46.0784 C.3       10 UNK        -0.1800 
     24 N           0.8864  -21.0099  -44.0621 N.am      10 UNK        -0.5000 
     25 C           0.0120  -21.4443  -43.1407 C.2       9 UNK         0.5000 
     26 O          -0.6793  -22.4534  -43.2822 O.2       9 UNK        -0.5000 
     27 CA         -0.1680  -20.5857  -41.8759 C.3       9 UNK         0.1400 
     28 CB          0.9043  -20.9276  -40.8318 C.3       9 UNK        -0.1800 
     29 N          -0.1559  -19.1481  -42.1539 N.am      9 UNK        -0.5000 
     30 C          -1.0717  -18.5100  -42.8986 C.2       8 UNK         0.5000 
     31 O          -2.0536  -19.0637  -43.3934 O.2       8 UNK        -0.5000 
     32 CA         -0.8199  -17.0170  -43.1878 C.3       8 UNK         0.1400 
     33 CB         -1.2631  -16.1390  -42.0085 C.3       8 UNK        -0.1800 
     34 N           0.5802  -16.7372  -43.5042 N.am      8 UNK        -0.5000 
     35 C           1.2295  -17.2470  -44.5593 C.2       7 UNK         0.5000 
     36 O           0.6973  -17.9609  -45.4068 O.2       7 UNK        -0.5000 
     37 CA          2.7383  -16.9632  -44.6472 C.3       7 UNK         0.1400 
     38 CB          3.0142  -15.5494  -45.1759 C.3       7 UNK        -0.1800 
     39 N           3.3966  -17.1309  -43.3532 N.am      7 UNK        -0.5000 
     40 C           3.5701  -18.3079  -42.7373 C.2       6 UNK         0.5000 
     41 O           3.2224  -19.3870  -43.2143 O.2       6 UNK        -0.5000 
     42 CA          4.2073  -18.2640  -41.3367 C.3       6 UNK         0.1400 
     43 CB          5.7396  -18.2526  -41.4397 C.3       6 UNK        -0.1800 
     44 N           3.7650  -17.1080  -40.5549 N.am      6 UNK        -0.5000 
     45 C           2.5136  -16.9333  -40.1073 C.2       5 UNK         0.5000 
     46 O           1.6033  -17.7414  -40.2865 O.2       5 UNK        -0.5000 
     47 CA          2.2211  -15.6054  -39.3860 C.3       5 UNK         0.1400 
     48 CB          2.6473  -15.6818  -37.9123 C.3       5 UNK        -0.1800 
     49 N           2.8627  -14.4509  -40.0232 N.am      5 UNK        -0.5000 
     50 C           2.5950  -14.0328  -41.2667 C.2       4 UNK         0.5000 
     51 O           1.8118  -14.6091  -42.0256 O.2       4 UNK        -0.5000 
     52 CA          3.3542  -12.7902  -41.7599 C.3       4 UNK         0.1400 
     53 CB          4.6516  -13.1925  -42.4769 C.3       4 UNK        -0.1800 
     54 N           2.5135  -12.0229  -42.6763 N.am      4 UNK        -0.5000 
     55 C           1.5499  -11.1834  -42.2828 C.2       3 UNK         0.5000 
     56 O           1.3634  -10.8626  -41.1080 O.2       3 UNK        -0.5000 
     57 CA          0.6138  -10.6293  -43.3705 C.3       3 UNK         0.1400 
     58 CB          1.3119   -9.5707  -44.2472 C.3       3 UNK        -0.1800 
     59 N          -0.0389  -11.6751  -44.1697 N.am      3 UNK        -0.5000 
     60 C           0.4857  -12.4783  -45.1056 C.2       2 UNK         0.5000 
     61 O           1.6714  -12.4584  -45.4463 O.2       2 UNK        -0.5000 
     62 CA         -0.4877  -13.4687  -45.7703 C.3       2 UNK         0.1400 
     63 CB         -1.8048  -12.7838  -46.2025 C.3       2 UNK        -0.1800 
     64 N           0.1561  -14.0917  -46.9259 N.am      2 UNK        -0.5000 
     65 C          -0.2843  -15.1910  -47.5477 C.2       1 UNK         0.5000 
     66 O          -1.2619  -15.8397  -47.1680 O.2       1 UNK        -0.5000 
     67 C          -3.1460  -22.1767  -46.4206 C.2       11 UNK         0.5000 
     68 O          -3.7522  -22.7633  -47.3157 O.2       11 UNK        -0.5000 
     69 N          -3.0724  -22.6297  -45.1634 N.am      12 UNK        -0.5000 
     70 CA         -3.6614  -23.8899  -44.7226 C.3       12 UNK         0.1400 
     71 CB         -4.0609  -23.7717  -43.2435 C.3       12 UNK        -0.1800 
     72 C          -2.6927  -25.0647  -44.9331 C.2       12 UNK         0.5000 
     73 O          -3.1050  -26.1082  -45.4387 O.2       12 UNK        -0.5000 
     74 N          -1.4313  -24.8827  -44.5212 N.am      13 UNK        -0.5000 
     75 CA         -0.4378  -25.9509  -44.4243 C.3       13 UNK         0.1400 
     76 CB          0.6961  -25.5014  -43.4897 C.3       13 UNK        -0.1800 
     77 C           0.1322  -26.4225  -45.7731 C.2       13 UNK         0.5000 
     78 O           0.4376  -27.6093  -45.9002 O.2       13 UNK        -0.5000 
     79 N           0.2912  -25.5056  -46.7370 N.am      14 UNK        -0.5000 
     80 CA          0.9209  -25.7807  -48.0295 C.3       14 UNK         0.1400 
     81 CB          2.1455  -24.8677  -48.2140 C.3       14 UNK        -0.1800 
     82 C          -0.0721  -25.6106  -49.1863 C.2       14 UNK         0.5000 
     83 O          -0.1744  -26.5058  -50.0261 O.2       14 UNK        -0.5000 
     84 N          -0.7850  -24.4757  -49.2208 N.am      15 UNK        -0.5000 
     85 CA         -1.7104  -24.1381  -50.3071 C.3       15 UNK         0.1400 
     86 CB         -1.9012  -22.6164  -50.3683 C.3       15 UNK        -0.1800 
     87 C          -3.0699  -24.8545  -50.2040 C.2       15 UNK         0.5000 
     88 O          -3.7853  -24.9117  -51.2027 O.2       15 UNK        -0.5000 
     89 N          -3.4060  -25.3784  -49.0152 N.am      16 UNK        -0.5000 
     90 CA         -4.6342  -26.1150  -48.6904 C.3       16 UNK         0.1400 
     91 CB         -4.6340  -27.4918  -49.3868 C.3       16 UNK        -0.1800 
     92 C          -5.9240  -25.3044  -48.9513 C.2       16 UNK         0.5000 
     93 O          -6.9114  -25.8505  -49.4469 O.2       16 UNK        -0.5000 
     94 N          -5.8792  -24.0089  -48.6093 N.am      17 UNK        -0.5000 
     95 CA         -6.9393  -23.0058  -48.7464 C.3       17 UNK         0.1400 
     96 CB         -8.1413  -23.3474  -47.8408 C.3       17 UNK        -0.1800 
     97 C          -7.3430  -22.7119  -50.2083 C.2       17 UNK         0.5000 
     98 O          -8.4885  -22.3346  -50.4656 O.2       17 UNK        -0.5000 
     99 N          -6.3933  -22.8662  -51.1416 N.am      18 UNK        -0.5000 
    100 CA        -6.5212  -22.4553  -52.5412 C.3       18 UNK         0.1400 
    101 CB        -5.3547  -23.0568  -53.3421 C.3       18 UNK        -0.1800 
    102 C         -6.5488  -20.9212  -52.7019 C.2       18 UNK         0.5000 
    103 O         -6.2121  -20.1881  -51.7699 O.2       18 UNK        -0.5000 
    104 N         -6.9185  -20.4640  -53.9005 N.am      19 UNK        -0.5000 
    105 CA        -6.9099  -19.0634  -54.3061 C.3       19 UNK         0.1400 
    106 CB        -8.2305  -18.3908  -53.8909 C.3       19 UNK        -0.1800 
    107 C         -6.7005  -18.9921  -55.8253 C.2       19 UNK         0.5000 
    108 O         -7.0113  -19.9615  -56.5238 O.2       19 UNK        -0.5000 
    109 N         -6.2069  -17.8342  -56.2861 N.am      20 UNK        -0.5000 
    110 CA        -5.8230  -17.4728  -57.6568 C.3       20 UNK         0.1400 
    111 CB        -6.9756  -17.6833  -58.6584 C.3       20 UNK        -0.1800 
    112 C         -4.5300  -18.1695  -58.1274 C.2       20 UNK         0.5000 
    113 O         -4.3141  -19.3507  -57.8504 O.2       20 UNK        -0.5000 
    114 N         -3.6893  -17.4040  -58.8408 N.am      21 UNK        -0.5000 
    115 CA        -2.3785  -17.7931  -59.3856 C.3       21 UNK         0.1400 
    116 CB        -2.5435  -18.8391  -60.5086 C.3       21 UNK        -0.1800 
    117 C         -1.3593  -18.2261  -58.3052 C.2       21 UNK         0.5000 
    118 O         -0.4889  -19.0577  -58.5712 O.2       21 UNK        -0.5000 
    119 N         -1.4979  -17.6591  -57.1010 N.am      22 UNK        -0.5000 
    120 CA        -0.6691  -17.9408  -55.9216 C.3       22 UNK         0.1400 
    121 C          0.7902  -17.4305  -56.0768 C.2       22 UNK         0.5000 
    122 N          1.7696  -18.1659  -55.5686 N.am      22 UNK        -0.7600 
    123 O          1.0385  -16.3541  -56.6161 O.2       22 UNK        -0.5000 
    124 C124       -1.3083  -17.3671  -54.6314 C.3       23 UNK        -0.0398 
    125 S125       -3.0139  -17.9619  -54.3532 S.3       23 UNK        -0.2404 
    126 C126       -2.7285  -19.4967  -53.4163 C.3       23 UNK        -0.0205 
    127 H127       -2.0346  -16.2800  -51.8675 H         1 UNK         0.0600 
    128 H128       -1.9434  -14.6463  -52.5231 H         1 UNK         0.0600 
    129 H129       -3.1429  -15.0363  -51.2840 H         1 UNK         0.0600 
    130 H130       -0.6656  -16.7714  -50.1745 H         1 UNK         0.3000 
    131 H131        1.1805  -14.8675  -49.1044 H         1 UNK         0.0600 
    132 H132        0.7251  -17.6307  -47.9020 H         1 UNK         0.0800 
    133 H133        2.1744  -16.6911  -47.9348 H         1 UNK         0.0800 
    134 H134        1.3617  -20.1339  -50.5318 H         1 UNK         0.0800 
    135 H135        0.9586  -19.7909  -48.8735 H         1 UNK         0.0800 
    136 H136       -0.2252  -19.7405  -52.3393 H         1 UNK         0.1150 
    137 H137       -4.2400  -18.6312  -51.3335 H         1 UNK         0.1150 
    138 H138       -1.1964  -18.5682  -48.3305 H         1 UNK         0.1150 
    139 H139       -3.3746  -17.2576  -48.0787 H         1 UNK         0.0800 
    140 H140       -4.6493  -17.5203  -49.2331 H         1 UNK         0.0800 
    141 H141       -3.6768  -19.6790  -45.4599 H         1 UNK         0.0800 
    142 H142       -2.5809  -18.7337  -46.4154 H         1 UNK         0.0800 
    143 H143       -2.1609  -20.8966  -47.8128 H         1 UNK         0.0600 
    144 H144       -0.9249  -20.1102  -45.3922 H         1 UNK         0.3000 
    145 H145        1.4485  -22.6844  -45.1442 H         1 UNK         0.0600 
    146 H146        3.2061  -20.9660  -45.4682 H         1 UNK         0.0600 
    147 H147        2.5427  -21.4812  -47.0094 H         1 UNK         0.0600 
    148 H148        2.0679  -19.9333  -46.3317 H         1 UNK         0.0600 
    149 H149        1.4539  -20.1964  -43.8484 H         1 UNK         0.3000 
    150 H150       -1.1427  -20.8315  -41.4496 H         1 UNK         0.0600 
    151 H151        0.8945  -21.9927  -40.5965 H         1 UNK         0.0600 
    152 H152        0.7335  -20.3878  -39.9003 H         1 UNK         0.0600 
    153 H153        1.9050  -20.6787  -41.1844 H         1 UNK         0.0600 
    154 H154        0.5934  -18.6097  -41.7292 H         1 UNK         0.3000 
    155 H155       -1.4173  -16.7429  -44.0602 H         1 UNK         0.0600 
    156 H156       -1.1444  -15.0802  -42.2399 H         1 UNK         0.0600 
    157 H157       -0.6839  -16.3502  -41.1092 H         1 UNK         0.0600 
    158 H158       -2.3143  -16.3061  -41.7707 H         1 UNK         0.0600 
    159 H159        1.0798  -16.1191  -42.8694 H         1 UNK         0.3000 
    160 H160        3.1728  -17.6790  -45.3484 H         1 UNK         0.0600 
    161 H161        4.0834  -15.3728  -45.2921 H         1 UNK         0.0600 
    162 H162        2.6173  -14.7872  -44.5078 H         1 UNK         0.0600 
    163 H163        2.5546  -15.3892  -46.1483 H         1 UNK         0.0600 
    164 H164        3.6668  -16.2894  -42.8680 H         1 UNK         0.3000 
    165 H165        3.9076  -19.1696  -40.8053 H         1 UNK         0.0600 
    166 H166        6.2013  -18.2968  -40.4532 H         1 UNK         0.0600 
    167 H167        6.0986  -19.1144  -42.0041 H         1 UNK         0.0600 
    168 H168        6.1047  -17.3558  -41.9420 H         1 UNK         0.0600 
    169 H169        4.4509  -16.3926  -40.3640 H         1 UNK         0.3000 
    170 H170        1.1412  -15.4456  -39.4189 H         1 UNK         0.0600 
    171 H171        2.1703  -16.5255  -37.4117 H         1 UNK         0.0600 
    172 H172        3.7260  -15.8057  -37.8089 H         1 UNK         0.0600 
    173 H173        2.3592  -14.7802  -37.3714 H         1 UNK         0.0600 
    174 H174        3.5226  -13.9335  -39.4603 H         1 UNK         0.3000 
    175 H175        3.6141  -12.1682  -40.9006 H         1 UNK         0.0600 
    176 H176        4.4585  -13.8001  -43.3599 H         1 UNK         0.0600 
    177 H177        5.2105  -12.3127  -42.7962 H         1 UNK         0.0600 
    178 H178        5.3027  -13.7677  -41.8175 H         1 UNK         0.0600 
    179 H179        2.5396  -12.2795  -43.6579 H         1 UNK         0.3000 
    180 H180       -0.1982  -10.1201  -42.8487 H         1 UNK         0.0600 
    181 H181        0.6254   -9.1556  -44.9851 H         1 UNK         0.0600 
    182 H182        2.1723   -9.9759  -44.7800 H         1 UNK         0.0600 
    183 H183        1.6729   -8.7422  -43.6368 H         1 UNK         0.0600 
    184 H184       -1.0182  -11.8017  -43.9561 H         1 UNK         0.3000 
    185 H185       -0.7080  -14.2453  -45.0348 H         1 UNK         0.0600 
    186 H186       -2.4825  -13.4840  -46.6905 H         1 UNK         0.0600 
    187 H187       -2.3470  -12.3743  -45.3501 H         1 UNK         0.0600 
    188 H188       -1.6174  -11.9667  -46.9003 H         1 UNK         0.0600 
    189 H189        0.9913  -13.6144  -47.2416 H         1 UNK         0.3000 
    190 H190       -2.4926  -22.1393  -44.4941 H         1 UNK         0.3000 
    191 H191       -4.5690  -24.0938  -45.2956 H         1 UNK         0.0600 
    192 H192       -4.5069  -24.7000  -42.8844 H         1 UNK         0.0600 
    193 H193       -4.7965  -22.9804  -43.0982 H         1 UNK         0.0600 
    194 H194       -3.2033  -23.5509  -42.6066 H         1 UNK         0.0600 
    195 H195       -1.1770  -23.9903  -44.1022 H         1 UNK         0.3000 
    196 H196       -0.9223  -26.8131  -43.9605 H         1 UNK         0.0600 
    197 H197        1.2265  -24.6357  -43.8848 H         1 UNK         0.0600 
    198 H198        0.3132  -25.2367  -42.5039 H         1 UNK         0.0600 
    199 H199        1.4276  -26.2984  -43.3508 H         1 UNK         0.0600 
    200 H200       -0.0102  -24.5504  -46.5781 H         1 UNK         0.3000 
    201 H201        1.2816  -26.8105  -48.0709 H         1 UNK         0.0600 
    202 H202        1.8761  -23.8119  -48.2261 H         1 UNK         0.0600 
    203 H203        2.6524  -25.0843  -49.1551 H         1 UNK         0.0600 
    204 H204        2.8700  -25.0172  -47.4134 H         1 UNK         0.0600 
    205 H205       -0.6342  -23.7714  -48.5024 H         1 UNK         0.3000 
    206 H206       -1.2539  -24.4454  -51.2505 H         1 UNK         0.0600 
    207 H207       -0.9452  -22.0944  -50.3407 H         1 UNK         0.0600 
    208 H208       -2.4057  -22.3252  -51.2902 H         1 UNK         0.0600 
    209 H209       -2.5105  -22.2521  -49.5452 H         1 UNK         0.0600 
    210 H210       -2.7622  -25.2403  -48.2496 H         1 UNK         0.3000 
    211 H211       -4.6096  -26.2942  -47.6156 H         1 UNK         0.0600 
    212 H212       -5.4748  -28.1003  -49.0519 H         1 UNK         0.0600 
    213 H213       -3.7233  -28.0464  -49.1607 H         1 UNK         0.0600 
    214 H214       -4.7090  -27.3972  -50.4705 H         1 UNK         0.0600 
    215 H215       -5.0120  -23.6519  -48.2070 H         1 UNK         0.3000 
    216 H216       -6.5083  -22.0759  -48.3721 H         1 UNK         0.0600 
    217 H217       -8.8577  -22.5256  -47.8150 H         1 UNK         0.0600 
    218 H218       -8.6732  -24.2329  -48.1894 H         1 UNK         0.0600 
    219 H219       -7.8220  -23.5285  -46.8145 H         1 UNK         0.0600 
    220 H220       -5.4868  -23.2080  -50.8546 H         1 UNK         0.3000 
    221 H221       -7.4586  -22.8554  -52.9330 H         1 UNK         0.0600 
    222 H222       -5.3609  -24.1454  -53.2859 H         1 UNK         0.0600 
    223 H223       -4.3906  -22.7067  -52.9710 H         1 UNK         0.0600 
    224 H224       -5.4157  -22.7914  -54.3981 H         1 UNK         0.0600 
    225 H225       -7.1317  -21.1072  -54.6532 H         1 UNK         0.3000 
    226 H226       -6.0738  -18.5526  -53.8231 H         1 UNK         0.0600 
    227 H227       -9.0903  -18.8793  -54.3510 H         1 UNK         0.0600 
    228 H228       -8.3668  -18.4217  -52.8097 H         1 UNK         0.0600 
    229 H229       -8.2484  -17.3421  -54.1894 H         1 UNK         0.0600 
    230 H230       -5.9850  -17.1279  -55.5984 H         1 UNK         0.3000 
    231 H231       -5.6223  -16.4009  -57.6173 H         1 UNK         0.0600 
    232 H232       -7.1894  -18.7398  -58.8217 H         1 UNK         0.0600 
    233 H233       -6.7266  -17.2535  -59.6293 H         1 UNK         0.0600 
    234 H234       -7.8917  -17.2026  -58.3152 H         1 UNK         0.0600 
    235 H235       -3.9561  -16.4455  -59.0198 H         1 UNK         0.3000 
    236 H236       -1.9614  -16.8932  -59.8397 H         1 UNK         0.0600 
    237 H237       -1.5964  -19.0202  -61.0181 H         1 UNK         0.0600 
    238 H238       -2.8943  -19.7964  -60.1223 H         1 UNK         0.0600 
    239 H239       -3.2548  -18.5002  -61.2617 H         1 UNK         0.0600 
    240 H240       -2.2372  -16.9861  -56.9702 H         1 UNK         0.3000 
    241 H241       -0.6294  -19.0269  -55.8169 H         1 UNK         0.0600 
    242 H242        2.7194  -17.8372  -55.6504 H         1 UNK         0.3800 
    243 H243        1.5925  -19.0517  -55.1210 H         1 UNK         0.3800 
    244 H244       -1.3423  -16.2775  -54.6812 H         1 UNK         0.0800 
    245 H245       -0.6972  -17.6043  -53.7600 H         1 UNK         0.0800 
    246 H246       -3.6557  -20.0705  -53.3959 H         1 UNK         0.0800 
    247 H247       -2.0005  -20.1176  -53.9402 H         1 UNK         0.0800 
@<TRIPOS>BOND
     1    1    2 1    
     2    1  127 1    
     3    1  128 1    
     4    1  129 1    
     5    2    3 2    
     6    2    4 am   BACKBONE|DICT|INTERRES
     7    4    5 1    
     8    4  130 1    
     9    5    6 1    
    10    5   65 1    
    11    5  131 1    
    12    6    7 1    
    13    6  132 1    
    14    6  133 1    
    15    7    8 1    
    16    8    9 1    
    17    8  134 1    
    18    8  135 1    
    19    9   10 ar   
    20    9   14 ar   
    21   10   11 ar   
    22   10  136 1    
    23   11   12 ar   
    24   11  126 1    
    25   12   13 ar   
    26   12  137 1    
    27   13   14 ar   
    28   13   15 1    
    29   14  138 1    
    30   15   16 1    
    31   15  139 1    
    32   15  140 1    
    33   16   17 1    
    34   17   18 1    
    35   17  141 1    
    36   17  142 1    
    37   18   19 1    
    38   18   67 1    
    39   18  143 1    
    40   19   20 am   BACKBONE|DICT|INTERRES
    41   19  144 1    
    42   20   21 2    
    43   20   22 1    
    44   22   23 1    
    45   22   24 1    
    46   22  145 1    
    47   23  146 1    
    48   23  147 1    
    49   23  148 1    
    50   24   25 am   BACKBONE|DICT|INTERRES
    51   24  149 1    
    52   25   26 2    
    53   25   27 1    
    54   27   28 1    
    55   27   29 1    
    56   27  150 1    
    57   28  151 1    
    58   28  152 1    
    59   28  153 1    
    60   29   30 am   BACKBONE|DICT|INTERRES
    61   29  154 1    
    62   30   31 2    
    63   30   32 1    
    64   32   33 1    
    65   32   34 1    
    66   32  155 1    
    67   33  156 1    
    68   33  157 1    
    69   33  158 1    
    70   34   35 am   BACKBONE|DICT|INTERRES
    71   34  159 1    
    72   35   36 2    
    73   35   37 1    
    74   37   38 1    
    75   37   39 1    
    76   37  160 1    
    77   38  161 1    
    78   38  162 1    
    79   38  163 1    
    80   39   40 am   BACKBONE|DICT|INTERRES
    81   39  164 1    
    82   40   41 2    
    83   40   42 1    
    84   42   43 1    
    85   42   44 1    
    86   42  165 1    
    87   43  166 1    
    88   43  167 1    
    89   43  168 1    
    90   44   45 am   BACKBONE|DICT|INTERRES
    91   44  169 1    
    92   45   46 2    
    93   45   47 1    
    94   47   48 1    
    95   47   49 1    
    96   47  170 1    
    97   48  171 1    
    98   48  172 1    
    99   48  173 1    
   100   49   50 am   BACKBONE|DICT|INTERRES
   101   49  174 1    
   102   50   51 2    
   103   50   52 1    
   104   52   53 1    
   105   52   54 1    
   106   52  175 1    
   107   53  176 1    
   108   53  177 1    
   109   53  178 1    
   110   54   55 am   BACKBONE|DICT|INTERRES
   111   54  179 1    
   112   55   56 2    
   113   55   57 1    
   114   57   58 1    
   115   57   59 1    
   116   57  180 1    
   117   58  181 1    
   118   58  182 1    
   119   58  183 1    
   120   59   60 am   BACKBONE|DICT|INTERRES
   121   59  184 1    
   122   60   61 2    
   123   60   62 1    
   124   62   63 1    
   125   62   64 1    
   126   62  185 1    
   127   63  186 1    
   128   63  187 1    
   129   63  188 1    
   130   64   65 am   BACKBONE|DICT|INTERRES
   131   64  189 1    
   132   65   66 2    
   133   67   68 2    
   134   67   69 am   BACKBONE|DICT|INTERRES
   135   69   70 1    
   136   69  190 1    
   137   70   71 1    
   138   70   72 1    
   139   70  191 1    
   140   71  192 1    
   141   71  193 1    
   142   71  194 1    
   143   72   73 2    
   144   72   74 am   BACKBONE|DICT|INTERRES
   145   74   75 1    
   146   74  195 1    
   147   75   76 1    
   148   75   77 1    
   149   75  196 1    
   150   76  197 1    
   151   76  198 1    
   152   76  199 1    
   153   77   78 2    
   154   77   79 am   BACKBONE|DICT|INTERRES
   155   79   80 1    
   156   79  200 1    
   157   80   81 1    
   158   80   82 1    
   159   80  201 1    
   160   81  202 1    
   161   81  203 1    
   162   81  204 1    
   163   82   83 2    
   164   82   84 am   BACKBONE|DICT|INTERRES
   165   84   85 1    
   166   84  205 1    
   167   85   86 1    
   168   85   87 1    
   169   85  206 1    
   170   86  207 1    
   171   86  208 1    
   172   86  209 1    
   173   87   88 2    
   174   87   89 am   BACKBONE|DICT|INTERRES
   175   89   90 1    
   176   89  210 1    
   177   90   91 1    
   178   90   92 1    
   179   90  211 1    
   180   91  212 1    
   181   91  213 1    
   182   91  214 1    
   183   92   93 2    
   184   92   94 am   BACKBONE|DICT|INTERRES
   185   94   95 1    
   186   94  215 1    
   187   95   96 1    
   188   95   97 1    
   189   95  216 1    
   190   96  217 1    
   191   96  218 1    
   192   96  219 1    
   193   97   98 2    
   194   97   99 am   BACKBONE|DICT|INTERRES
   195   99  100 1    
   196   99  220 1    
   197  100  101 1    
   198  100  102 1    
   199  100  221 1    
   200  101  222 1    
   201  101  223 1    
   202  101  224 1    
   203  102  103 2    
   204  102  104 am   BACKBONE|DICT|INTERRES
   205  104  105 1    
   206  104  225 1    
   207  105  106 1    
   208  105  107 1    
   209  105  226 1    
   210  106  227 1    
   211  106  228 1    
   212  106  229 1    
   213  107  108 2    
   214  107  109 am   BACKBONE|DICT|INTERRES
   215  109  110 1    
   216  109  230 1    
   217  110  111 1    
   218  110  112 1    
   219  110  231 1    
   220  111  232 1    
   221  111  233 1    
   222  111  234 1    
   223  112  113 2    
   224  112  114 am   BACKBONE|DICT|INTERRES
   225  114  115 1    
   226  114  235 1    
   227  115  116 1    
   228  115  117 1    
   229  115  236 1    
   230  116  237 1    
   231  116  238 1    
   232  116  239 1    
   233  117  118 2    
   234  117  119 am   BACKBONE|DICT|INTERRES
   235  119  120 1    
   236  119  240 1    
   237  120  121 1    
   238  120  124 1    
   239  120  241 1    
   240  121  122 am   BACKBONE|DICT|INTERRES
   241  121  123 2    
   242  122  242 1    
   243  122  243 1    
   244  124  125 1    
   245  124  244 1    
   246  124  245 1    
   247  125  126 1    
   248  126  246 1    
   249  126  247 1    
@<TRIPOS>SUBSTRUCTURE
     1 UNK         1 GROUP             0       ****    0 ROOT    
