@<TRIPOS>MOLECULE
3R540
247   249    1
SMALL
USER_CHARGES


@<TRIPOS>ATOM
      1 CA          0.7613  -10.1912  -49.4609 C.3       0 UNK        -0.1800 
      2 C          -0.3455  -11.0913  -50.0070 C.2       0 UNK         0.5000 
      3 O          -1.2037  -10.6134  -50.7456 O.2       0 UNK        -0.5000 
      4 N          -0.3742  -12.3909  -49.6799 N.am      1 UNK        -0.5000 
      5 CA          0.5426  -13.1014  -48.7773 C.3       1 UNK         0.1400 
      6 C6          0.6030  -14.6187  -49.0899 C.3       23 UNK        -0.0398 
      7 S7         -1.0209  -15.4669  -49.0971 S.3       23 UNK        -0.2404 
      8 C8         -1.2451  -15.8763  -50.8598 C.3       23 UNK        -0.0205 
      9 C9         -0.2880  -16.9662  -51.3191 C.ar      23 UNK        -0.0193 
     10 C10         0.8685  -16.6353  -52.0323 C.ar      23 UNK        -0.1150 
     11 C11         1.7577  -17.6304  -52.4455 C.ar      23 UNK        -0.0193 
     12 C12         1.4767  -18.9654  -52.1489 C.ar      23 UNK        -0.1150 
     13 C13         0.3111  -19.3133  -51.4600 C.ar      23 UNK        -0.0193 
     14 C14        -0.5661  -18.3083  -51.0424 C.ar      23 UNK        -0.1150 
     15 C15        -0.0050  -20.7780  -51.1990 C.3       23 UNK        -0.0205 
     16 S16         1.2730  -21.5750  -50.1779 S.3       23 UNK        -0.2404 
     17 C17         0.8286  -21.0049  -48.5025 C.3       23 UNK        -0.0398 
     18 CA          0.2875  -22.1733  -47.6452 C.3       11 UNK         0.1400 
     19 N           0.5570  -22.0050  -46.2170 N.am      11 UNK        -0.5000 
     20 C           0.4592  -22.9952  -45.3185 C.2       10 UNK         0.5000 
     21 O           0.1535  -24.1526  -45.6090 O.2       10 UNK        -0.5000 
     22 CA          0.6973  -22.6217  -43.8447 C.3       10 UNK         0.1400 
     23 CB          2.1982  -22.4948  -43.5447 C.3       10 UNK        -0.1800 
     24 N           0.0076  -21.3891  -43.4623 N.am      10 UNK        -0.5000 
     25 C          -1.3254  -21.2431  -43.4644 C.2       9 UNK         0.5000 
     26 O          -2.1113  -22.1477  -43.7474 O.2       9 UNK        -0.5000 
     27 CA         -1.8740  -19.8438  -43.1355 C.3       9 UNK         0.1400 
     28 CB         -1.8924  -19.6120  -41.6175 C.3       9 UNK        -0.1800 
     29 N          -1.1271  -18.7694  -43.7910 N.am      9 UNK        -0.5000 
     30 C          -1.0308  -18.6054  -45.1189 C.2       8 UNK         0.5000 
     31 O          -1.5795  -19.3351  -45.9414 O.2       8 UNK        -0.5000 
     32 CA         -0.1201  -17.4712  -45.6158 C.3       8 UNK         0.1400 
     33 CB         -0.7968  -16.1069  -45.4274 C.3       8 UNK        -0.1800 
     34 N           1.1793  -17.4762  -44.9465 N.am      8 UNK        -0.5000 
     35 C           2.0559  -18.4899  -44.9815 C.2       7 UNK         0.5000 
     36 O           1.8903  -19.5205  -45.6335 O.2       7 UNK        -0.5000 
     37 CA          3.3019  -18.3503  -44.0932 C.3       7 UNK         0.1400 
     38 CB          4.3849  -17.5142  -44.7916 C.3       7 UNK        -0.1800 
     39 N           2.9738  -17.7571  -42.7971 N.am      7 UNK        -0.5000 
     40 C           2.2848  -18.3840  -41.8334 C.2       6 UNK         0.5000 
     41 O           1.8837  -19.5448  -41.9237 O.2       6 UNK        -0.5000 
     42 CA          1.9580  -17.5608  -40.5735 C.3       6 UNK         0.1400 
     43 CB          3.1602  -17.5283  -39.6180 C.3       6 UNK        -0.1800 
     44 N           1.5457  -16.1904  -40.8848 N.am      6 UNK        -0.5000 
     45 C           0.4070  -15.8757  -41.5173 C.2       5 UNK         0.5000 
     46 O          -0.4217  -16.7085  -41.8820 O.2       5 UNK        -0.5000 
     47 CA          0.1647  -14.3872  -41.8302 C.3       5 UNK         0.1400 
     48 CB         -0.5009  -13.6904  -40.6345 C.3       5 UNK        -0.1800 
     49 N           1.3552  -13.6291  -42.2281 N.am      5 UNK        -0.5000 
     50 C           2.2037  -13.9549  -43.2128 C.2       4 UNK         0.5000 
     51 O           2.1638  -15.0220  -43.8257 O.2       4 UNK        -0.5000 
     52 CA          3.2176  -12.8700  -43.6068 C.3       4 UNK         0.1400 
     53 CB          4.2851  -13.3838  -44.5894 C.3       4 UNK        -0.1800 
     54 N           2.4657  -11.7965  -44.2451 N.am      4 UNK        -0.5000 
     55 C           2.2209  -10.5886  -43.7213 C.2       3 UNK         0.5000 
     56 O           2.7197  -10.1852  -42.6703 O.2       3 UNK        -0.5000 
     57 CA          1.2186   -9.6910  -44.4794 C.3       3 UNK         0.1400 
     58 CB          1.9586   -8.7597  -45.4516 C.3       3 UNK        -0.1800 
     59 N           0.2134  -10.4530  -45.2251 N.am      3 UNK        -0.5000 
     60 C          -0.7020  -11.2648  -44.6773 C.2       2 UNK         0.5000 
     61 O          -0.8924  -11.3519  -43.4643 O.2       2 UNK        -0.5000 
     62 CA         -1.5271  -12.1532  -45.6323 C.3       2 UNK         0.1400 
     63 CB         -2.9570  -11.6085  -45.7680 C.3       2 UNK        -0.1800 
     64 N          -0.9698  -12.3454  -46.9781 N.am      2 UNK        -0.5000 
     65 C           0.2359  -12.8491  -47.2855 C.2       1 UNK         0.5000 
     66 O           1.1050  -13.0925  -46.4502 O.2       1 UNK        -0.5000 
     67 C          -1.2016  -22.4598  -47.9230 C.2       11 UNK         0.5000 
     68 O          -1.4999  -23.3142  -48.7543 O.2       11 UNK        -0.5000 
     69 N          -2.1115  -21.7942  -47.1962 N.am      12 UNK        -0.5000 
     70 CA         -3.5512  -22.0504  -47.2419 C.3       12 UNK         0.1400 
     71 CB         -4.3068  -21.0210  -46.3898 C.3       12 UNK        -0.1800 
     72 C          -3.9087  -23.4818  -46.8147 C.2       12 UNK         0.5000 
     73 O          -4.7022  -24.1266  -47.4976 O.2       12 UNK        -0.5000 
     74 N          -3.2867  -23.9708  -45.7329 N.am      13 UNK        -0.5000 
     75 CA         -3.4224  -25.3483  -45.2585 C.3       13 UNK         0.1400 
     76 CB         -2.7138  -25.5056  -43.9048 C.3       13 UNK        -0.1800 
     77 C          -2.9058  -26.3776  -46.2811 C.2       13 UNK         0.5000 
     78 O          -3.6016  -27.3556  -46.5574 O.2       13 UNK        -0.5000 
     79 N          -1.7268  -26.1140  -46.8643 N.am      14 UNK        -0.5000 
     80 CA         -1.1200  -26.9283  -47.9224 C.3       14 UNK         0.1400 
     81 CB          0.3005  -26.4186  -48.2084 C.3       14 UNK        -0.1800 
     82 C          -1.9578  -26.9640  -49.2168 C.2       14 UNK         0.5000 
     83 O          -2.0544  -28.0136  -49.8530 O.2       14 UNK        -0.5000 
     84 N          -2.5789  -25.8280  -49.5572 N.am      15 UNK        -0.5000 
     85 CA         -3.4861  -25.6513  -50.6918 C.3       15 UNK         0.1400 
     86 CB         -3.4781  -24.1670  -51.0971 C.3       15 UNK        -0.1800 
     87 C          -4.9258  -26.1404  -50.4213 C.2       15 UNK         0.5000 
     88 O          -5.7897  -25.9341  -51.2735 O.2       15 UNK        -0.5000 
     89 N          -5.1791  -26.7510  -49.2533 N.am      16 UNK        -0.5000 
     90 CA         -6.4644  -27.2997  -48.8039 C.3       16 UNK         0.1400 
     91 CB         -6.8583  -28.5273  -49.6517 C.3       16 UNK        -0.1800 
     92 C          -7.5785  -26.2335  -48.7229 C.2       16 UNK         0.5000 
     93 O          -8.7042  -26.4691  -49.1646 O.2       16 UNK        -0.5000 
     94 N          -7.2188  -25.0705  -48.1642 N.am      17 UNK        -0.5000 
     95 CA         -8.0275  -23.8710  -47.9281 C.3       17 UNK         0.1400 
     96 CB         -9.3029  -24.1866  -47.1189 C.3       17 UNK        -0.1800 
     97 C          -8.3190  -23.0314  -49.1880 C.2       17 UNK         0.5000 
     98 O          -9.0225  -22.0261  -49.0772 O.2       17 UNK        -0.5000 
     99 N          -7.7631  -23.4080  -50.3506 N.am      18 UNK        -0.5000 
    100 CA        -7.8735  -22.6303  -51.5888 C.3       18 UNK         0.1400 
    101 CB        -7.4834  -23.5029  -52.7912 C.3       18 UNK        -0.1800 
    102 C         -7.0186  -21.3495  -51.5496 C.2       18 UNK         0.5000 
    103 O         -7.4653  -20.3093  -52.0336 O.2       18 UNK        -0.5000 
    104 N         -5.8142  -21.4604  -50.9629 N.am      19 UNK        -0.5000 
    105 CA        -4.8225  -20.3964  -50.7414 C.3       19 UNK         0.1400 
    106 CB        -5.3190  -19.4352  -49.6426 C.3       19 UNK        -0.1800 
    107 C         -4.3931  -19.6551  -52.0274 C.2       19 UNK         0.5000 
    108 O         -4.1366  -18.4505  -51.9900 O.2       19 UNK        -0.5000 
    109 N         -4.3443  -20.3876  -53.1479 N.am      20 UNK        -0.5000 
    110 CA        -4.0203  -19.8648  -54.4719 C.3       20 UNK         0.1400 
    111 CB        -4.3514  -20.9328  -55.5260 C.3       20 UNK        -0.1800 
    112 C         -2.5459  -19.4395  -54.5703 C.2       20 UNK         0.5000 
    113 O         -1.6610  -20.2610  -54.3183 O.2       20 UNK        -0.5000 
    114 N         -2.3183  -18.1791  -54.9562 N.am      21 UNK        -0.5000 
    115 CA        -1.0000  -17.6110  -55.2198 C.3       21 UNK         0.1400 
    116 CB        -1.1059  -16.0771  -55.1872 C.3       21 UNK        -0.1800 
    117 C         -0.4880  -18.1060  -56.5935 C.2       21 UNK         0.5000 
    118 O         -1.0884  -17.7315  -57.6015 O.2       21 UNK        -0.5000 
    119 N          0.5639  -18.9281  -56.6986 N.am      22 UNK        -0.5000 
    120 CA         1.3404  -19.5853  -55.6398 C.3       22 UNK         0.1400 
    121 C          1.3881  -21.1027  -55.9430 C.2       22 UNK         0.5000 
    122 N          0.3861  -21.8501  -55.5023 N.am      22 UNK        -0.7600 
    123 O          2.3110  -21.6022  -56.5815 O.2       22 UNK        -0.5000 
    124 C124        2.7530  -18.9661  -55.4675 C.3       23 UNK        -0.0398 
    125 S125        2.7246  -17.1978  -55.0071 S.3       23 UNK        -0.2404 
    126 C126        3.0184  -17.2606  -53.2112 C.3       23 UNK        -0.0205 
    127 H127        0.6302   -9.1687  -49.8160 H         1 UNK         0.0600 
    128 H128        0.7497  -10.1651  -48.3724 H         1 UNK         0.0600 
    129 H129        1.7401  -10.5335  -49.7963 H         1 UNK         0.0600 
    130 H130       -1.1157  -12.9638  -50.0573 H         1 UNK         0.3000 
    131 H131        1.5499  -12.7160  -48.9440 H         1 UNK         0.0600 
    132 H132        1.2515  -15.1335  -48.3780 H         1 UNK         0.0800 
    133 H133        1.0860  -14.7521  -50.0561 H         1 UNK         0.0800 
    134 H134       -2.2717  -16.2128  -51.0155 H         1 UNK         0.0800 
    135 H135       -1.1256  -14.9767  -51.4653 H         1 UNK         0.0800 
    136 H136        1.0795  -15.6019  -52.2683 H         1 UNK         0.1150 
    137 H137        2.1581  -19.7414  -52.4675 H         1 UNK         0.1150 
    138 H138       -1.4693  -18.5658  -50.5071 H         1 UNK         0.1150 
    139 H139       -0.9827  -20.8985  -50.7298 H         1 UNK         0.0800 
    140 H140       -0.0617  -21.2962  -52.1574 H         1 UNK         0.0800 
    141 H141        0.1325  -20.1645  -48.5377 H         1 UNK         0.0800 
    142 H142        1.7455  -20.6116  -48.0624 H         1 UNK         0.0800 
    143 H143        0.8352  -23.0726  -47.9361 H         1 UNK         0.0600 
    144 H144        0.8496  -21.0804  -45.9101 H         1 UNK         0.3000 
    145 H145        0.2975  -23.4310  -43.2301 H         1 UNK         0.0600 
    146 H146        2.3731  -22.3086  -42.4850 H         1 UNK         0.0600 
    147 H147        2.7272  -23.4121  -43.8058 H         1 UNK         0.0600 
    148 H148        2.6556  -21.6803  -44.1065 H         1 UNK         0.0600 
    149 H149        0.5892  -20.6081  -43.1788 H         1 UNK         0.3000 
    150 H150       -2.9032  -19.7986  -43.4967 H         1 UNK         0.0600 
    151 H151       -2.4434  -20.4028  -41.1069 H         1 UNK         0.0600 
    152 H152       -2.3766  -18.6672  -41.3700 H         1 UNK         0.0600 
    153 H153       -0.8847  -19.5899  -41.2011 H         1 UNK         0.0600 
    154 H154       -0.6749  -18.0962  -43.1780 H         1 UNK         0.3000 
    155 H155        0.0575  -17.6204  -46.6831 H         1 UNK         0.0600 
    156 H156       -1.7087  -16.0387  -46.0215 H         1 UNK         0.0600 
    157 H157       -0.1382  -15.3012  -45.7438 H         1 UNK         0.0600 
    158 H158       -1.0684  -15.9260  -44.3885 H         1 UNK         0.0600 
    159 H159        1.4295  -16.6420  -44.4207 H         1 UNK         0.3000 
    160 H160        3.7056  -19.3500  -43.9200 H         1 UNK         0.0600 
    161 H161        5.2788  -17.4298  -44.1736 H         1 UNK         0.0600 
    162 H162        4.0373  -16.5065  -45.0193 H         1 UNK         0.0600 
    163 H163        4.6829  -17.9762  -45.7336 H         1 UNK         0.0600 
    164 H164        3.1834  -16.7752  -42.6848 H         1 UNK         0.3000 
    165 H165        1.1303  -18.0556  -40.0607 H         1 UNK         0.0600 
    166 H166        2.9103  -17.0178  -38.6878 H         1 UNK         0.0600 
    167 H167        3.4784  -18.5387  -39.3577 H         1 UNK         0.0600 
    168 H168        4.0161  -17.0184  -40.0619 H         1 UNK         0.0600 
    169 H169        2.1770  -15.4467  -40.6258 H         1 UNK         0.3000 
    170 H170       -0.5301  -14.3429  -42.6706 H         1 UNK         0.0600 
    171 H171       -1.4052  -14.2177  -40.3277 H         1 UNK         0.0600 
    172 H172        0.1646  -13.6480  -39.7715 H         1 UNK         0.0600 
    173 H173       -0.7921  -12.6701  -40.8854 H         1 UNK         0.0600 
    174 H174        1.4550  -12.7173  -41.8053 H         1 UNK         0.3000 
    175 H175        3.7186  -12.5240  -42.7006 H         1 UNK         0.0600 
    176 H176        4.9908  -12.5947  -44.8489 H         1 UNK         0.0600 
    177 H177        4.8572  -14.2021  -44.1510 H         1 UNK         0.0600 
    178 H178        3.8397  -13.7502  -45.5156 H         1 UNK         0.0600 
    179 H179        1.9617  -12.0771  -45.0831 H         1 UNK         0.3000 
    180 H180        0.6982   -9.0774  -43.7411 H         1 UNK         0.0600 
    181 H181        2.4832   -9.3208  -46.2261 H         1 UNK         0.0600 
    182 H182        2.6989   -8.1553  -44.9256 H         1 UNK         0.0600 
    183 H183        1.2693   -8.0724  -45.9425 H         1 UNK         0.0600 
    184 H184        0.2916  -10.4429  -46.2299 H         1 UNK         0.3000 
    185 H185       -1.5833  -13.1392  -45.1671 H         1 UNK         0.0600 
    186 H186       -3.5871  -12.2903  -46.3396 H         1 UNK         0.0600 
    187 H187       -3.4242  -11.4819  -44.7903 H         1 UNK         0.0600 
    188 H188       -2.9705  -10.6386  -46.2667 H         1 UNK         0.0600 
    189 H189       -1.6020  -12.1646  -47.7446 H         1 UNK         0.3000 
    190 H190       -1.8042  -21.0521  -46.5710 H         1 UNK         0.3000 
    191 H191       -3.8734  -21.9312  -48.2763 H         1 UNK         0.0600 
    192 H192       -4.0160  -21.0725  -45.3412 H         1 UNK         0.0600 
    193 H193       -5.3836  -21.1878  -46.4399 H         1 UNK         0.0600 
    194 H194       -4.1186  -20.0057  -46.7387 H         1 UNK         0.0600 
    195 H195       -2.6804  -23.3584  -45.1947 H         1 UNK         0.3000 
    196 H196       -4.4863  -25.5410  -45.1053 H         1 UNK         0.0600 
    197 H197       -1.6469  -25.2954  -43.9783 H         1 UNK         0.0600 
    198 H198       -2.8234  -26.5212  -43.5225 H         1 UNK         0.0600 
    199 H199       -3.1351  -24.8300  -43.1602 H         1 UNK         0.0600 
    200 H200       -1.2010  -25.3017  -46.5557 H         1 UNK         0.3000 
    201 H201       -1.0445  -27.9516  -47.5492 H         1 UNK         0.0600 
    202 H202        0.2928  -25.3962  -48.5863 H         1 UNK         0.0600 
    203 H203        0.7950  -27.0404  -48.9557 H         1 UNK         0.0600 
    204 H204        0.9160  -26.4382  -47.3088 H         1 UNK         0.0600 
    205 H205       -2.3792  -24.9908  -49.0160 H         1 UNK         0.3000 
    206 H206       -3.1067  -26.2317  -51.5350 H         1 UNK         0.0600 
    207 H207       -2.4694  -23.8308  -51.3389 H         1 UNK         0.0600 
    208 H208       -4.0938  -23.9904  -51.9792 H         1 UNK         0.0600 
    209 H209       -3.8545  -23.5366  -50.2920 H         1 UNK         0.0600 
    210 H210       -4.4181  -26.8362  -48.5910 H         1 UNK         0.3000 
    211 H211       -6.3040  -27.6462  -47.7820 H         1 UNK         0.0600 
    212 H212       -7.0804  -28.2543  -50.6837 H         1 UNK         0.0600 
    213 H213       -7.7450  -29.0146  -49.2446 H         1 UNK         0.0600 
    214 H214       -6.0593  -29.2685  -49.6653 H         1 UNK         0.0600 
    215 H215       -6.2408  -24.9584  -47.8974 H         1 UNK         0.3000 
    216 H216       -7.4049  -23.2332  -47.2991 H         1 UNK         0.0600 
    217 H217       -9.0721  -24.7730  -46.2296 H         1 UNK         0.0600 
    218 H218       -9.7882  -23.2695  -46.7833 H         1 UNK         0.0600 
    219 H219      -10.0341  -24.7399  -47.7084 H         1 UNK         0.0600 
    220 H220       -7.2263  -24.2649  -50.3867 H         1 UNK         0.3000 
    221 H221       -8.9170  -22.3339  -51.7164 H         1 UNK         0.0600 
    222 H222       -6.4347  -23.7973  -52.7569 H         1 UNK         0.0600 
    223 H223       -8.0847  -24.4114  -52.8320 H         1 UNK         0.0600 
    224 H224       -7.6400  -22.9660  -53.7276 H         1 UNK         0.0600 
    225 H225       -5.5678  -22.3694  -50.6017 H         1 UNK         0.3000 
    226 H226       -3.9212  -20.8865  -50.3720 H         1 UNK         0.0600 
    227 H227       -5.6516  -19.9802  -48.7601 H         1 UNK         0.0600 
    228 H228       -4.5262  -18.7555  -49.3276 H         1 UNK         0.0600 
    229 H229       -6.1555  -18.8276  -49.9898 H         1 UNK         0.0600 
    230 H230       -4.5478  -21.3734  -53.0897 H         1 UNK         0.3000 
    231 H231       -4.6571  -18.9970  -54.6571 H         1 UNK         0.0600 
    232 H232       -5.4076  -21.2015  -55.4977 H         1 UNK         0.0600 
    233 H233       -3.7689  -21.8428  -55.3752 H         1 UNK         0.0600 
    234 H234       -4.1354  -20.5682  -56.5311 H         1 UNK         0.0600 
    235 H235       -3.1055  -17.5821  -55.1627 H         1 UNK         0.3000 
    236 H236       -0.3360  -17.8786  -54.4038 H         1 UNK         0.0600 
    237 H237       -0.1330  -15.6195  -55.3704 H         1 UNK         0.0600 
    238 H238       -1.7967  -15.6971  -55.9408 H         1 UNK         0.0600 
    239 H239       -1.4481  -15.7286  -54.2124 H         1 UNK         0.0600 
    240 H240        0.8243  -19.2277  -57.6267 H         1 UNK         0.3000 
    241 H241        0.8411  -19.5198  -54.6797 H         1 UNK         0.0600 
    242 H242        0.3794  -22.8405  -55.6865 H         1 UNK         0.3800 
    243 H243       -0.3950  -21.4173  -55.0117 H         1 UNK         0.3800 
    244 H244        3.3239  -19.5225  -54.7227 H         1 UNK         0.0800 
    245 H245        3.3160  -19.0531  -56.3982 H         1 UNK         0.0800 
    246 H246        3.3694  -16.2813  -52.8823 H         1 UNK         0.0800 
    247 H247        3.8256  -17.9588  -52.9848 H         1 UNK         0.0800 
@<TRIPOS>BOND
     1    1    2 1    
     2    1  127 1    
     3    1  128 1    
     4    1  129 1    
     5    2    3 2    
     6    2    4 am   BACKBONE|DICT|INTERRES
     7    4    5 1    
     8    4  130 1    
     9    5    6 1    
    10    5   65 1    
    11    5  131 1    
    12    6    7 1    
    13    6  132 1    
    14    6  133 1    
    15    7    8 1    
    16    8    9 1    
    17    8  134 1    
    18    8  135 1    
    19    9   10 ar   
    20    9   14 ar   
    21   10   11 ar   
    22   10  136 1    
    23   11   12 ar   
    24   11  126 1    
    25   12   13 ar   
    26   12  137 1    
    27   13   14 ar   
    28   13   15 1    
    29   14  138 1    
    30   15   16 1    
    31   15  139 1    
    32   15  140 1    
    33   16   17 1    
    34   17   18 1    
    35   17  141 1    
    36   17  142 1    
    37   18   19 1    
    38   18   67 1    
    39   18  143 1    
    40   19   20 am   BACKBONE|DICT|INTERRES
    41   19  144 1    
    42   20   21 2    
    43   20   22 1    
    44   22   23 1    
    45   22   24 1    
    46   22  145 1    
    47   23  146 1    
    48   23  147 1    
    49   23  148 1    
    50   24   25 am   BACKBONE|DICT|INTERRES
    51   24  149 1    
    52   25   26 2    
    53   25   27 1    
    54   27   28 1    
    55   27   29 1    
    56   27  150 1    
    57   28  151 1    
    58   28  152 1    
    59   28  153 1    
    60   29   30 am   BACKBONE|DICT|INTERRES
    61   29  154 1    
    62   30   31 2    
    63   30   32 1    
    64   32   33 1    
    65   32   34 1    
    66   32  155 1    
    67   33  156 1    
    68   33  157 1    
    69   33  158 1    
    70   34   35 am   BACKBONE|DICT|INTERRES
    71   34  159 1    
    72   35   36 2    
    73   35   37 1    
    74   37   38 1    
    75   37   39 1    
    76   37  160 1    
    77   38  161 1    
    78   38  162 1    
    79   38  163 1    
    80   39   40 am   BACKBONE|DICT|INTERRES
    81   39  164 1    
    82   40   41 2    
    83   40   42 1    
    84   42   43 1    
    85   42   44 1    
    86   42  165 1    
    87   43  166 1    
    88   43  167 1    
    89   43  168 1    
    90   44   45 am   BACKBONE|DICT|INTERRES
    91   44  169 1    
    92   45   46 2    
    93   45   47 1    
    94   47   48 1    
    95   47   49 1    
    96   47  170 1    
    97   48  171 1    
    98   48  172 1    
    99   48  173 1    
   100   49   50 am   BACKBONE|DICT|INTERRES
   101   49  174 1    
   102   50   51 2    
   103   50   52 1    
   104   52   53 1    
   105   52   54 1    
   106   52  175 1    
   107   53  176 1    
   108   53  177 1    
   109   53  178 1    
   110   54   55 am   BACKBONE|DICT|INTERRES
   111   54  179 1    
   112   55   56 2    
   113   55   57 1    
   114   57   58 1    
   115   57   59 1    
   116   57  180 1    
   117   58  181 1    
   118   58  182 1    
   119   58  183 1    
   120   59   60 am   BACKBONE|DICT|INTERRES
   121   59  184 1    
   122   60   61 2    
   123   60   62 1    
   124   62   63 1    
   125   62   64 1    
   126   62  185 1    
   127   63  186 1    
   128   63  187 1    
   129   63  188 1    
   130   64   65 am   BACKBONE|DICT|INTERRES
   131   64  189 1    
   132   65   66 2    
   133   67   68 2    
   134   67   69 am   BACKBONE|DICT|INTERRES
   135   69   70 1    
   136   69  190 1    
   137   70   71 1    
   138   70   72 1    
   139   70  191 1    
   140   71  192 1    
   141   71  193 1    
   142   71  194 1    
   143   72   73 2    
   144   72   74 am   BACKBONE|DICT|INTERRES
   145   74   75 1    
   146   74  195 1    
   147   75   76 1    
   148   75   77 1    
   149   75  196 1    
   150   76  197 1    
   151   76  198 1    
   152   76  199 1    
   153   77   78 2    
   154   77   79 am   BACKBONE|DICT|INTERRES
   155   79   80 1    
   156   79  200 1    
   157   80   81 1    
   158   80   82 1    
   159   80  201 1    
   160   81  202 1    
   161   81  203 1    
   162   81  204 1    
   163   82   83 2    
   164   82   84 am   BACKBONE|DICT|INTERRES
   165   84   85 1    
   166   84  205 1    
   167   85   86 1    
   168   85   87 1    
   169   85  206 1    
   170   86  207 1    
   171   86  208 1    
   172   86  209 1    
   173   87   88 2    
   174   87   89 am   BACKBONE|DICT|INTERRES
   175   89   90 1    
   176   89  210 1    
   177   90   91 1    
   178   90   92 1    
   179   90  211 1    
   180   91  212 1    
   181   91  213 1    
   182   91  214 1    
   183   92   93 2    
   184   92   94 am   BACKBONE|DICT|INTERRES
   185   94   95 1    
   186   94  215 1    
   187   95   96 1    
   188   95   97 1    
   189   95  216 1    
   190   96  217 1    
   191   96  218 1    
   192   96  219 1    
   193   97   98 2    
   194   97   99 am   BACKBONE|DICT|INTERRES
   195   99  100 1    
   196   99  220 1    
   197  100  101 1    
   198  100  102 1    
   199  100  221 1    
   200  101  222 1    
   201  101  223 1    
   202  101  224 1    
   203  102  103 2    
   204  102  104 am   BACKBONE|DICT|INTERRES
   205  104  105 1    
   206  104  225 1    
   207  105  106 1    
   208  105  107 1    
   209  105  226 1    
   210  106  227 1    
   211  106  228 1    
   212  106  229 1    
   213  107  108 2    
   214  107  109 am   BACKBONE|DICT|INTERRES
   215  109  110 1    
   216  109  230 1    
   217  110  111 1    
   218  110  112 1    
   219  110  231 1    
   220  111  232 1    
   221  111  233 1    
   222  111  234 1    
   223  112  113 2    
   224  112  114 am   BACKBONE|DICT|INTERRES
   225  114  115 1    
   226  114  235 1    
   227  115  116 1    
   228  115  117 1    
   229  115  236 1    
   230  116  237 1    
   231  116  238 1    
   232  116  239 1    
   233  117  118 2    
   234  117  119 am   BACKBONE|DICT|INTERRES
   235  119  120 1    
   236  119  240 1    
   237  120  121 1    
   238  120  124 1    
   239  120  241 1    
   240  121  122 am   BACKBONE|DICT|INTERRES
   241  121  123 2    
   242  122  242 1    
   243  122  243 1    
   244  124  125 1    
   245  124  244 1    
   246  124  245 1    
   247  125  126 1    
   248  126  246 1    
   249  126  247 1    
@<TRIPOS>SUBSTRUCTURE
     1 UNK         1 GROUP             0       ****    0 ROOT    
