@<TRIPOS>MOLECULE
3R540
247   249    1
SMALL
USER_CHARGES


@<TRIPOS>ATOM
      1 CA          6.9989  -15.5680  -48.4976 C.3       0 UNK        -0.1800 
      2 C           5.8766  -14.9611  -47.6701 C.2       0 UNK         0.5000 
      3 O           5.6962  -15.3360  -46.5116 O.2       0 UNK        -0.5000 
      4 N           5.1321  -14.0081  -48.2457 N.am      1 UNK        -0.5000 
      5 CA          3.9555  -13.3603  -47.6426 C.3       1 UNK         0.1400 
      6 C6          3.1218  -12.5671  -48.6796 C.3       23 UNK        -0.0398 
      7 S7          2.6118  -13.5977  -50.0959 S.3       23 UNK        -0.2404 
      8 C8          1.0942  -14.3475  -49.4327 C.3       23 UNK        -0.0205 
      9 C9          0.7085  -15.5863  -50.2223 C.ar      23 UNK        -0.0193 
     10 C10        -0.2722  -15.5228  -51.2158 C.ar      23 UNK        -0.1150 
     11 C11        -0.6124  -16.6627  -51.9508 C.ar      23 UNK        -0.0193 
     12 C12         0.0506  -17.8676  -51.6936 C.ar      23 UNK        -0.1150 
     13 C13         1.0191  -17.9498  -50.6853 C.ar      23 UNK        -0.0193 
     14 C14         1.3388  -16.8036  -49.9530 C.ar      23 UNK        -0.1150 
     15 C15         1.7605  -19.2532  -50.4002 C.3       23 UNK        -0.0205 
     16 S16         0.6688  -20.7040  -50.2397 S.3       23 UNK        -0.2404 
     17 C17        -0.3648  -20.2687  -48.7988 C.3       23 UNK        -0.0398 
     18 CA         -0.2485  -21.2986  -47.6522 C.3       11 UNK         0.1400 
     19 N          -0.5811  -20.6941  -46.3614 N.am      11 UNK        -0.5000 
     20 C          -0.1050  -21.1314  -45.1897 C.2       10 UNK         0.5000 
     21 O           0.6581  -22.0909  -45.0799 O.2       10 UNK        -0.5000 
     22 CA         -0.5660  -20.3830  -43.9279 C.3       10 UNK         0.1400 
     23 CB          0.2417  -19.0890  -43.7416 C.3       10 UNK        -0.1800 
     24 N          -1.9933  -20.0625  -43.9103 N.am      10 UNK        -0.5000 
     25 C          -2.9880  -20.9600  -43.8944 C.2       9 UNK         0.5000 
     26 O          -2.8175  -22.1695  -44.0320 O.2       9 UNK        -0.5000 
     27 CA         -4.4103  -20.4146  -43.7002 C.3       9 UNK         0.1400 
     28 CB         -4.6094  -19.9059  -42.2633 C.3       9 UNK        -0.1800 
     29 N          -4.6651  -19.3272  -44.6381 N.am      9 UNK        -0.5000 
     30 C          -5.3776  -19.4448  -45.7657 C.2       8 UNK         0.5000 
     31 O          -5.9993  -20.4592  -46.0793 O.2       8 UNK        -0.5000 
     32 CA         -5.4018  -18.2294  -46.7144 C.3       8 UNK         0.1400 
     33 CB         -6.7038  -17.4347  -46.5362 C.3       8 UNK        -0.1800 
     34 N          -4.2658  -17.3200  -46.5605 N.am      8 UNK        -0.5000 
     35 C          -2.9820  -17.6438  -46.7669 C.2       7 UNK         0.5000 
     36 O          -2.5890  -18.7690  -47.0740 O.2       7 UNK        -0.5000 
     37 CA         -1.9551  -16.5291  -46.5123 C.3       7 UNK         0.1400 
     38 CB         -1.8693  -15.6097  -47.7375 C.3       7 UNK        -0.1800 
     39 N          -2.2118  -15.7136  -45.3193 N.am      7 UNK        -0.5000 
     40 C          -2.4587  -16.1572  -44.0781 C.2       6 UNK         0.5000 
     41 O          -2.6363  -17.3433  -43.7967 O.2       6 UNK        -0.5000 
     42 CA         -2.4440  -15.0949  -42.9639 C.3       6 UNK         0.1400 
     43 CB         -2.7555  -15.6876  -41.5776 C.3       6 UNK        -0.1800 
     44 N          -1.1243  -14.4686  -42.9252 N.am      6 UNK        -0.5000 
     45 C          -0.7670  -13.3735  -43.6078 C.2       5 UNK         0.5000 
     46 O          -1.5533  -12.6882  -44.2622 O.2       5 UNK        -0.5000 
     47 CA          0.7338  -13.0332  -43.6109 C.3       5 UNK         0.1400 
     48 CB          1.1163  -12.2090  -42.3729 C.3       5 UNK        -0.1800 
     49 N           1.5787  -14.2279  -43.6765 N.am      5 UNK        -0.5000 
     50 C           1.6631  -15.0504  -44.7306 C.2       4 UNK         0.5000 
     51 O           1.0228  -14.8902  -45.7696 O.2       4 UNK        -0.5000 
     52 CA          2.6483  -16.2297  -44.6022 C.3       4 UNK         0.1400 
     53 CB          2.7075  -17.0965  -45.8751 C.3       4 UNK        -0.1800 
     54 N           3.9980  -15.7636  -44.2831 N.am      4 UNK        -0.5000 
     55 C           4.4407  -15.4235  -43.0648 C.2       3 UNK         0.5000 
     56 O           3.7441  -15.4739  -42.0503 O.2       3 UNK        -0.5000 
     57 CA          5.8782  -14.8891  -42.9794 C.3       3 UNK         0.1400 
     58 CB          6.9000  -16.0144  -43.2085 C.3       3 UNK        -0.1800 
     59 N           6.0790  -13.8370  -43.9732 N.am      3 UNK        -0.5000 
     60 C           5.9597  -12.5234  -43.7321 C.2       2 UNK         0.5000 
     61 O           5.7592  -12.0463  -42.6147 O.2       2 UNK        -0.5000 
     62 CA          6.0683  -11.5791  -44.9477 C.3       2 UNK         0.1400 
     63 CB          7.5242  -11.1379  -45.1606 C.3       2 UNK        -0.1800 
     64 N           5.5688  -12.1929  -46.1788 N.am      2 UNK        -0.5000 
     65 C           4.2811  -12.4844  -46.4115 C.2       1 UNK         0.5000 
     66 O           3.3651  -12.1118  -45.6797 O.2       1 UNK        -0.5000 
     67 C          -1.0913  -22.5698  -47.8991 C.2       11 UNK         0.5000 
     68 O          -0.5886  -23.5342  -48.4768 O.2       11 UNK        -0.5000 
     69 N          -2.3320  -22.5927  -47.3886 N.am      12 UNK        -0.5000 
     70 CA         -3.1984  -23.7736  -47.4055 C.3       12 UNK         0.1400 
     71 CB         -4.6181  -23.3845  -46.9733 C.3       12 UNK        -0.1800 
     72 C          -2.6379  -24.9182  -46.5383 C.2       12 UNK         0.5000 
     73 O          -2.6636  -26.0724  -46.9652 O.2       12 UNK        -0.5000 
     74 N          -2.0707  -24.5740  -45.3722 N.am      13 UNK        -0.5000 
     75 CA         -1.3439  -25.4852  -44.4824 C.3       13 UNK         0.1400 
     76 CB         -1.0588  -24.7760  -43.1501 C.3       13 UNK        -0.1800 
     77 C          -0.0379  -26.0327  -45.0944 C.2       13 UNK         0.5000 
     78 O           0.3998  -27.1169  -44.7091 O.2       13 UNK        -0.5000 
     79 N           0.5343  -25.3063  -46.0654 N.am      14 UNK        -0.5000 
     80 CA          1.6657  -25.7359  -46.8925 C.3       14 UNK         0.1400 
     81 CB          2.4645  -24.4996  -47.3414 C.3       14 UNK        -0.1800 
     82 C           1.2329  -26.6090  -48.0944 C.2       14 UNK         0.5000 
     83 O           2.0665  -26.9106  -48.9491 O.2       14 UNK        -0.5000 
     84 N          -0.0479  -27.0087  -48.1311 N.am      15 UNK        -0.5000 
     85 CA         -0.7041  -27.9063  -49.0859 C.3       15 UNK         0.1400 
     86 CB          0.0221  -29.2642  -49.1924 C.3       15 UNK        -0.1800 
     87 C          -1.0022  -27.2765  -50.4598 C.2       15 UNK         0.5000 
     88 O          -1.3735  -28.0033  -51.3838 O.2       15 UNK        -0.5000 
     89 N          -0.8980  -25.9459  -50.5790 N.am      16 UNK        -0.5000 
     90 CA         -1.3431  -25.1991  -51.7527 C.3       16 UNK         0.1400 
     91 CB         -0.4853  -23.9335  -51.9120 C.3       16 UNK        -0.1800 
     92 C          -2.8388  -24.8825  -51.5899 C.2       16 UNK         0.5000 
     93 O          -3.1934  -23.8056  -51.1135 O.2       16 UNK        -0.5000 
     94 N          -3.6977  -25.8463  -51.9478 N.am      17 UNK        -0.5000 
     95 CA         -5.1525  -25.7890  -51.7600 C.3       17 UNK         0.1400 
     96 CB         -5.7738  -27.1138  -52.2261 C.3       17 UNK        -0.1800 
     97 C          -5.8380  -24.5951  -52.4544 C.2       17 UNK         0.5000 
     98 O          -6.7977  -24.0468  -51.9131 O.2       17 UNK        -0.5000 
     99 N          -5.3102  -24.1852  -53.6165 N.am      18 UNK        -0.5000 
    100 CA        -5.7611  -23.0072  -54.3616 C.3       18 UNK         0.1400 
    101 CB        -5.1338  -23.0267  -55.7629 C.3       18 UNK        -0.1800 
    102 C         -5.4343  -21.6806  -53.6493 C.2       18 UNK         0.5000 
    103 O         -6.1689  -20.7041  -53.8082 O.2       18 UNK        -0.5000 
    104 N         -4.3651  -21.6659  -52.8413 N.am      19 UNK        -0.5000 
    105 CA        -3.9035  -20.4997  -52.0872 C.3       19 UNK         0.1400 
    106 CB        -2.4264  -20.6678  -51.7321 C.3       19 UNK        -0.1800 
    107 C         -4.7553  -20.1862  -50.8419 C.2       19 UNK         0.5000 
    108 O         -4.4975  -19.1892  -50.1703 O.2       19 UNK        -0.5000 
    109 N         -5.7973  -20.9918  -50.5878 N.am      20 UNK        -0.5000 
    110 CA        -6.9040  -20.6428  -49.6978 C.3       20 UNK         0.1400 
    111 CB        -7.8132  -21.8664  -49.5174 C.3       20 UNK        -0.1800 
    112 C         -7.7125  -19.4328  -50.2176 C.2       20 UNK         0.5000 
    113 O         -8.3002  -18.7121  -49.4111 O.2       20 UNK        -0.5000 
    114 N         -7.7101  -19.2268  -51.5439 N.am      21 UNK        -0.5000 
    115 CA        -8.3139  -18.0804  -52.2221 C.3       21 UNK         0.1400 
    116 CB        -9.4063  -18.5890  -53.1762 C.3       21 UNK        -0.1800 
    117 C         -7.2747  -17.2472  -52.9971 C.2       21 UNK         0.5000 
    118 O         -7.4607  -16.0362  -53.1182 O.2       21 UNK        -0.5000 
    119 N         -6.2244  -17.8973  -53.5238 N.am      22 UNK        -0.5000 
    120 CA        -5.2021  -17.3269  -54.4267 C.3       22 UNK         0.1400 
    121 C         -5.7444  -16.9717  -55.8481 C.2       22 UNK         0.5000 
    122 N         -6.8826  -17.5061  -56.2749 N.am      22 UNK        -0.7600 
    123 O         -5.1142  -16.2281  -56.5954 O.2       22 UNK        -0.5000 
    124 C124       -4.3622  -16.1733  -53.7986 C.3       23 UNK        -0.0398 
    125 S125       -3.3612  -16.6857  -52.3579 S.3       23 UNK        -0.2404 
    126 C126       -1.6732  -16.5754  -53.0397 C.3       23 UNK        -0.0205 
    127 H127        7.0492  -15.1309  -49.4952 H         1 UNK         0.0600 
    128 H128        6.8455  -16.6420  -48.6031 H         1 UNK         0.0600 
    129 H129        7.9575  -15.4060  -48.0046 H         1 UNK         0.0600 
    130 H130        5.3259  -13.7425  -49.2012 H         1 UNK         0.3000 
    131 H131        3.3209  -14.1632  -47.2647 H         1 UNK         0.0600 
    132 H132        2.2280  -12.1424  -48.2180 H         1 UNK         0.0800 
    133 H133        3.6967  -11.7228  -49.0638 H         1 UNK         0.0800 
    134 H134        0.2882  -13.6123  -49.4452 H         1 UNK         0.0800 
    135 H135        1.2450  -14.6249  -48.3894 H         1 UNK         0.0800 
    136 H136       -0.7698  -14.5853  -51.4208 H         1 UNK         0.1150 
    137 H137       -0.1864  -18.7445  -52.2784 H         1 UNK         0.1150 
    138 H138        2.0959  -16.8488  -49.1826 H         1 UNK         0.1150 
    139 H139        2.4634  -19.4354  -51.2138 H         1 UNK         0.0800 
    140 H140        2.3580  -19.1691  -49.4910 H         1 UNK         0.0800 
    141 H141       -1.4021  -20.1414  -49.1092 H         1 UNK         0.0800 
    142 H142       -0.0500  -19.2873  -48.4414 H         1 UNK         0.0800 
    143 H143        0.7963  -21.6143  -47.6033 H         1 UNK         0.0600 
    144 H144       -1.2497  -19.9284  -46.3842 H         1 UNK         0.3000 
    145 H145       -0.3660  -21.0326  -43.0732 H         1 UNK         0.0600 
    146 H146        0.0039  -18.6096  -42.7917 H         1 UNK         0.0600 
    147 H147        1.3136  -19.2913  -43.7455 H         1 UNK         0.0600 
    148 H148        0.0371  -18.3711  -44.5360 H         1 UNK         0.0600 
    149 H149       -2.2277  -19.0764  -43.8145 H         1 UNK         0.3000 
    150 H150       -5.1097  -21.2372  -43.8637 H         1 UNK         0.0600 
    151 H151       -4.4102  -20.6964  -41.5387 H         1 UNK         0.0600 
    152 H152       -5.6349  -19.5714  -42.1059 H         1 UNK         0.0600 
    153 H153       -3.9479  -19.0708  -42.0294 H         1 UNK         0.0600 
    154 H154       -4.1516  -18.4680  -44.4755 H         1 UNK         0.3000 
    155 H155       -5.3720  -18.6121  -47.7345 H         1 UNK         0.0600 
    156 H156       -6.7707  -16.9887  -45.5432 H         1 UNK         0.0600 
    157 H157       -7.5748  -18.0784  -46.6674 H         1 UNK         0.0600 
    158 H158       -6.7820  -16.6354  -47.2734 H         1 UNK         0.0600 
    159 H159       -4.4785  -16.3743  -46.2797 H         1 UNK         0.3000 
    160 H160       -0.9814  -17.0030  -46.3748 H         1 UNK         0.0600 
    161 H161       -2.8060  -15.0794  -47.9126 H         1 UNK         0.0600 
    162 H162       -1.6439  -16.1825  -48.6380 H         1 UNK         0.0600 
    163 H163       -1.0836  -14.8656  -47.6146 H         1 UNK         0.0600 
    164 H164       -2.0560  -14.7205  -45.4297 H         1 UNK         0.3000 
    165 H165       -3.2121  -14.3542  -43.1959 H         1 UNK         0.0600 
    166 H166       -2.7570  -14.9131  -40.8105 H         1 UNK         0.0600 
    167 H167       -3.7397  -16.1579  -41.5660 H         1 UNK         0.0600 
    168 H168       -2.0260  -16.4449  -41.2872 H         1 UNK         0.0600 
    169 H169       -0.3990  -14.9864  -42.4508 H         1 UNK         0.3000 
    170 H170        0.9328  -12.4289  -44.4982 H         1 UNK         0.0600 
    171 H171        0.5144  -11.3018  -42.3067 H         1 UNK         0.0600 
    172 H172        0.9676  -12.7718  -41.4506 H         1 UNK         0.0600 
    173 H173        2.1621  -11.9025  -42.4148 H         1 UNK         0.0600 
    174 H174        2.1657  -14.4265  -42.8740 H         1 UNK         0.3000 
    175 H175        2.2891  -16.8613  -43.7876 H         1 UNK         0.0600 
    176 H176        3.0778  -16.5323  -46.7313 H         1 UNK         0.0600 
    177 H177        3.3627  -17.9562  -45.7345 H         1 UNK         0.0600 
    178 H178        1.7217  -17.4810  -46.1389 H         1 UNK         0.0600 
    179 H179        4.6298  -15.6609  -45.0746 H         1 UNK         0.3000 
    180 H180        6.0346  -14.4944  -41.9732 H         1 UNK         0.0600 
    181 H181        7.9197  -15.6448  -43.0998 H         1 UNK         0.0600 
    182 H182        6.8094  -16.4533  -44.2028 H         1 UNK         0.0600 
    183 H183        6.7657  -16.8165  -42.4817 H         1 UNK         0.0600 
    184 H184        6.1908  -14.1484  -44.9313 H         1 UNK         0.3000 
    185 H185        5.4680  -10.6915  -44.7365 H         1 UNK         0.0600 
    186 H186        7.6037  -10.4209  -45.9780 H         1 UNK         0.0600 
    187 H187        7.9198  -10.6548  -44.2661 H         1 UNK         0.0600 
    188 H188        8.1727  -11.9842  -45.3907 H         1 UNK         0.0600 
    189 H189        6.2583  -12.5228  -46.8382 H         1 UNK         0.3000 
    190 H190       -2.6733  -21.7783  -46.8996 H         1 UNK         0.3000 
    191 H191       -3.2500  -24.1364  -48.4338 H         1 UNK         0.0600 
    192 H192       -5.2862  -24.2458  -47.0073 H         1 UNK         0.0600 
    193 H193       -5.0346  -22.6248  -47.6353 H         1 UNK         0.0600 
    194 H194       -4.6394  -22.9917  -45.9565 H         1 UNK         0.0600 
    195 H195       -2.1601  -23.6133  -45.0503 H         1 UNK         0.3000 
    196 H196       -1.9920  -26.3403  -44.2803 H         1 UNK         0.0600 
    197 H197       -0.4453  -23.8859  -43.2919 H         1 UNK         0.0600 
    198 H198       -1.9838  -24.4703  -42.6610 H         1 UNK         0.0600 
    199 H199       -0.5296  -25.4344  -42.4602 H         1 UNK         0.0600 
    200 H200        0.1079  -24.4259  -46.3198 H         1 UNK         0.3000 
    201 H201        2.3303  -26.3491  -46.2807 H         1 UNK         0.0600 
    202 H202        1.9140  -23.8952  -48.0609 H         1 UNK         0.0600 
    203 H203        3.4002  -24.7940  -47.8178 H         1 UNK         0.0600 
    204 H204        2.7193  -23.8630  -46.4938 H         1 UNK         0.0600 
    205 H205       -0.6665  -26.6532  -47.4120 H         1 UNK         0.3000 
    206 H206       -1.6836  -28.1091  -48.6510 H         1 UNK         0.0600 
    207 H207        0.2150  -29.6880  -48.2069 H         1 UNK         0.0600 
    208 H208       -0.5818  -29.9876  -49.7413 H         1 UNK         0.0600 
    209 H209        0.9746  -29.1774  -49.7153 H         1 UNK         0.0600 
    210 H210       -0.6362  -25.3943  -49.7700 H         1 UNK         0.3000 
    211 H211       -1.2112  -25.7978  -52.6564 H         1 UNK         0.0600 
    212 H212       -0.7879  -23.3656  -52.7923 H         1 UNK         0.0600 
    213 H213        0.5691  -24.1832  -52.0297 H         1 UNK         0.0600 
    214 H214       -0.5752  -23.2722  -51.0522 H         1 UNK         0.0600 
    215 H215       -3.3208  -26.7192  -52.2921 H         1 UNK         0.3000 
    216 H216       -5.3365  -25.6860  -50.6885 H         1 UNK         0.0600 
    217 H217       -5.5889  -27.2941  -53.2858 H         1 UNK         0.0600 
    218 H218       -6.8544  -27.1133  -52.0764 H         1 UNK         0.0600 
    219 H219       -5.3702  -27.9576  -51.6660 H         1 UNK         0.0600 
    220 H220       -4.5229  -24.6927  -53.9930 H         1 UNK         0.3000 
    221 H221       -6.8462  -23.0642  -54.4705 H         1 UNK         0.0600 
    222 H222       -5.4163  -23.9269  -56.3092 H         1 UNK         0.0600 
    223 H223       -4.0446  -22.9881  -55.7178 H         1 UNK         0.0600 
    224 H224       -5.4685  -22.1719  -56.3524 H         1 UNK         0.0600 
    225 H225       -3.8697  -22.5305  -52.6596 H         1 UNK         0.3000 
    226 H226       -3.9759  -19.6310  -52.7423 H         1 UNK         0.0600 
    227 H227       -2.2736  -21.4484  -50.9885 H         1 UNK         0.0600 
    228 H228       -1.8234  -20.9047  -52.6083 H         1 UNK         0.0600 
    229 H229       -2.0418  -19.7394  -51.3127 H         1 UNK         0.0600 
    230 H230       -5.9178  -21.8183  -51.1571 H         1 UNK         0.3000 
    231 H231       -6.4891  -20.3819  -48.7245 H         1 UNK         0.0600 
    232 H232       -8.2739  -22.1679  -50.4589 H         1 UNK         0.0600 
    233 H233       -8.6164  -21.6530  -48.8112 H         1 UNK         0.0600 
    234 H234       -7.2559  -22.7188  -49.1281 H         1 UNK         0.0600 
    235 H235       -7.2069  -19.8800  -52.1307 H         1 UNK         0.3000 
    236 H236       -8.7822  -17.4111  -51.4975 H         1 UNK         0.0600 
    237 H237      -10.1937  -19.1076  -52.6290 H         1 UNK         0.0600 
    238 H238       -9.8742  -17.7628  -53.7133 H         1 UNK         0.0600 
    239 H239       -9.0042  -19.2804  -53.9179 H         1 UNK         0.0600 
    240 H240       -6.1997  -18.9103  -53.4574 H         1 UNK         0.3000 
    241 H241       -4.5085  -18.1457  -54.6193 H         1 UNK         0.0600 
    242 H242       -7.2197  -17.2802  -57.1977 H         1 UNK         0.3800 
    243 H243       -7.4024  -18.1426  -55.6932 H         1 UNK         0.3800 
    244 H244       -5.0051  -15.3476  -53.4942 H         1 UNK         0.0800 
    245 H245       -3.6857  -15.7479  -54.5406 H         1 UNK         0.0800 
    246 H246       -1.5534  -15.6315  -53.5736 H         1 UNK         0.0800 
    247 H247       -1.5312  -17.3675  -53.7765 H         1 UNK         0.0800 
@<TRIPOS>BOND
     1    1    2 1    
     2    1  127 1    
     3    1  128 1    
     4    1  129 1    
     5    2    3 2    
     6    2    4 am   BACKBONE|DICT|INTERRES
     7    4    5 1    
     8    4  130 1    
     9    5    6 1    
    10    5   65 1    
    11    5  131 1    
    12    6    7 1    
    13    6  132 1    
    14    6  133 1    
    15    7    8 1    
    16    8    9 1    
    17    8  134 1    
    18    8  135 1    
    19    9   10 ar   
    20    9   14 ar   
    21   10   11 ar   
    22   10  136 1    
    23   11   12 ar   
    24   11  126 1    
    25   12   13 ar   
    26   12  137 1    
    27   13   14 ar   
    28   13   15 1    
    29   14  138 1    
    30   15   16 1    
    31   15  139 1    
    32   15  140 1    
    33   16   17 1    
    34   17   18 1    
    35   17  141 1    
    36   17  142 1    
    37   18   19 1    
    38   18   67 1    
    39   18  143 1    
    40   19   20 am   BACKBONE|DICT|INTERRES
    41   19  144 1    
    42   20   21 2    
    43   20   22 1    
    44   22   23 1    
    45   22   24 1    
    46   22  145 1    
    47   23  146 1    
    48   23  147 1    
    49   23  148 1    
    50   24   25 am   BACKBONE|DICT|INTERRES
    51   24  149 1    
    52   25   26 2    
    53   25   27 1    
    54   27   28 1    
    55   27   29 1    
    56   27  150 1    
    57   28  151 1    
    58   28  152 1    
    59   28  153 1    
    60   29   30 am   BACKBONE|DICT|INTERRES
    61   29  154 1    
    62   30   31 2    
    63   30   32 1    
    64   32   33 1    
    65   32   34 1    
    66   32  155 1    
    67   33  156 1    
    68   33  157 1    
    69   33  158 1    
    70   34   35 am   BACKBONE|DICT|INTERRES
    71   34  159 1    
    72   35   36 2    
    73   35   37 1    
    74   37   38 1    
    75   37   39 1    
    76   37  160 1    
    77   38  161 1    
    78   38  162 1    
    79   38  163 1    
    80   39   40 am   BACKBONE|DICT|INTERRES
    81   39  164 1    
    82   40   41 2    
    83   40   42 1    
    84   42   43 1    
    85   42   44 1    
    86   42  165 1    
    87   43  166 1    
    88   43  167 1    
    89   43  168 1    
    90   44   45 am   BACKBONE|DICT|INTERRES
    91   44  169 1    
    92   45   46 2    
    93   45   47 1    
    94   47   48 1    
    95   47   49 1    
    96   47  170 1    
    97   48  171 1    
    98   48  172 1    
    99   48  173 1    
   100   49   50 am   BACKBONE|DICT|INTERRES
   101   49  174 1    
   102   50   51 2    
   103   50   52 1    
   104   52   53 1    
   105   52   54 1    
   106   52  175 1    
   107   53  176 1    
   108   53  177 1    
   109   53  178 1    
   110   54   55 am   BACKBONE|DICT|INTERRES
   111   54  179 1    
   112   55   56 2    
   113   55   57 1    
   114   57   58 1    
   115   57   59 1    
   116   57  180 1    
   117   58  181 1    
   118   58  182 1    
   119   58  183 1    
   120   59   60 am   BACKBONE|DICT|INTERRES
   121   59  184 1    
   122   60   61 2    
   123   60   62 1    
   124   62   63 1    
   125   62   64 1    
   126   62  185 1    
   127   63  186 1    
   128   63  187 1    
   129   63  188 1    
   130   64   65 am   BACKBONE|DICT|INTERRES
   131   64  189 1    
   132   65   66 2    
   133   67   68 2    
   134   67   69 am   BACKBONE|DICT|INTERRES
   135   69   70 1    
   136   69  190 1    
   137   70   71 1    
   138   70   72 1    
   139   70  191 1    
   140   71  192 1    
   141   71  193 1    
   142   71  194 1    
   143   72   73 2    
   144   72   74 am   BACKBONE|DICT|INTERRES
   145   74   75 1    
   146   74  195 1    
   147   75   76 1    
   148   75   77 1    
   149   75  196 1    
   150   76  197 1    
   151   76  198 1    
   152   76  199 1    
   153   77   78 2    
   154   77   79 am   BACKBONE|DICT|INTERRES
   155   79   80 1    
   156   79  200 1    
   157   80   81 1    
   158   80   82 1    
   159   80  201 1    
   160   81  202 1    
   161   81  203 1    
   162   81  204 1    
   163   82   83 2    
   164   82   84 am   BACKBONE|DICT|INTERRES
   165   84   85 1    
   166   84  205 1    
   167   85   86 1    
   168   85   87 1    
   169   85  206 1    
   170   86  207 1    
   171   86  208 1    
   172   86  209 1    
   173   87   88 2    
   174   87   89 am   BACKBONE|DICT|INTERRES
   175   89   90 1    
   176   89  210 1    
   177   90   91 1    
   178   90   92 1    
   179   90  211 1    
   180   91  212 1    
   181   91  213 1    
   182   91  214 1    
   183   92   93 2    
   184   92   94 am   BACKBONE|DICT|INTERRES
   185   94   95 1    
   186   94  215 1    
   187   95   96 1    
   188   95   97 1    
   189   95  216 1    
   190   96  217 1    
   191   96  218 1    
   192   96  219 1    
   193   97   98 2    
   194   97   99 am   BACKBONE|DICT|INTERRES
   195   99  100 1    
   196   99  220 1    
   197  100  101 1    
   198  100  102 1    
   199  100  221 1    
   200  101  222 1    
   201  101  223 1    
   202  101  224 1    
   203  102  103 2    
   204  102  104 am   BACKBONE|DICT|INTERRES
   205  104  105 1    
   206  104  225 1    
   207  105  106 1    
   208  105  107 1    
   209  105  226 1    
   210  106  227 1    
   211  106  228 1    
   212  106  229 1    
   213  107  108 2    
   214  107  109 am   BACKBONE|DICT|INTERRES
   215  109  110 1    
   216  109  230 1    
   217  110  111 1    
   218  110  112 1    
   219  110  231 1    
   220  111  232 1    
   221  111  233 1    
   222  111  234 1    
   223  112  113 2    
   224  112  114 am   BACKBONE|DICT|INTERRES
   225  114  115 1    
   226  114  235 1    
   227  115  116 1    
   228  115  117 1    
   229  115  236 1    
   230  116  237 1    
   231  116  238 1    
   232  116  239 1    
   233  117  118 2    
   234  117  119 am   BACKBONE|DICT|INTERRES
   235  119  120 1    
   236  119  240 1    
   237  120  121 1    
   238  120  124 1    
   239  120  241 1    
   240  121  122 am   BACKBONE|DICT|INTERRES
   241  121  123 2    
   242  122  242 1    
   243  122  243 1    
   244  124  125 1    
   245  124  244 1    
   246  124  245 1    
   247  125  126 1    
   248  126  246 1    
   249  126  247 1    
@<TRIPOS>SUBSTRUCTURE
     1 UNK         1 GROUP             0       ****    0 ROOT    
