@<TRIPOS>MOLECULE
3R540
247   249    1
SMALL
USER_CHARGES


@<TRIPOS>ATOM
      1 CA         -3.3631  -10.4099  -48.6159 C.3       0 UNK        -0.1800 
      2 C          -2.7606  -11.6829  -48.0412 C.2       0 UNK         0.5000 
      3 O          -1.6936  -11.6326  -47.4307 O.2       0 UNK        -0.5000 
      4 N          -3.4463  -12.8205  -48.2144 N.am      1 UNK        -0.5000 
      5 CA         -3.0153  -14.1569  -47.7776 C.3       1 UNK         0.1400 
      6 C6         -4.0216  -15.2558  -48.1948 C.3       23 UNK        -0.0398 
      7 S7         -4.3359  -15.3071  -49.9919 S.3       23 UNK        -0.2404 
      8 C8         -3.5415  -16.8731  -50.4678 C.3       23 UNK        -0.0205 
      9 C9         -2.0563  -16.7037  -50.7515 C.ar      23 UNK        -0.0193 
     10 C10        -1.6197  -16.5013  -52.0634 C.ar      23 UNK        -0.1150 
     11 C11        -0.2569  -16.3944  -52.3513 C.ar      23 UNK        -0.0193 
     12 C12         0.6732  -16.5026  -51.3145 C.ar      23 UNK        -0.1150 
     13 C13         0.2532  -16.7105  -49.9975 C.ar      23 UNK        -0.0193 
     14 C14        -1.1159  -16.7898  -49.7199 C.ar      23 UNK        -0.1150 
     15 C15         1.2880  -16.8327  -48.8873 C.3       23 UNK        -0.0205 
     16 S16         1.2844  -18.4750  -48.0940 S.3       23 UNK        -0.2404 
     17 C17         0.2064  -18.1801  -46.6528 C.3       23 UNK        -0.0398 
     18 CA         -1.0554  -19.0716  -46.6626 C.3       11 UNK         0.1400 
     19 N          -0.7366  -20.4890  -46.4701 N.am      11 UNK        -0.5000 
     20 C          -1.6064  -21.4932  -46.6454 C.2       10 UNK         0.5000 
     21 O          -2.7767  -21.3333  -46.9879 O.2       10 UNK        -0.5000 
     22 CA         -1.0948  -22.9056  -46.3158 C.3       10 UNK         0.1400 
     23 CB         -0.1545  -23.4170  -47.4196 C.3       10 UNK        -0.1800 
     24 N          -0.4041  -22.9753  -45.0253 N.am      10 UNK        -0.5000 
     25 C          -0.8995  -22.5903  -43.8417 C.2       9 UNK         0.5000 
     26 O          -2.0259  -22.1140  -43.7024 O.2       9 UNK        -0.5000 
     27 CA          0.0088  -22.7065  -42.6021 C.3       9 UNK         0.1400 
     28 CB         -0.3846  -23.9220  -41.7423 C.3       9 UNK        -0.1800 
     29 N           1.4554  -22.6844  -42.8626 N.am      9 UNK        -0.5000 
     30 C           2.2242  -23.6055  -43.4668 C.2       8 UNK         0.5000 
     31 O           1.7771  -24.6066  -44.0258 O.2       8 UNK        -0.5000 
     32 CA          3.7497  -23.3642  -43.4720 C.3       8 UNK         0.1400 
     33 CB          4.2007  -22.8518  -44.8488 C.3       8 UNK        -0.1800 
     34 N           4.1976  -22.4161  -42.4498 N.am      8 UNK        -0.5000 
     35 C           4.1187  -22.6020  -41.1243 C.2       7 UNK         0.5000 
     36 O           3.7865  -23.6687  -40.6063 O.2       7 UNK        -0.5000 
     37 CA          4.4278  -21.3872  -40.2219 C.3       7 UNK         0.1400 
     38 CB          5.7699  -21.5835  -39.4994 C.3       7 UNK        -0.1800 
     39 N           4.4488  -20.0874  -40.9072 N.am      7 UNK        -0.5000 
     40 C           3.4294  -19.5162  -41.5636 C.2       6 UNK         0.5000 
     41 O           2.3263  -20.0488  -41.7252 O.2       6 UNK        -0.5000 
     42 CA          3.7187  -18.1428  -42.1857 C.3       6 UNK         0.1400 
     43 CB          4.7200  -18.2615  -43.3512 C.3       6 UNK        -0.1800 
     44 N           2.4730  -17.5644  -42.6756 N.am      6 UNK        -0.5000 
     45 C           2.2405  -16.2599  -42.8466 C.2       5 UNK         0.5000 
     46 O           3.0421  -15.3734  -42.5400 O.2       5 UNK        -0.5000 
     47 CA          0.8670  -15.8916  -43.4411 C.3       5 UNK         0.1400 
     48 CB         -0.1748  -15.7220  -42.3265 C.3       5 UNK        -0.1800 
     49 N           0.8992  -14.6737  -44.2520 N.am      5 UNK        -0.5000 
     50 C           1.6395  -14.4801  -45.3538 C.2       4 UNK         0.5000 
     51 O           2.3732  -15.3455  -45.8335 O.2       4 UNK        -0.5000 
     52 CA          1.5408  -13.1063  -46.0569 C.3       4 UNK         0.1400 
     53 CB          1.3321  -13.2611  -47.5731 C.3       4 UNK        -0.1800 
     54 N           0.4660  -12.2611  -45.5386 N.am      4 UNK        -0.5000 
     55 C           0.5352  -11.4614  -44.4676 C.2       3 UNK         0.5000 
     56 O           1.5480  -11.3134  -43.7843 O.2       3 UNK        -0.5000 
     57 CA         -0.7681  -10.7423  -44.0753 C.3       3 UNK         0.1400 
     58 CB         -0.9140   -9.4137  -44.8332 C.3       3 UNK        -0.1800 
     59 N          -1.9380  -11.5863  -44.3320 N.am      3 UNK        -0.5000 
     60 C          -2.3255  -12.5902  -43.5325 C.2       2 UNK         0.5000 
     61 O          -1.7877  -12.8429  -42.4552 O.2       2 UNK        -0.5000 
     62 CA         -3.4952  -13.4703  -44.0131 C.3       2 UNK         0.1400 
     63 CB         -4.8254  -12.9524  -43.4463 C.3       2 UNK        -0.1800 
     64 N          -3.5974  -13.5529  -45.4704 N.am      2 UNK        -0.5000 
     65 C          -2.7539  -14.2364  -46.2582 C.2       1 UNK         0.5000 
     66 O          -1.7889  -14.8736  -45.8402 O.2       1 UNK        -0.5000 
     67 C          -2.0721  -18.5580  -45.6253 C.2       11 UNK         0.5000 
     68 O          -2.9754  -17.8106  -45.9935 O.2       11 UNK        -0.5000 
     69 N          -1.9251  -18.9853  -44.3623 N.am      12 UNK        -0.5000 
     70 CA         -2.8029  -18.6009  -43.2540 C.3       12 UNK         0.1400 
     71 CB         -2.1922  -19.0790  -41.9269 C.3       12 UNK        -0.1800 
     72 C          -4.2351  -19.1405  -43.4242 C.2       12 UNK         0.5000 
     73 O          -5.1964  -18.4181  -43.1597 O.2       12 UNK        -0.5000 
     74 N          -4.3443  -20.3905  -43.8919 N.am      13 UNK        -0.5000 
     75 CA         -5.6049  -21.0386  -44.2512 C.3       13 UNK         0.1400 
     76 CB         -5.3703  -22.5561  -44.3174 C.3       13 UNK        -0.1800 
     77 C          -6.1812  -20.5352  -45.5896 C.2       13 UNK         0.5000 
     78 O          -7.3889  -20.6470  -45.8023 O.2       13 UNK        -0.5000 
     79 N          -5.3017  -20.0274  -46.4667 N.am      14 UNK        -0.5000 
     80 CA         -5.5197  -19.7012  -47.8792 C.3       14 UNK         0.1400 
     81 CB         -6.4648  -18.4934  -48.0362 C.3       14 UNK        -0.1800 
     82 C          -5.9617  -20.9509  -48.6683 C.2       14 UNK         0.5000 
     83 O          -6.9694  -20.9257  -49.3770 O.2       14 UNK        -0.5000 
     84 N          -5.2100  -22.0394  -48.4741 N.am      15 UNK        -0.5000 
     85 CA         -5.4991  -23.3814  -48.9650 C.3       15 UNK         0.1400 
     86 CB         -6.1978  -24.1719  -47.8443 C.3       15 UNK        -0.1800 
     87 C          -4.1979  -24.0669  -49.4061 C.2       15 UNK         0.5000 
     88 O          -3.1128  -23.5092  -49.2304 O.2       15 UNK        -0.5000 
     89 N          -4.3276  -25.2702  -49.9817 N.am      16 UNK        -0.5000 
     90 CA         -3.2425  -26.0729  -50.5563 C.3       16 UNK         0.1400 
     91 CB         -2.2961  -26.5919  -49.4491 C.3       16 UNK        -0.1800 
     92 C          -2.5378  -25.2960  -51.6871 C.2       16 UNK         0.5000 
     93 O          -3.2298  -24.7619  -52.5558 O.2       16 UNK        -0.5000 
     94 N          -1.2018  -25.1987  -51.6513 N.am      17 UNK        -0.5000 
     95 CA         -0.3827  -24.4724  -52.6268 C.3       17 UNK         0.1400 
     96 CB          1.1009  -24.6515  -52.2762 C.3       17 UNK        -0.1800 
     97 C          -0.7266  -22.9749  -52.7500 C.2       17 UNK         0.5000 
     98 O          -0.6173  -22.4224  -53.8453 O.2       17 UNK        -0.5000 
     99 N          -1.1915  -22.3570  -51.6542 N.am      18 UNK        -0.5000 
    100 CA        -1.6289  -20.9591  -51.6199 C.3       18 UNK         0.1400 
    101 CB        -1.8195  -20.5212  -50.1630 C.3       18 UNK        -0.1800 
    102 C         -2.9075  -20.6950  -52.4413 C.2       18 UNK         0.5000 
    103 O         -3.1522  -19.5494  -52.8156 O.2       18 UNK        -0.5000 
    104 N         -3.6836  -21.7499  -52.7203 N.am      19 UNK        -0.5000 
    105 CA        -4.8493  -21.7120  -53.5965 C.3       19 UNK         0.1400 
    106 CB        -6.0121  -22.4539  -52.9179 C.3       19 UNK        -0.1800 
    107 C         -4.5221  -22.3378  -54.9623 C.2       19 UNK         0.5000 
    108 O         -4.8180  -21.7346  -55.9936 O.2       19 UNK        -0.5000 
    109 N         -3.9296  -23.5395  -54.9486 N.am      20 UNK        -0.5000 
    110 CA        -3.7179  -24.3779  -56.1278 C.3       20 UNK         0.1400 
    111 CB        -3.3872  -25.8087  -55.6750 C.3       20 UNK        -0.1800 
    112 C         -2.6348  -23.8580  -57.0870 C.2       20 UNK         0.5000 
    113 O         -2.8180  -23.9552  -58.3014 O.2       20 UNK        -0.5000 
    114 N         -1.5296  -23.3381  -56.5378 N.am      21 UNK        -0.5000 
    115 CA        -0.3880  -22.8464  -57.3104 C.3       21 UNK         0.1400 
    116 CB         0.9148  -23.4286  -56.7362 C.3       21 UNK        -0.1800 
    117 C         -0.3509  -21.3126  -57.3155 C.2       21 UNK         0.5000 
    118 O         -0.1685  -20.7144  -58.3765 O.2       21 UNK        -0.5000 
    119 N         -0.5303  -20.7055  -56.1359 N.am      22 UNK        -0.5000 
    120 CA        -0.5066  -19.2474  -55.9377 C.3       22 UNK         0.1400 
    121 C         -1.8214  -18.5138  -56.3405 C.2       22 UNK         0.5000 
    122 N         -2.9145  -19.2085  -56.6311 N.am      22 UNK        -0.7600 
    123 O         -1.8470  -17.2892  -56.4154 O.2       22 UNK        -0.5000 
    124 C124       -0.0503  -18.8877  -54.4970 C.3       23 UNK        -0.0398 
    125 S125        1.1802  -17.5411  -54.4486 S.3       23 UNK        -0.2404 
    126 C126        0.2096  -16.1516  -53.7800 C.3       23 UNK        -0.0205 
    127 H127       -4.3169  -10.5991  -49.1089 H         1 UNK         0.0600 
    128 H128       -2.6828   -9.9715  -49.3458 H         1 UNK         0.0600 
    129 H129       -3.5277   -9.6820  -47.8215 H         1 UNK         0.0600 
    130 H130       -4.3093  -12.7984  -48.7392 H         1 UNK         0.3000 
    131 H131       -2.0652  -14.3614  -48.2752 H         1 UNK         0.0600 
    132 H132       -4.9806  -15.1032  -47.6965 H         1 UNK         0.0800 
    133 H133       -3.6724  -16.2344  -47.8677 H         1 UNK         0.0800 
    134 H134       -3.6979  -17.6293  -49.6986 H         1 UNK         0.0800 
    135 H135       -4.0417  -17.2551  -51.3593 H         1 UNK         0.0800 
    136 H136       -2.3442  -16.4369  -52.8633 H         1 UNK         0.1150 
    137 H137        1.7278  -16.4283  -51.5400 H         1 UNK         0.1150 
    138 H138       -1.4498  -16.9361  -48.7043 H         1 UNK         0.1150 
    139 H139        2.2892  -16.6566  -49.2831 H         1 UNK         0.0800 
    140 H140        1.1239  -16.0498  -48.1498 H         1 UNK         0.0800 
    141 H141       -0.0705  -17.1245  -46.6172 H         1 UNK         0.0800 
    142 H142        0.7968  -18.3621  -45.7540 H         1 UNK         0.0800 
    143 H143       -1.5336  -18.9785  -47.6391 H         1 UNK         0.0600 
    144 H144        0.2089  -20.7103  -46.1961 H         1 UNK         0.3000 
    145 H145       -1.9623  -23.5670  -46.2681 H         1 UNK         0.0600 
    146 H146        0.1046  -24.4638  -47.2603 H         1 UNK         0.0600 
    147 H147       -0.6222  -23.3454  -48.4017 H         1 UNK         0.0600 
    148 H148        0.7729  -22.8446  -47.4586 H         1 UNK         0.0600 
    149 H149        0.5021  -23.4289  -45.0137 H         1 UNK         0.3000 
    150 H150       -0.1844  -21.8137  -42.0054 H         1 UNK         0.0600 
    151 H151       -1.4326  -23.8650  -41.4452 H         1 UNK         0.0600 
    152 H152        0.2099  -23.9675  -40.8297 H         1 UNK         0.0600 
    153 H153       -0.2503  -24.8618  -42.2785 H         1 UNK         0.0600 
    154 H154        1.9261  -21.8686  -42.4826 H         1 UNK         0.3000 
    155 H155        4.2349  -24.3237  -43.2819 H         1 UNK         0.0600 
    156 H156        3.7558  -21.8839  -45.0840 H         1 UNK         0.0600 
    157 H157        3.9124  -23.5462  -45.6392 H         1 UNK         0.0600 
    158 H158        5.2846  -22.7436  -44.8942 H         1 UNK         0.0600 
    159 H159        4.4968  -21.5103  -42.7777 H         1 UNK         0.3000 
    160 H160        3.6380  -21.3452  -39.4692 H         1 UNK         0.0600 
    161 H161        6.6042  -21.6053  -40.2016 H         1 UNK         0.0600 
    162 H162        5.7838  -22.5224  -38.9441 H         1 UNK         0.0600 
    163 H163        5.9538  -20.7833  -38.7822 H         1 UNK         0.0600 
    164 H164        5.3200  -19.5800  -40.8461 H         1 UNK         0.3000 
    165 H165        4.1355  -17.5034  -41.4047 H         1 UNK         0.0600 
    166 H166        4.9301  -17.2869  -43.7923 H         1 UNK         0.0600 
    167 H167        5.6735  -18.6733  -43.0190 H         1 UNK         0.0600 
    168 H168        4.3387  -18.9079  -44.1429 H         1 UNK         0.0600 
    169 H169        1.7460  -18.2463  -42.8486 H         1 UNK         0.3000 
    170 H170        0.5422  -16.7060  -44.0889 H         1 UNK         0.0600 
    171 H171        0.0425  -14.8525  -41.7049 H         1 UNK         0.0600 
    172 H172       -1.1752  -15.5991  -42.7411 H         1 UNK         0.0600 
    173 H173       -0.1995  -16.5917  -41.6700 H         1 UNK         0.0600 
    174 H174        0.3221  -13.9098  -43.9349 H         1 UNK         0.3000 
    175 H175        2.4950  -12.5998  -45.8992 H         1 UNK         0.0600 
    176 H176        0.3996  -13.7808  -47.7963 H         1 UNK         0.0600 
    177 H177        1.2951  -12.2894  -48.0659 H         1 UNK         0.0600 
    178 H178        2.1471  -13.8223  -48.0312 H         1 UNK         0.0600 
    179 H179       -0.4000  -12.2737  -46.0686 H         1 UNK         0.3000 
    180 H180       -0.7200  -10.5161  -43.0078 H         1 UNK         0.0600 
    181 H181       -1.8219   -8.8885  -44.5365 H         1 UNK         0.0600 
    182 H182       -0.9499   -9.5617  -45.9127 H         1 UNK         0.0600 
    183 H183       -0.0724   -8.7526  -44.6224 H         1 UNK         0.0600 
    184 H184       -2.3936  -11.4693  -45.2263 H         1 UNK         0.3000 
    185 H185       -3.3301  -14.4783  -43.6261 H         1 UNK         0.0600 
    186 H186       -5.6517  -13.6106  -43.7154 H         1 UNK         0.0600 
    187 H187       -4.7928  -12.9032  -42.3570 H         1 UNK         0.0600 
    188 H188       -5.0581  -11.9519  -43.8133 H         1 UNK         0.0600 
    189 H189       -4.3525  -13.0409  -45.9030 H         1 UNK         0.3000 
    190 H190       -1.2056  -19.6612  -44.1568 H         1 UNK         0.3000 
    191 H191       -2.8551  -17.5101  -43.2337 H         1 UNK         0.0600 
    192 H192       -2.7597  -18.6927  -41.0796 H         1 UNK         0.0600 
    193 H193       -1.1637  -18.7388  -41.8130 H         1 UNK         0.0600 
    194 H194       -2.1919  -20.1663  -41.8483 H         1 UNK         0.0600 
    195 H195       -3.4979  -20.9408  -44.0163 H         1 UNK         0.3000 
    196 H196       -6.3407  -20.8359  -43.4703 H         1 UNK         0.0600 
    197 H197       -4.6249  -22.8124  -45.0718 H         1 UNK         0.0600 
    198 H198       -5.0218  -22.9434  -43.3598 H         1 UNK         0.0600 
    199 H199       -6.2900  -23.0856  -44.5692 H         1 UNK         0.0600 
    200 H200       -4.3287  -20.0401  -46.1888 H         1 UNK         0.3000 
    201 H201       -4.5460  -19.4133  -48.2776 H         1 UNK         0.0600 
    202 H202       -7.4755  -18.7193  -47.6957 H         1 UNK         0.0600 
    203 H203       -6.5311  -18.1858  -49.0804 H         1 UNK         0.0600 
    204 H204       -6.1021  -17.6368  -47.4679 H         1 UNK         0.0600 
    205 H205       -4.3417  -21.9493  -47.9495 H         1 UNK         0.3000 
    206 H206       -6.1548  -23.3279  -49.8360 H         1 UNK         0.0600 
    207 H207       -6.4962  -25.1646  -48.1823 H         1 UNK         0.0600 
    208 H208       -5.5455  -24.3002  -46.9796 H         1 UNK         0.0600 
    209 H209       -7.1005  -23.6619  -47.5067 H         1 UNK         0.0600 
    210 H210       -5.2567  -25.6438  -50.1130 H         1 UNK         0.3000 
    211 H211       -3.7100  -26.9383  -51.0278 H         1 UNK         0.0600 
    212 H212       -1.5610  -27.2892  -49.8524 H         1 UNK         0.0600 
    213 H213       -2.8555  -27.1294  -48.6834 H         1 UNK         0.0600 
    214 H214       -1.7552  -25.7857  -48.9523 H         1 UNK         0.0600 
    215 H215       -0.7086  -25.6463  -50.8928 H         1 UNK         0.3000 
    216 H216       -0.5580  -24.9253  -53.6047 H         1 UNK         0.0600 
    217 H217        1.3331  -24.2463  -51.2904 H         1 UNK         0.0600 
    218 H218        1.7378  -24.1409  -53.0001 H         1 UNK         0.0600 
    219 H219        1.3842  -25.7042  -52.2829 H         1 UNK         0.0600 
    220 H220       -1.3213  -22.8924  -50.8059 H         1 UNK         0.3000 
    221 H221       -0.8304  -20.3498  -52.0453 H         1 UNK         0.0600 
    222 H222       -0.9230  -20.7061  -49.5713 H         1 UNK         0.0600 
    223 H223       -2.6540  -21.0375  -49.6921 H         1 UNK         0.0600 
    224 H224       -2.0303  -19.4556  -50.1052 H         1 UNK         0.0600 
    225 H225       -3.3916  -22.6644  -52.3980 H         1 UNK         0.3000 
    226 H226       -5.1682  -20.6821  -53.7706 H         1 UNK         0.0600 
    227 H227       -5.7555  -23.4874  -52.6820 H         1 UNK         0.0600 
    228 H228       -6.2984  -21.9609  -51.9888 H         1 UNK         0.0600 
    229 H229       -6.8931  -22.4711  -53.5606 H         1 UNK         0.0600 
    230 H230       -3.7137  -23.9735  -54.0527 H         1 UNK         0.3000 
    231 H231       -4.6577  -24.4128  -56.6831 H         1 UNK         0.0600 
    232 H232       -2.4633  -25.8449  -55.0968 H         1 UNK         0.0600 
    233 H233       -3.2651  -26.4724  -56.5319 H         1 UNK         0.0600 
    234 H234       -4.1846  -26.2204  -55.0560 H         1 UNK         0.0600 
    235 H235       -1.4692  -23.2454  -55.5311 H         1 UNK         0.3000 
    236 H236       -0.4575  -23.1759  -58.3493 H         1 UNK         0.0600 
    237 H237        0.8999  -24.5184  -56.7573 H         1 UNK         0.0600 
    238 H238        1.7753  -23.1043  -57.3226 H         1 UNK         0.0600 
    239 H239        1.0880  -23.1178  -55.7062 H         1 UNK         0.0600 
    240 H240       -0.6454  -21.2762  -55.3025 H         1 UNK         0.3000 
    241 H241        0.2487  -18.8635  -56.6264 H         1 UNK         0.0600 
    242 H242       -3.7534  -18.7175  -56.8953 H         1 UNK         0.3800 
    243 H243       -2.9268  -20.2146  -56.5726 H         1 UNK         0.3800 
    244 H244        0.4353  -19.7442  -54.0275 H         1 UNK         0.0800 
    245 H245       -0.8985  -18.6521  -53.8549 H         1 UNK         0.0800 
    246 H246       -0.6372  -15.9532  -54.4380 H         1 UNK         0.0800 
    247 H247        0.8264  -15.2522  -53.8002 H         1 UNK         0.0800 
@<TRIPOS>BOND
     1    1    2 1    
     2    1  127 1    
     3    1  128 1    
     4    1  129 1    
     5    2    3 2    
     6    2    4 am   BACKBONE|DICT|INTERRES
     7    4    5 1    
     8    4  130 1    
     9    5    6 1    
    10    5   65 1    
    11    5  131 1    
    12    6    7 1    
    13    6  132 1    
    14    6  133 1    
    15    7    8 1    
    16    8    9 1    
    17    8  134 1    
    18    8  135 1    
    19    9   10 ar   
    20    9   14 ar   
    21   10   11 ar   
    22   10  136 1    
    23   11   12 ar   
    24   11  126 1    
    25   12   13 ar   
    26   12  137 1    
    27   13   14 ar   
    28   13   15 1    
    29   14  138 1    
    30   15   16 1    
    31   15  139 1    
    32   15  140 1    
    33   16   17 1    
    34   17   18 1    
    35   17  141 1    
    36   17  142 1    
    37   18   19 1    
    38   18   67 1    
    39   18  143 1    
    40   19   20 am   BACKBONE|DICT|INTERRES
    41   19  144 1    
    42   20   21 2    
    43   20   22 1    
    44   22   23 1    
    45   22   24 1    
    46   22  145 1    
    47   23  146 1    
    48   23  147 1    
    49   23  148 1    
    50   24   25 am   BACKBONE|DICT|INTERRES
    51   24  149 1    
    52   25   26 2    
    53   25   27 1    
    54   27   28 1    
    55   27   29 1    
    56   27  150 1    
    57   28  151 1    
    58   28  152 1    
    59   28  153 1    
    60   29   30 am   BACKBONE|DICT|INTERRES
    61   29  154 1    
    62   30   31 2    
    63   30   32 1    
    64   32   33 1    
    65   32   34 1    
    66   32  155 1    
    67   33  156 1    
    68   33  157 1    
    69   33  158 1    
    70   34   35 am   BACKBONE|DICT|INTERRES
    71   34  159 1    
    72   35   36 2    
    73   35   37 1    
    74   37   38 1    
    75   37   39 1    
    76   37  160 1    
    77   38  161 1    
    78   38  162 1    
    79   38  163 1    
    80   39   40 am   BACKBONE|DICT|INTERRES
    81   39  164 1    
    82   40   41 2    
    83   40   42 1    
    84   42   43 1    
    85   42   44 1    
    86   42  165 1    
    87   43  166 1    
    88   43  167 1    
    89   43  168 1    
    90   44   45 am   BACKBONE|DICT|INTERRES
    91   44  169 1    
    92   45   46 2    
    93   45   47 1    
    94   47   48 1    
    95   47   49 1    
    96   47  170 1    
    97   48  171 1    
    98   48  172 1    
    99   48  173 1    
   100   49   50 am   BACKBONE|DICT|INTERRES
   101   49  174 1    
   102   50   51 2    
   103   50   52 1    
   104   52   53 1    
   105   52   54 1    
   106   52  175 1    
   107   53  176 1    
   108   53  177 1    
   109   53  178 1    
   110   54   55 am   BACKBONE|DICT|INTERRES
   111   54  179 1    
   112   55   56 2    
   113   55   57 1    
   114   57   58 1    
   115   57   59 1    
   116   57  180 1    
   117   58  181 1    
   118   58  182 1    
   119   58  183 1    
   120   59   60 am   BACKBONE|DICT|INTERRES
   121   59  184 1    
   122   60   61 2    
   123   60   62 1    
   124   62   63 1    
   125   62   64 1    
   126   62  185 1    
   127   63  186 1    
   128   63  187 1    
   129   63  188 1    
   130   64   65 am   BACKBONE|DICT|INTERRES
   131   64  189 1    
   132   65   66 2    
   133   67   68 2    
   134   67   69 am   BACKBONE|DICT|INTERRES
   135   69   70 1    
   136   69  190 1    
   137   70   71 1    
   138   70   72 1    
   139   70  191 1    
   140   71  192 1    
   141   71  193 1    
   142   71  194 1    
   143   72   73 2    
   144   72   74 am   BACKBONE|DICT|INTERRES
   145   74   75 1    
   146   74  195 1    
   147   75   76 1    
   148   75   77 1    
   149   75  196 1    
   150   76  197 1    
   151   76  198 1    
   152   76  199 1    
   153   77   78 2    
   154   77   79 am   BACKBONE|DICT|INTERRES
   155   79   80 1    
   156   79  200 1    
   157   80   81 1    
   158   80   82 1    
   159   80  201 1    
   160   81  202 1    
   161   81  203 1    
   162   81  204 1    
   163   82   83 2    
   164   82   84 am   BACKBONE|DICT|INTERRES
   165   84   85 1    
   166   84  205 1    
   167   85   86 1    
   168   85   87 1    
   169   85  206 1    
   170   86  207 1    
   171   86  208 1    
   172   86  209 1    
   173   87   88 2    
   174   87   89 am   BACKBONE|DICT|INTERRES
   175   89   90 1    
   176   89  210 1    
   177   90   91 1    
   178   90   92 1    
   179   90  211 1    
   180   91  212 1    
   181   91  213 1    
   182   91  214 1    
   183   92   93 2    
   184   92   94 am   BACKBONE|DICT|INTERRES
   185   94   95 1    
   186   94  215 1    
   187   95   96 1    
   188   95   97 1    
   189   95  216 1    
   190   96  217 1    
   191   96  218 1    
   192   96  219 1    
   193   97   98 2    
   194   97   99 am   BACKBONE|DICT|INTERRES
   195   99  100 1    
   196   99  220 1    
   197  100  101 1    
   198  100  102 1    
   199  100  221 1    
   200  101  222 1    
   201  101  223 1    
   202  101  224 1    
   203  102  103 2    
   204  102  104 am   BACKBONE|DICT|INTERRES
   205  104  105 1    
   206  104  225 1    
   207  105  106 1    
   208  105  107 1    
   209  105  226 1    
   210  106  227 1    
   211  106  228 1    
   212  106  229 1    
   213  107  108 2    
   214  107  109 am   BACKBONE|DICT|INTERRES
   215  109  110 1    
   216  109  230 1    
   217  110  111 1    
   218  110  112 1    
   219  110  231 1    
   220  111  232 1    
   221  111  233 1    
   222  111  234 1    
   223  112  113 2    
   224  112  114 am   BACKBONE|DICT|INTERRES
   225  114  115 1    
   226  114  235 1    
   227  115  116 1    
   228  115  117 1    
   229  115  236 1    
   230  116  237 1    
   231  116  238 1    
   232  116  239 1    
   233  117  118 2    
   234  117  119 am   BACKBONE|DICT|INTERRES
   235  119  120 1    
   236  119  240 1    
   237  120  121 1    
   238  120  124 1    
   239  120  241 1    
   240  121  122 am   BACKBONE|DICT|INTERRES
   241  121  123 2    
   242  122  242 1    
   243  122  243 1    
   244  124  125 1    
   245  124  244 1    
   246  124  245 1    
   247  125  126 1    
   248  126  246 1    
   249  126  247 1    
@<TRIPOS>SUBSTRUCTURE
     1 UNK         1 GROUP             0       ****    0 ROOT    
