@<TRIPOS>MOLECULE
3R540
247   249    1
SMALL
USER_CHARGES


@<TRIPOS>ATOM
      1 CA         -3.0963  -10.7490  -48.2043 C.3       0 UNK        -0.1800 
      2 C          -1.6501  -11.0604  -48.5638 C.2       0 UNK         0.5000 
      3 O          -1.0493  -10.3423  -49.3637 O.2       0 UNK        -0.5000 
      4 N          -1.0931  -12.1305  -47.9835 N.am      1 UNK        -0.5000 
      5 CA          0.3021  -12.5420  -48.1529 C.3       1 UNK         0.1400 
      6 C6          0.5144  -13.9927  -47.6570 C.3       23 UNK        -0.0398 
      7 S7          2.1347  -14.6973  -48.1228 S.3       23 UNK        -0.2404 
      8 C8          1.7988  -15.3680  -49.7826 C.3       23 UNK        -0.0205 
      9 C9          0.9722  -16.6442  -49.7358 C.ar      23 UNK        -0.0193 
     10 C10        -0.3939  -16.6147  -50.0306 C.ar      23 UNK        -0.1150 
     11 C11        -1.1525  -17.7884  -50.0022 C.ar      23 UNK        -0.0193 
     12 C12        -0.5340  -18.9992  -49.6774 C.ar      23 UNK        -0.1150 
     13 C13         0.8311  -19.0414  -49.3780 C.ar      23 UNK        -0.0193 
     14 C14         1.5798  -17.8614  -49.4146 C.ar      23 UNK        -0.1150 
     15 C15         1.4948  -20.3581  -49.0079 C.3       23 UNK        -0.0205 
     16 S16         1.8026  -20.4442  -47.2171 S.3       23 UNK        -0.2404 
     17 C17         2.0105  -22.2350  -46.9548 C.3       23 UNK        -0.0398 
     18 CA          0.7780  -22.9642  -46.3629 C.3       11 UNK         0.1400 
     19 N           0.4592  -22.5966  -44.9789 N.am      11 UNK        -0.5000 
     20 C          -0.3121  -23.3601  -44.1869 C.2       10 UNK         0.5000 
     21 O          -0.7976  -24.4346  -44.5449 O.2       10 UNK        -0.5000 
     22 CA         -0.6369  -22.8284  -42.7799 C.3       10 UNK         0.1400 
     23 CB          0.5688  -22.9727  -41.8398 C.3       10 UNK        -0.1800 
     24 N          -1.0979  -21.4418  -42.7913 N.am      10 UNK        -0.5000 
     25 C          -2.2128  -21.0135  -43.4003 C.2       9 UNK         0.5000 
     26 O          -2.9903  -21.7507  -44.0055 O.2       9 UNK        -0.5000 
     27 CA         -2.4815  -19.4994  -43.3625 C.3       9 UNK         0.1400 
     28 CB         -3.1758  -19.0895  -42.0549 C.3       9 UNK        -0.1800 
     29 N          -1.2519  -18.7274  -43.5369 N.am      9 UNK        -0.5000 
     30 C          -0.5655  -18.6704  -44.6866 C.2       8 UNK         0.5000 
     31 O          -0.9361  -19.2147  -45.7246 O.2       8 UNK        -0.5000 
     32 CA          0.7706  -17.9082  -44.6557 C.3       8 UNK         0.1400 
     33 CB          0.5298  -16.4023  -44.8235 C.3       8 UNK        -0.1800 
     34 N           1.5255  -18.1603  -43.4272 N.am      8 UNK        -0.5000 
     35 C           2.0636  -19.3479  -43.1020 C.2       7 UNK         0.5000 
     36 O           2.0150  -20.3431  -43.8246 O.2       7 UNK        -0.5000 
     37 CA          2.7209  -19.4664  -41.7112 C.3       7 UNK         0.1400 
     38 CB          4.2032  -19.0711  -41.7835 C.3       7 UNK        -0.1800 
     39 N           2.0594  -18.6560  -40.6886 N.am      7 UNK        -0.5000 
     40 C           0.7669  -18.7463  -40.3454 C.2       6 UNK         0.5000 
     41 O           0.0159  -19.6255  -40.7670 O.2       6 UNK        -0.5000 
     42 CA          0.1980  -17.6425  -39.4291 C.3       6 UNK         0.1400 
     43 CB         -0.0124  -18.1848  -38.0077 C.3       6 UNK        -0.1800 
     44 N           1.0056  -16.4169  -39.3577 N.am      6 UNK        -0.5000 
     45 C           1.3470  -15.6315  -40.3900 C.2       5 UNK         0.5000 
     46 O           1.0517  -15.8768  -41.5624 O.2       5 UNK        -0.5000 
     47 CA          2.2338  -14.4211  -40.0419 C.3       5 UNK         0.1400 
     48 CB          3.6635  -14.8857  -39.7166 C.3       5 UNK        -0.1800 
     49 N           2.3133  -13.4372  -41.1188 N.am      5 UNK        -0.5000 
     50 C           1.3247  -12.6551  -41.5616 C.2       4 UNK         0.5000 
     51 O           0.1909  -12.6574  -41.0793 O.2       4 UNK        -0.5000 
     52 CA          1.6459  -11.6867  -42.7228 C.3       4 UNK         0.1400 
     53 CB          2.1016  -10.3201  -42.1784 C.3       4 UNK        -0.1800 
     54 N           2.5865  -12.1715  -43.7464 N.am      4 UNK        -0.5000 
     55 C           3.8820  -12.5101  -43.6344 C.2       3 UNK         0.5000 
     56 O           4.5007  -12.5361  -42.5703 O.2       3 UNK        -0.5000 
     57 CA          4.6204  -12.8856  -44.9347 C.3       3 UNK         0.1400 
     58 CB          4.5690  -14.4047  -45.1585 C.3       3 UNK        -0.1800 
     59 N           4.0880  -12.2068  -46.1174 N.am      3 UNK        -0.5000 
     60 C           4.1560  -10.8850  -46.3383 C.2       2 UNK         0.5000 
     61 O           4.7569  -10.1011  -45.6028 O.2       2 UNK        -0.5000 
     62 CA          3.4189  -10.3385  -47.5785 C.3       2 UNK         0.1400 
     63 CB          4.4162  -10.0491  -48.7110 C.3       2 UNK        -0.1800 
     64 N           2.3675  -11.2228  -48.0901 N.am      2 UNK        -0.5000 
     65 C           1.2475  -11.5564  -47.4346 C.2       1 UNK         0.5000 
     66 O           0.9747  -11.1658  -46.2965 O.2       1 UNK        -0.5000 
     67 C          -0.4610  -22.9028  -47.2791 C.2       11 UNK         0.5000 
     68 O          -0.6070  -23.7772  -48.1308 O.2       11 UNK        -0.5000 
     69 N          -1.3552  -21.9227  -47.0691 N.am      12 UNK        -0.5000 
     70 CA         -2.6288  -21.8161  -47.7835 C.3       12 UNK         0.1400 
     71 CB         -3.3319  -20.4968  -47.4357 C.3       12 UNK        -0.1800 
     72 C          -3.5585  -23.0118  -47.5185 C.2       12 UNK         0.5000 
     73 O          -4.1652  -23.5173  -48.4609 O.2       12 UNK        -0.5000 
     74 N          -3.6280  -23.4714  -46.2625 N.am      13 UNK        -0.5000 
     75 CA         -4.3700  -24.6697  -45.8721 C.3       13 UNK         0.1400 
     76 CB         -4.4201  -24.7722  -44.3401 C.3       13 UNK        -0.1800 
     77 C          -3.7840  -25.9516  -46.4925 C.2       13 UNK         0.5000 
     78 O          -4.5413  -26.7803  -46.9988 O.2       13 UNK        -0.5000 
     79 N          -2.4500  -26.0787  -46.4645 N.am      14 UNK        -0.5000 
     80 CA         -1.7150  -27.2203  -47.0101 C.3       14 UNK         0.1400 
     81 CB         -0.2543  -27.1572  -46.5383 C.3       14 UNK        -0.1800 
     82 C          -1.7840  -27.3150  -48.5462 C.2       14 UNK         0.5000 
     83 O          -1.9912  -28.4062  -49.0779 O.2       14 UNK        -0.5000 
     84 N          -1.6082  -26.1768  -49.2295 N.am      15 UNK        -0.5000 
     85 CA         -1.5408  -26.0796  -50.6894 C.3       15 UNK         0.1400 
     86 CB         -0.5512  -24.9640  -51.0659 C.3       15 UNK        -0.1800 
     87 C          -2.9086  -25.8457  -51.3595 C.2       15 UNK         0.5000 
     88 O          -2.9422  -25.6460  -52.5741 O.2       15 UNK        -0.5000 
     89 N          -4.0001  -25.8450  -50.5794 N.am      16 UNK        -0.5000 
     90 CA         -5.3901  -25.6351  -51.0046 C.3       16 UNK         0.1400 
     91 CB         -5.8801  -26.8179  -51.8657 C.3       16 UNK        -0.1800 
     92 C          -5.5816  -24.2697  -51.6954 C.2       16 UNK         0.5000 
     93 O          -5.9470  -24.2026  -52.8712 O.2       16 UNK        -0.5000 
     94 N          -5.2639  -23.2039  -50.9484 N.am      17 UNK        -0.5000 
     95 CA         -5.2572  -21.7972  -51.3607 C.3       17 UNK         0.1400 
     96 CB         -6.6921  -21.3087  -51.6524 C.3       17 UNK        -0.1800 
     97 C          -4.2641  -21.5344  -52.5109 C.2       17 UNK         0.5000 
     98 O          -4.5691  -20.7741  -53.4299 O.2       17 UNK        -0.5000 
     99 N          -3.1029  -22.2050  -52.4414 N.am      18 UNK        -0.5000 
    100 CA        -2.0306  -22.2239  -53.4425 C.3       18 UNK         0.1400 
    101 CB        -1.3283  -20.8520  -53.5093 C.3       18 UNK        -0.1800 
    102 C         -2.5381  -22.7216  -54.8120 C.2       18 UNK         0.5000 
    103 O         -2.3578  -22.0450  -55.8239 O.2       18 UNK        -0.5000 
    104 N         -3.2129  -23.8809  -54.7972 N.am      19 UNK        -0.5000 
    105 CA        -3.9398  -24.4976  -55.9122 C.3       19 UNK         0.1400 
    106 CB        -2.9626  -24.9878  -57.0009 C.3       19 UNK        -0.1800 
    107 C         -5.0565  -23.5808  -56.4584 C.2       19 UNK         0.5000 
    108 O         -5.1887  -23.4119  -57.6721 O.2       19 UNK        -0.5000 
    109 N         -5.8250  -22.9930  -55.5300 N.am      20 UNK        -0.5000 
    110 CA        -6.9241  -22.0446  -55.7402 C.3       20 UNK         0.1400 
    111 CB        -8.1092  -22.7367  -56.4454 C.3       20 UNK        -0.1800 
    112 C         -6.5133  -20.7184  -56.4210 C.2       20 UNK         0.5000 
    113 O         -7.3611  -20.0599  -57.0271 O.2       20 UNK        -0.5000 
    114 N         -5.2351  -20.3328  -56.3066 N.am      21 UNK        -0.5000 
    115 CA        -4.7142  -19.0593  -56.8039 C.3       21 UNK         0.1400 
    116 CB        -3.2008  -19.1732  -57.0349 C.3       21 UNK        -0.1800 
    117 C         -5.0245  -17.8933  -55.8489 C.2       21 UNK         0.5000 
    118 O         -5.2717  -16.7809  -56.3176 O.2       21 UNK        -0.5000 
    119 N         -5.0032  -18.1589  -54.5369 N.am      22 UNK        -0.5000 
    120 CA        -5.3431  -17.1898  -53.4869 C.3       22 UNK         0.1400 
    121 C         -6.8769  -16.9656  -53.3915 C.2       22 UNK         0.5000 
    122 N         -7.3178  -15.7345  -53.1711 N.am      22 UNK        -0.7600 
    123 O         -7.6692  -17.9017  -53.4714 O.2       22 UNK        -0.5000 
    124 C124       -4.7702  -17.6045  -52.1087 C.3       23 UNK        -0.0398 
    125 S125       -2.9501  -17.7112  -52.0994 S.3       23 UNK        -0.2404 
    126 C126       -2.6407  -17.7402  -50.3089 C.3       23 UNK        -0.0205 
    127 H127       -3.5025  -11.4703  -47.4947 H         1 UNK         0.0600 
    128 H128       -3.7177  -10.7661  -49.0996 H         1 UNK         0.0600 
    129 H129       -3.1663   -9.7570  -47.7581 H         1 UNK         0.0600 
    130 H130       -1.6293  -12.6580  -47.3099 H         1 UNK         0.3000 
    131 H131        0.5181  -12.5145  -49.2232 H         1 UNK         0.0600 
    132 H132        0.4233  -14.0336  -46.5707 H         1 UNK         0.0800 
    133 H133       -0.2718  -14.6419  -48.0419 H         1 UNK         0.0800 
    134 H134        2.7509  -15.5779  -50.2722 H         1 UNK         0.0800 
    135 H135        1.3066  -14.6106  -50.3943 H         1 UNK         0.0800 
    136 H136       -0.8701  -15.6785  -50.2861 H         1 UNK         0.1150 
    137 H137       -1.1163  -19.9084  -49.6522 H         1 UNK         0.1150 
    138 H138        2.6348  -17.8891  -49.1804 H         1 UNK         0.1150 
    139 H139        0.8668  -21.1940  -49.3193 H         1 UNK         0.0800 
    140 H140        2.4389  -20.4628  -49.5442 H         1 UNK         0.0800 
    141 H141        2.3054  -22.7031  -47.8956 H         1 UNK         0.0800 
    142 H142        2.8612  -22.3709  -46.2858 H         1 UNK         0.0800 
    143 H143        1.0642  -24.0178  -46.3312 H         1 UNK         0.0600 
    144 H144        0.8494  -21.7256  -44.6285 H         1 UNK         0.3000 
    145 H145       -1.4493  -23.4370  -42.3769 H         1 UNK         0.0600 
    146 H146        0.3347  -22.6133  -40.8375 H         1 UNK         0.0600 
    147 H147        1.4329  -22.4172  -42.2019 H         1 UNK         0.0600 
    148 H148        0.8677  -24.0177  -41.7506 H         1 UNK         0.0600 
    149 H149       -0.5449  -20.7697  -42.2688 H         1 UNK         0.3000 
    150 H150       -3.1539  -19.2587  -44.1886 H         1 UNK         0.0600 
    151 H151       -4.1223  -19.6188  -41.9377 H         1 UNK         0.0600 
    152 H152       -3.3972  -18.0223  -42.0435 H         1 UNK         0.0600 
    153 H153       -2.5668  -19.3154  -41.1798 H         1 UNK         0.0600 
    154 H154       -0.8604  -18.2933  -42.7143 H         1 UNK         0.3000 
    155 H155        1.3756  -18.2410  -45.4989 H         1 UNK         0.0600 
    156 H156       -0.0004  -16.2072  -45.7558 H         1 UNK         0.0600 
    157 H157        1.4691  -15.8518  -44.8573 H         1 UNK         0.0600 
    158 H158       -0.0721  -15.9926  -44.0119 H         1 UNK         0.0600 
    159 H159        1.5624  -17.3979  -42.7575 H         1 UNK         0.3000 
    160 H160        2.6581  -20.5101  -41.3987 H         1 UNK         0.0600 
    161 H161        4.3274  -18.0235  -42.0613 H         1 UNK         0.0600 
    162 H162        4.7314  -19.6724  -42.5247 H         1 UNK         0.0600 
    163 H163        4.7009  -19.2266  -40.8261 H         1 UNK         0.0600 
    164 H164        2.5997  -17.9031  -40.2906 H         1 UNK         0.3000 
    165 H165       -0.7766  -17.3660  -39.8364 H         1 UNK         0.0600 
    166 H166       -0.5118  -17.4514  -37.3743 H         1 UNK         0.0600 
    167 H167       -0.6363  -19.0797  -38.0180 H         1 UNK         0.0600 
    168 H168        0.9341  -18.4501  -37.5349 H         1 UNK         0.0600 
    169 H169        1.3129  -16.1511  -38.4330 H         1 UNK         0.3000 
    170 H170        1.8113  -13.9285  -39.1639 H         1 UNK         0.0600 
    171 H171        4.1256  -15.3868  -40.5685 H         1 UNK         0.0600 
    172 H172        4.2981  -14.0424  -39.4428 H         1 UNK         0.0600 
    173 H173        3.6768  -15.5822  -38.8775 H         1 UNK         0.0600 
    174 H174        3.2179  -13.3250  -41.5690 H         1 UNK         0.3000 
    175 H175        0.7056  -11.5272  -43.2530 H         1 UNK         0.0600 
    176 H176        3.0430  -10.3939  -41.6330 H         1 UNK         0.0600 
    177 H177        2.2376   -9.6009  -42.9864 H         1 UNK         0.0600 
    178 H178        1.3601   -9.9051  -41.4947 H         1 UNK         0.0600 
    179 H179        2.1985  -12.1761  -44.6812 H         1 UNK         0.3000 
    180 H180        5.6656  -12.5917  -44.8179 H         1 UNK         0.0600 
    181 H181        3.5469  -14.7558  -45.3000 H         1 UNK         0.0600 
    182 H182        4.9844  -14.9408  -44.3042 H         1 UNK         0.0600 
    183 H183        5.1468  -14.6947  -46.0362 H         1 UNK         0.0600 
    184 H184        3.5940  -12.7796  -46.7865 H         1 UNK         0.3000 
    185 H185        2.9491   -9.3971  -47.2864 H         1 UNK         0.0600 
    186 H186        4.9022  -10.9606  -49.0613 H         1 UNK         0.0600 
    187 H187        3.9221   -9.5818  -49.5631 H         1 UNK         0.0600 
    188 H188        5.1995   -9.3667  -48.3782 H         1 UNK         0.0600 
    189 H189        2.5219  -11.6035  -49.0128 H         1 UNK         0.3000 
    190 H190       -1.1500  -21.1976  -46.3894 H         1 UNK         0.3000 
    191 H191       -2.4065  -21.8071  -48.8524 H         1 UNK         0.0600 
    192 H192       -2.7082  -19.6387  -47.6830 H         1 UNK         0.0600 
    193 H193       -3.5727  -20.4371  -46.3745 H         1 UNK         0.0600 
    194 H194       -4.2648  -20.3917  -47.9908 H         1 UNK         0.0600 
    195 H195       -3.1491  -22.9662  -45.5222 H         1 UNK         0.3000 
    196 H196       -5.3940  -24.5629  -46.2361 H         1 UNK         0.0600 
    197 H197       -4.9121  -23.9025  -43.9043 H         1 UNK         0.0600 
    198 H198       -3.4223  -24.8418  -43.9063 H         1 UNK         0.0600 
    199 H199       -4.9787  -25.6544  -44.0251 H         1 UNK         0.0600 
    200 H200       -1.9022  -25.3649  -45.9945 H         1 UNK         0.3000 
    201 H201       -2.1606  -28.1299  -46.6019 H         1 UNK         0.0600 
    202 H202       -0.1908  -27.1583  -45.4499 H         1 UNK         0.0600 
    203 H203        0.2471  -26.2598  -46.9013 H         1 UNK         0.0600 
    204 H204        0.3106  -28.0178  -46.8986 H         1 UNK         0.0600 
    205 H205       -1.4054  -25.3197  -48.7178 H         1 UNK         0.3000 
    206 H206       -1.1478  -27.0156  -51.0915 H         1 UNK         0.0600 
    207 H207        0.4098  -25.1051  -50.5708 H         1 UNK         0.0600 
    208 H208       -0.9283  -23.9794  -50.7879 H         1 UNK         0.0600 
    209 H209       -0.3599  -24.9564  -52.1394 H         1 UNK         0.0600 
    210 H210       -3.8597  -25.9657  -49.5856 H         1 UNK         0.3000 
    211 H211       -5.9941  -25.6144  -50.0962 H         1 UNK         0.0600 
    212 H212       -5.3328  -26.8942  -52.8058 H         1 UNK         0.0600 
    213 H213       -6.9365  -26.7070  -52.1124 H         1 UNK         0.0600 
    214 H214       -5.7674  -27.7634  -51.3352 H         1 UNK         0.0600 
    215 H215       -4.9279  -23.3788  -49.9998 H         1 UNK         0.3000 
    216 H216       -4.8836  -21.2259  -50.5098 H         1 UNK         0.0600 
    217 H217       -6.7117  -20.2586  -51.9416 H         1 UNK         0.0600 
    218 H218       -7.3232  -21.4102  -50.7697 H         1 UNK         0.0600 
    219 H219       -7.1599  -21.8733  -52.4569 H         1 UNK         0.0600 
    220 H220       -2.9833  -22.8356  -51.6632 H         1 UNK         0.3000 
    221 H221       -1.2940  -22.9525  -53.1055 H         1 UNK         0.0600 
    222 H222       -1.9973  -20.0705  -53.8693 H         1 UNK         0.0600 
    223 H223       -0.9610  -20.5483  -52.5289 H         1 UNK         0.0600 
    224 H224       -0.4716  -20.8840  -54.1830 H         1 UNK         0.0600 
    225 H225       -3.2747  -24.3884  -53.9168 H         1 UNK         0.3000 
    226 H226       -4.4401  -25.3747  -55.4989 H         1 UNK         0.0600 
    227 H227       -2.2017  -25.6445  -56.5793 H         1 UNK         0.0600 
    228 H228       -3.4890  -25.5535  -57.7704 H         1 UNK         0.0600 
    229 H229       -2.4547  -24.1592  -57.4951 H         1 UNK         0.0600 
    230 H230       -5.6572  -23.2441  -54.5591 H         1 UNK         0.3000 
    231 H231       -7.2634  -21.7617  -54.7446 H         1 UNK         0.0600 
    232 H232       -8.9884  -22.0918  -56.4612 H         1 UNK         0.0600 
    233 H233       -8.3928  -23.6540  -55.9293 H         1 UNK         0.0600 
    234 H234       -7.8723  -22.9915  -57.4787 H         1 UNK         0.0600 
    235 H235       -4.6032  -20.9043  -55.7595 H         1 UNK         0.3000 
    236 H236       -5.1813  -18.8393  -57.7662 H         1 UNK         0.0600 
    237 H237       -2.6649  -19.3548  -56.1030 H         1 UNK         0.0600 
    238 H238       -2.9660  -19.9866  -57.7217 H         1 UNK         0.0600 
    239 H239       -2.8024  -18.2548  -57.4675 H         1 UNK         0.0600 
    240 H240       -4.8200  -19.1096  -54.2241 H         1 UNK         0.3000 
    241 H241       -4.8831  -16.2369  -53.7574 H         1 UNK         0.0600 
    242 H242       -8.3108  -15.5782  -53.0922 H         1 UNK         0.3800 
    243 H243       -6.6879  -14.9502  -53.0974 H         1 UNK         0.3800 
    244 H244       -5.1745  -18.5650  -51.7924 H         1 UNK         0.0800 
    245 H245       -5.0700  -16.8809  -51.3484 H         1 UNK         0.0800 
    246 H246       -3.1484  -18.6016  -49.8732 H         1 UNK         0.0800 
    247 H247       -3.0790  -16.8546  -49.8463 H         1 UNK         0.0800 
@<TRIPOS>BOND
     1    1    2 1    
     2    1  127 1    
     3    1  128 1    
     4    1  129 1    
     5    2    3 2    
     6    2    4 am   BACKBONE|DICT|INTERRES
     7    4    5 1    
     8    4  130 1    
     9    5    6 1    
    10    5   65 1    
    11    5  131 1    
    12    6    7 1    
    13    6  132 1    
    14    6  133 1    
    15    7    8 1    
    16    8    9 1    
    17    8  134 1    
    18    8  135 1    
    19    9   10 ar   
    20    9   14 ar   
    21   10   11 ar   
    22   10  136 1    
    23   11   12 ar   
    24   11  126 1    
    25   12   13 ar   
    26   12  137 1    
    27   13   14 ar   
    28   13   15 1    
    29   14  138 1    
    30   15   16 1    
    31   15  139 1    
    32   15  140 1    
    33   16   17 1    
    34   17   18 1    
    35   17  141 1    
    36   17  142 1    
    37   18   19 1    
    38   18   67 1    
    39   18  143 1    
    40   19   20 am   BACKBONE|DICT|INTERRES
    41   19  144 1    
    42   20   21 2    
    43   20   22 1    
    44   22   23 1    
    45   22   24 1    
    46   22  145 1    
    47   23  146 1    
    48   23  147 1    
    49   23  148 1    
    50   24   25 am   BACKBONE|DICT|INTERRES
    51   24  149 1    
    52   25   26 2    
    53   25   27 1    
    54   27   28 1    
    55   27   29 1    
    56   27  150 1    
    57   28  151 1    
    58   28  152 1    
    59   28  153 1    
    60   29   30 am   BACKBONE|DICT|INTERRES
    61   29  154 1    
    62   30   31 2    
    63   30   32 1    
    64   32   33 1    
    65   32   34 1    
    66   32  155 1    
    67   33  156 1    
    68   33  157 1    
    69   33  158 1    
    70   34   35 am   BACKBONE|DICT|INTERRES
    71   34  159 1    
    72   35   36 2    
    73   35   37 1    
    74   37   38 1    
    75   37   39 1    
    76   37  160 1    
    77   38  161 1    
    78   38  162 1    
    79   38  163 1    
    80   39   40 am   BACKBONE|DICT|INTERRES
    81   39  164 1    
    82   40   41 2    
    83   40   42 1    
    84   42   43 1    
    85   42   44 1    
    86   42  165 1    
    87   43  166 1    
    88   43  167 1    
    89   43  168 1    
    90   44   45 am   BACKBONE|DICT|INTERRES
    91   44  169 1    
    92   45   46 2    
    93   45   47 1    
    94   47   48 1    
    95   47   49 1    
    96   47  170 1    
    97   48  171 1    
    98   48  172 1    
    99   48  173 1    
   100   49   50 am   BACKBONE|DICT|INTERRES
   101   49  174 1    
   102   50   51 2    
   103   50   52 1    
   104   52   53 1    
   105   52   54 1    
   106   52  175 1    
   107   53  176 1    
   108   53  177 1    
   109   53  178 1    
   110   54   55 am   BACKBONE|DICT|INTERRES
   111   54  179 1    
   112   55   56 2    
   113   55   57 1    
   114   57   58 1    
   115   57   59 1    
   116   57  180 1    
   117   58  181 1    
   118   58  182 1    
   119   58  183 1    
   120   59   60 am   BACKBONE|DICT|INTERRES
   121   59  184 1    
   122   60   61 2    
   123   60   62 1    
   124   62   63 1    
   125   62   64 1    
   126   62  185 1    
   127   63  186 1    
   128   63  187 1    
   129   63  188 1    
   130   64   65 am   BACKBONE|DICT|INTERRES
   131   64  189 1    
   132   65   66 2    
   133   67   68 2    
   134   67   69 am   BACKBONE|DICT|INTERRES
   135   69   70 1    
   136   69  190 1    
   137   70   71 1    
   138   70   72 1    
   139   70  191 1    
   140   71  192 1    
   141   71  193 1    
   142   71  194 1    
   143   72   73 2    
   144   72   74 am   BACKBONE|DICT|INTERRES
   145   74   75 1    
   146   74  195 1    
   147   75   76 1    
   148   75   77 1    
   149   75  196 1    
   150   76  197 1    
   151   76  198 1    
   152   76  199 1    
   153   77   78 2    
   154   77   79 am   BACKBONE|DICT|INTERRES
   155   79   80 1    
   156   79  200 1    
   157   80   81 1    
   158   80   82 1    
   159   80  201 1    
   160   81  202 1    
   161   81  203 1    
   162   81  204 1    
   163   82   83 2    
   164   82   84 am   BACKBONE|DICT|INTERRES
   165   84   85 1    
   166   84  205 1    
   167   85   86 1    
   168   85   87 1    
   169   85  206 1    
   170   86  207 1    
   171   86  208 1    
   172   86  209 1    
   173   87   88 2    
   174   87   89 am   BACKBONE|DICT|INTERRES
   175   89   90 1    
   176   89  210 1    
   177   90   91 1    
   178   90   92 1    
   179   90  211 1    
   180   91  212 1    
   181   91  213 1    
   182   91  214 1    
   183   92   93 2    
   184   92   94 am   BACKBONE|DICT|INTERRES
   185   94   95 1    
   186   94  215 1    
   187   95   96 1    
   188   95   97 1    
   189   95  216 1    
   190   96  217 1    
   191   96  218 1    
   192   96  219 1    
   193   97   98 2    
   194   97   99 am   BACKBONE|DICT|INTERRES
   195   99  100 1    
   196   99  220 1    
   197  100  101 1    
   198  100  102 1    
   199  100  221 1    
   200  101  222 1    
   201  101  223 1    
   202  101  224 1    
   203  102  103 2    
   204  102  104 am   BACKBONE|DICT|INTERRES
   205  104  105 1    
   206  104  225 1    
   207  105  106 1    
   208  105  107 1    
   209  105  226 1    
   210  106  227 1    
   211  106  228 1    
   212  106  229 1    
   213  107  108 2    
   214  107  109 am   BACKBONE|DICT|INTERRES
   215  109  110 1    
   216  109  230 1    
   217  110  111 1    
   218  110  112 1    
   219  110  231 1    
   220  111  232 1    
   221  111  233 1    
   222  111  234 1    
   223  112  113 2    
   224  112  114 am   BACKBONE|DICT|INTERRES
   225  114  115 1    
   226  114  235 1    
   227  115  116 1    
   228  115  117 1    
   229  115  236 1    
   230  116  237 1    
   231  116  238 1    
   232  116  239 1    
   233  117  118 2    
   234  117  119 am   BACKBONE|DICT|INTERRES
   235  119  120 1    
   236  119  240 1    
   237  120  121 1    
   238  120  124 1    
   239  120  241 1    
   240  121  122 am   BACKBONE|DICT|INTERRES
   241  121  123 2    
   242  122  242 1    
   243  122  243 1    
   244  124  125 1    
   245  124  244 1    
   246  124  245 1    
   247  125  126 1    
   248  126  246 1    
   249  126  247 1    
@<TRIPOS>SUBSTRUCTURE
     1 UNK         1 GROUP             0       ****    0 ROOT    
