@<TRIPOS>MOLECULE
3R540
247   249    1
SMALL
USER_CHARGES


@<TRIPOS>ATOM
      1 CA         -2.9146  -15.0416  -47.7013 C.3       0 UNK        -0.1800 
      2 C          -1.6942  -14.1481  -47.8702 C.2       0 UNK         0.5000 
      3 O          -0.5811  -14.5758  -47.5658 O.2       0 UNK        -0.5000 
      4 N          -1.8986  -12.9097  -48.3388 N.am      1 UNK        -0.5000 
      5 CA         -0.8921  -11.8655  -48.5824 C.3       1 UNK         0.1400 
      6 C6          0.1322  -12.2162  -49.6971 C.3       23 UNK        -0.0398 
      7 S7         -0.6490  -12.3401  -51.3433 S.3       23 UNK        -0.2404 
      8 C8          0.1445  -13.8226  -52.0450 C.3       23 UNK        -0.0205 
      9 C9         -0.5461  -15.1028  -51.6007 C.ar      23 UNK        -0.0193 
     10 C10        -1.6853  -15.5532  -52.2742 C.ar      23 UNK        -0.1150 
     11 C11        -2.3306  -16.7254  -51.8709 C.ar      23 UNK        -0.0193 
     12 C12        -1.8379  -17.4412  -50.7768 C.ar      23 UNK        -0.1150 
     13 C13        -0.6918  -17.0087  -50.1034 C.ar      23 UNK        -0.0193 
     14 C14        -0.0459  -15.8430  -50.5262 C.ar      23 UNK        -0.1150 
     15 C15        -0.1899  -17.7576  -48.8787 C.3       23 UNK        -0.0205 
     16 S16         0.1598  -19.5135  -49.2064 S.3       23 UNK        -0.2404 
     17 C17         0.2624  -20.1590  -47.5012 C.3       23 UNK        -0.0398 
     18 CA         -1.0438  -20.8747  -47.0788 C.3       11 UNK         0.1400 
     19 N          -0.8231  -21.9161  -46.0765 N.am      11 UNK        -0.5000 
     20 C          -1.6825  -22.9126  -45.8221 C.2       10 UNK         0.5000 
     21 O          -2.7263  -23.0906  -46.4552 O.2       10 UNK        -0.5000 
     22 CA         -1.3247  -23.8533  -44.6562 C.3       10 UNK         0.1400 
     23 CB         -0.4565  -25.0182  -45.1531 C.3       10 UNK        -0.1800 
     24 N          -0.6350  -23.1663  -43.5605 N.am      10 UNK        -0.5000 
     25 C          -1.2158  -22.2534  -42.7701 C.2       9 UNK         0.5000 
     26 O          -2.3894  -21.9067  -42.8829 O.2       9 UNK        -0.5000 
     27 CA         -0.3324  -21.5731  -41.7100 C.3       9 UNK         0.1400 
     28 CB         -0.2342  -22.4435  -40.4487 C.3       9 UNK        -0.1800 
     29 N           1.0166  -21.2231  -42.1627 N.am      9 UNK        -0.5000 
     30 C           1.3208  -20.4932  -43.2443 C.2       8 UNK         0.5000 
     31 O           0.4939  -20.1318  -44.0840 O.2       8 UNK        -0.5000 
     32 CA          2.7908  -20.0580  -43.3634 C.3       8 UNK         0.1400 
     33 CB          3.1117  -19.4067  -44.7205 C.3       8 UNK        -0.1800 
     34 N           3.0838  -19.1016  -42.3002 N.am      8 UNK        -0.5000 
     35 C           3.5354  -19.4033  -41.0767 C.2       7 UNK         0.5000 
     36 O           3.8101  -20.5507  -40.7202 O.2       7 UNK        -0.5000 
     37 CA          3.6634  -18.2231  -40.0897 C.3       7 UNK         0.1400 
     38 CB          4.5709  -18.5303  -38.8803 C.3       7 UNK        -0.1800 
     39 N           4.0544  -16.9748  -40.7536 N.am      7 UNK        -0.5000 
     40 C           5.2142  -16.6957  -41.3674 C.2       6 UNK         0.5000 
     41 O           6.1838  -17.4546  -41.3885 O.2       6 UNK        -0.5000 
     42 CA          5.3040  -15.3451  -42.1088 C.3       6 UNK         0.1400 
     43 CB          5.2303  -15.5688  -43.6271 C.3       6 UNK        -0.1800 
     44 N           4.2604  -14.3903  -41.7267 N.am      6 UNK        -0.5000 
     45 C           4.2090  -13.7301  -40.5612 C.2       5 UNK         0.5000 
     46 O           5.0592  -13.8335  -39.6765 O.2       5 UNK        -0.5000 
     47 CA          2.9871  -12.8220  -40.3409 C.3       5 UNK         0.1400 
     48 CB          3.2155  -11.4378  -40.9684 C.3       5 UNK        -0.1800 
     49 N           1.7718  -13.4163  -40.8998 N.am      5 UNK        -0.5000 
     50 C           1.0180  -14.3302  -40.2723 C.2       4 UNK         0.5000 
     51 O           1.2418  -14.7321  -39.1304 O.2       4 UNK        -0.5000 
     52 CA         -0.1763  -14.9107  -41.0561 C.3       4 UNK         0.1400 
     53 CB         -1.4405  -14.0721  -40.8166 C.3       4 UNK        -0.1800 
     54 N           0.0710  -15.0040  -42.4955 N.am      4 UNK        -0.5000 
     55 C           0.9557  -15.8383  -43.0561 C.2       3 UNK         0.5000 
     56 O           1.6357  -16.6432  -42.4216 O.2       3 UNK        -0.5000 
     57 CA          1.1450  -15.7345  -44.5779 C.3       3 UNK         0.1400 
     58 CB          0.1779  -16.6828  -45.2918 C.3       3 UNK        -0.1800 
     59 N           0.9956  -14.3856  -45.1318 N.am      3 UNK        -0.5000 
     60 C           1.7024  -13.3069  -44.7569 C.2       2 UNK         0.5000 
     61 O           2.5077  -13.3259  -43.8247 O.2       2 UNK        -0.5000 
     62 CA          1.4811  -11.9941  -45.5332 C.3       2 UNK         0.1400 
     63 CB          2.8107  -11.2900  -45.8583 C.3       2 UNK        -0.1800 
     64 N           0.7331  -12.2148  -46.7705 N.am      2 UNK        -0.5000 
     65 C          -0.2036  -11.4056  -47.2773 C.2       1 UNK         0.5000 
     66 O          -0.5405  -10.3404  -46.7577 O.2       1 UNK        -0.5000 
     67 C          -2.1353  -19.8939  -46.6116 C.2       11 UNK         0.5000 
     68 O          -3.0331  -19.5715  -47.3899 O.2       11 UNK        -0.5000 
     69 N          -2.0674  -19.4883  -45.3356 N.am      12 UNK        -0.5000 
     70 CA         -3.0607  -18.6356  -44.6821 C.3       12 UNK         0.1400 
     71 CB         -2.5716  -18.2656  -43.2715 C.3       12 UNK        -0.1800 
     72 C          -4.4565  -19.2855  -44.6159 C.2       12 UNK         0.5000 
     73 O          -5.4549  -18.6020  -44.8449 O.2       12 UNK        -0.5000 
     74 N          -4.4968  -20.5880  -44.3038 N.am      13 UNK        -0.5000 
     75 CA         -5.7222  -21.3683  -44.1640 C.3       13 UNK         0.1400 
     76 CB         -5.4221  -22.6790  -43.4193 C.3       13 UNK        -0.1800 
     77 C          -6.4187  -21.6614  -45.5022 C.2       13 UNK         0.5000 
     78 O          -7.6254  -21.4339  -45.6059 O.2       13 UNK        -0.5000 
     79 N          -5.6767  -22.2001  -46.4815 N.am      14 UNK        -0.5000 
     80 CA         -6.2696  -22.7885  -47.6859 C.3       14 UNK         0.1400 
     81 CB         -6.7653  -24.2161  -47.3669 C.3       14 UNK        -0.1800 
     82 C          -5.3322  -22.7610  -48.9043 C.2       14 UNK         0.5000 
     83 O          -5.4441  -23.6390  -49.7615 O.2       14 UNK        -0.5000 
     84 N          -4.4156  -21.7819  -48.9742 N.am      15 UNK        -0.5000 
     85 CA         -3.4662  -21.5671  -50.0799 C.3       15 UNK         0.1400 
     86 CB         -4.2069  -21.0383  -51.3242 C.3       15 UNK        -0.1800 
     87 C          -2.5842  -22.8022  -50.3820 C.2       15 UNK         0.5000 
     88 O          -2.2932  -23.0945  -51.5433 O.2       15 UNK        -0.5000 
     89 N          -2.2165  -23.5290  -49.3148 N.am      16 UNK        -0.5000 
     90 CA         -1.4492  -24.7775  -49.3048 C.3       16 UNK         0.1400 
     91 CB         -0.0169  -24.5490  -49.8295 C.3       16 UNK        -0.1800 
     92 C          -2.1730  -25.9505  -50.0008 C.2       16 UNK         0.5000 
     93 O          -1.5159  -26.8719  -50.4867 O.2       16 UNK        -0.5000 
     94 N          -3.5134  -25.8917  -50.0451 N.am      17 UNK        -0.5000 
     95 CA         -4.4763  -26.8480  -50.6083 C.3       17 UNK         0.1400 
     96 CB         -4.3567  -28.2302  -49.9389 C.3       17 UNK        -0.1800 
     97 C          -4.4501  -26.9663  -52.1451 C.2       17 UNK         0.5000 
     98 O          -5.5106  -27.1223  -52.7517 O.2       17 UNK        -0.5000 
     99 N          -3.2601  -26.8814  -52.7518 N.am      18 UNK        -0.5000 
    100 CA        -3.0432  -26.9023  -54.1982 C.3       18 UNK         0.1400 
    101 CB        -1.5415  -27.0634  -54.4789 C.3       18 UNK        -0.1800 
    102 C         -3.5908  -25.6480  -54.9031 C.2       18 UNK         0.5000 
    103 O         -4.0795  -25.7554  -56.0290 O.2       18 UNK        -0.5000 
    104 N         -3.5017  -24.4938  -54.2239 N.am      19 UNK        -0.5000 
    105 CA        -3.9484  -23.1525  -54.6156 C.3       19 UNK         0.1400 
    106 CB        -5.4751  -23.1016  -54.8167 C.3       19 UNK        -0.1800 
    107 C         -3.1979  -22.5468  -55.8160 C.2       19 UNK         0.5000 
    108 O         -2.6755  -21.4386  -55.6971 O.2       19 UNK        -0.5000 
    109 N         -3.1583  -23.2693  -56.9436 N.am      20 UNK        -0.5000 
    110 CA        -2.5568  -22.8919  -58.2253 C.3       20 UNK         0.1400 
    111 CB        -1.0161  -22.9541  -58.1275 C.3       20 UNK        -0.1800 
    112 C         -3.1057  -21.5380  -58.7239 C.2       20 UNK         0.5000 
    113 O         -4.2862  -21.4582  -59.0708 O.2       20 UNK        -0.5000 
    114 N         -2.2682  -20.4920  -58.6979 N.am      21 UNK        -0.5000 
    115 CA        -2.6124  -19.1094  -59.0399 C.3       21 UNK         0.1400 
    116 CB        -1.3364  -18.2550  -58.9916 C.3       21 UNK        -0.1800 
    117 C         -3.7102  -18.4888  -58.1497 C.2       21 UNK         0.5000 
    118 O         -4.3865  -17.5605  -58.5951 O.2       21 UNK        -0.5000 
    119 N         -3.8862  -19.0141  -56.9296 N.am      22 UNK        -0.5000 
    120 CA        -4.9765  -18.6461  -56.0116 C.3       22 UNK         0.1400 
    121 C         -6.3640  -19.2339  -56.4107 C.2       22 UNK         0.5000 
    122 N         -6.4616  -20.1440  -57.3747 N.am      22 UNK        -0.7600 
    123 O         -7.3780  -18.8512  -55.8338 O.2       22 UNK        -0.5000 
    124 C124       -4.6467  -18.9966  -54.5369 C.3       23 UNK        -0.0398 
    125 S125       -3.0425  -18.3344  -53.9727 S.3       23 UNK        -0.2404 
    126 C126       -3.5499  -17.2293  -52.6231 C.3       23 UNK        -0.0205 
    127 H127       -2.8501  -15.8961  -48.3742 H         1 UNK         0.0600 
    128 H128       -3.8408  -14.5084  -47.9164 H         1 UNK         0.0600 
    129 H129       -2.9661  -15.4163  -46.6791 H         1 UNK         0.0600 
    130 H130       -2.8458  -12.6298  -48.5502 H         1 UNK         0.3000 
    131 H131       -1.4569  -11.0000  -48.9335 H         1 UNK         0.0600 
    132 H132        0.8993  -11.4428  -49.7665 H         1 UNK         0.0800 
    133 H133        0.6588  -13.1418  -49.4662 H         1 UNK         0.0800 
    134 H134        0.1080  -13.7542  -53.1332 H         1 UNK         0.0800 
    135 H135        1.2032  -13.8404  -51.7812 H         1 UNK         0.0800 
    136 H136       -2.0676  -14.9926  -53.1158 H         1 UNK         0.1150 
    137 H137       -2.3430  -18.3395  -50.4504 H         1 UNK         0.1150 
    138 H138        0.8310  -15.4955  -49.9988 H         1 UNK         0.1150 
    139 H139        0.7220  -17.2941  -48.5012 H         1 UNK         0.0800 
    140 H140       -0.9427  -17.6651  -48.0958 H         1 UNK         0.0800 
    141 H141        1.0902  -20.8693  -47.4911 H         1 UNK         0.0800 
    142 H142        0.5436  -19.3707  -46.8010 H         1 UNK         0.0800 
    143 H143       -1.4280  -21.3816  -47.9610 H         1 UNK         0.0600 
    144 H144       -0.0371  -21.7819  -45.4545 H         1 UNK         0.3000 
    145 H145       -2.2576  -24.2657  -44.2660 H         1 UNK         0.0600 
    146 H146       -0.2230  -25.7091  -44.3428 H         1 UNK         0.0600 
    147 H147       -0.9752  -25.5903  -45.9229 H         1 UNK         0.0600 
    148 H148        0.4851  -24.6688  -45.5788 H         1 UNK         0.0600 
    149 H149        0.3377  -23.3912  -43.4106 H         1 UNK         0.3000 
    150 H150       -0.8252  -20.6385  -41.4350 H         1 UNK         0.0600 
    151 H151       -1.2253  -22.7034  -40.0741 H         1 UNK         0.0600 
    152 H152        0.2870  -21.9195  -39.6472 H         1 UNK         0.0600 
    153 H153        0.2988  -23.3751  -40.6429 H         1 UNK         0.0600 
    154 H154        1.7717  -21.4521  -41.5294 H         1 UNK         0.3000 
    155 H155        3.4182  -20.9455  -43.2582 H         1 UNK         0.0600 
    156 H156        4.1649  -19.1331  -44.7840 H         1 UNK         0.0600 
    157 H157        2.5246  -18.5045  -44.8869 H         1 UNK         0.0600 
    158 H158        2.9031  -20.0925  -45.5423 H         1 UNK         0.0600 
    159 H159        2.7644  -18.1489  -42.4567 H         1 UNK         0.3000 
    160 H160        2.6577  -18.0492  -39.7043 H         1 UNK         0.0600 
    161 H161        5.5810  -18.8031  -39.1865 H         1 UNK         0.0600 
    162 H162        4.1734  -19.3617  -38.2971 H         1 UNK         0.0600 
    163 H163        4.6419  -17.6715  -38.2129 H         1 UNK         0.0600 
    164 H164        3.3095  -16.3000  -40.8660 H         1 UNK         0.3000 
    165 H165        6.2745  -14.9033  -41.8738 H         1 UNK         0.0600 
    166 H166        4.3005  -16.0594  -43.9129 H         1 UNK         0.0600 
    167 H167        5.2952  -14.6264  -44.1717 H         1 UNK         0.0600 
    168 H168        6.0509  -16.2005  -43.9694 H         1 UNK         0.0600 
    169 H169        3.5511  -14.1882  -42.4252 H         1 UNK         0.3000 
    170 H170        2.8579  -12.6854  -39.2650 H         1 UNK         0.0600 
    171 H171        4.0972  -10.9584  -40.5412 H         1 UNK         0.0600 
    172 H172        3.3670  -11.4988  -42.0465 H         1 UNK         0.0600 
    173 H173        2.3669  -10.7783  -40.7863 H         1 UNK         0.0600 
    174 H174        1.5647  -13.1905  -41.8638 H         1 UNK         0.3000 
    175 H175       -0.3601  -15.9191  -40.6787 H         1 UNK         0.0600 
    176 H176       -1.3276  -13.0555  -41.1954 H         1 UNK         0.0600 
    177 H177       -2.3077  -14.5186  -41.3036 H         1 UNK         0.0600 
    178 H178       -1.6670  -14.0027  -39.7518 H         1 UNK         0.0600 
    179 H179       -0.4420  -14.3725  -43.0926 H         1 UNK         0.3000 
    180 H180        2.1610  -16.0624  -44.8000 H         1 UNK         0.0600 
    181 H181       -0.8546  -16.3394  -45.2235 H         1 UNK         0.0600 
    182 H182        0.2239  -17.6862  -44.8724 H         1 UNK         0.0600 
    183 H183        0.4371  -16.7632  -46.3428 H         1 UNK         0.0600 
    184 H184        0.3475  -14.3068  -45.9098 H         1 UNK         0.3000 
    185 H185        0.9033  -11.3494  -44.8681 H         1 UNK         0.0600 
    186 H186        2.6403  -10.3414  -46.3676 H         1 UNK         0.0600 
    187 H187        3.4424  -11.9062  -46.4991 H         1 UNK         0.0600 
    188 H188        3.3749  -11.0711  -44.9507 H         1 UNK         0.0600 
    189 H189        0.8769  -13.1081  -47.2269 H         1 UNK         0.3000 
    190 H190       -1.2793  -19.7930  -44.7708 H         1 UNK         0.3000 
    191 H191       -3.1460  -17.7177  -45.2674 H         1 UNK         0.0600 
    192 H192       -1.6012  -17.7724  -43.2959 H         1 UNK         0.0600 
    193 H193       -3.2689  -17.5826  -42.7850 H         1 UNK         0.0600 
    194 H194       -2.4782  -19.1453  -42.6348 H         1 UNK         0.0600 
    195 H195       -3.6324  -21.0565  -44.0467 H         1 UNK         0.3000 
    196 H196       -6.4180  -20.7928  -43.5495 H         1 UNK         0.0600 
    197 H197       -6.3224  -23.2858  -43.3142 H         1 UNK         0.0600 
    198 H198       -5.0457  -22.4830  -42.4152 H         1 UNK         0.0600 
    199 H199       -4.6790  -23.2809  -43.9438 H         1 UNK         0.0600 
    200 H200       -4.6866  -22.3691  -46.3342 H         1 UNK         0.3000 
    201 H201       -7.1329  -22.1913  -47.9864 H         1 UNK         0.0600 
    202 H202       -7.4817  -24.2170  -46.5455 H         1 UNK         0.0600 
    203 H203       -5.9379  -24.8704  -47.0895 H         1 UNK         0.0600 
    204 H204       -7.2684  -24.6649  -48.2243 H         1 UNK         0.0600 
    205 H205       -4.3700  -21.0985  -48.2269 H         1 UNK         0.3000 
    206 H206       -2.7834  -20.7798  -49.7623 H         1 UNK         0.0600 
    207 H207       -4.7905  -20.1492  -51.0865 H         1 UNK         0.0600 
    208 H208       -3.5002  -20.7587  -52.1060 H         1 UNK         0.0600 
    209 H209       -4.8856  -21.7834  -51.7399 H         1 UNK         0.0600 
    210 H210       -2.5534  -23.2341  -48.4028 H         1 UNK         0.3000 
    211 H211       -1.3674  -25.0662  -48.2571 H         1 UNK         0.0600 
    212 H212       -0.0053  -24.3317  -50.8978 H         1 UNK         0.0600 
    213 H213        0.6038  -25.4313  -49.6699 H         1 UNK         0.0600 
    214 H214        0.4634  -23.7183  -49.3122 H         1 UNK         0.0600 
    215 H215       -3.9480  -25.0408  -49.7035 H         1 UNK         0.3000 
    216 H216       -5.4584  -26.4481  -50.3504 H         1 UNK         0.0600 
    217 H217       -4.4380  -28.1514  -48.8548 H         1 UNK         0.0600 
    218 H218       -3.4093  -28.7171  -50.1712 H         1 UNK         0.0600 
    219 H219       -5.1530  -28.8942  -50.2771 H         1 UNK         0.0600 
    220 H220       -2.4403  -26.8064  -52.1568 H         1 UNK         0.3000 
    221 H221       -3.5646  -27.7699  -54.6079 H         1 UNK         0.0600 
    222 H222       -0.9634  -26.2361  -54.0649 H         1 UNK         0.0600 
    223 H223       -1.1574  -27.9885  -54.0488 H         1 UNK         0.0600 
    224 H224       -1.3456  -27.0977  -55.5515 H         1 UNK         0.0600 
    225 H225       -3.0531  -24.5270  -53.3169 H         1 UNK         0.3000 
    226 H226       -3.7165  -22.5140  -53.7644 H         1 UNK         0.0600 
    227 H227       -5.9987  -23.4319  -53.9194 H         1 UNK         0.0600 
    228 H228       -5.8092  -22.0867  -55.0323 H         1 UNK         0.0600 
    229 H229       -5.8016  -23.7302  -55.6453 H         1 UNK         0.0600 
    230 H230       -3.6132  -24.1786  -56.9139 H         1 UNK         0.3000 
    231 H231       -2.8742  -23.6396  -58.9534 H         1 UNK         0.0600 
    232 H232       -0.5501  -22.7046  -59.0816 H         1 UNK         0.0600 
    233 H233       -0.6870  -23.9597  -57.8652 H         1 UNK         0.0600 
    234 H234       -0.6195  -22.2747  -57.3722 H         1 UNK         0.0600 
    235 H235       -1.3312  -20.6468  -58.3553 H         1 UNK         0.3000 
    236 H236       -2.9878  -19.1078  -60.0651 H         1 UNK         0.0600 
    237 H237       -0.5818  -18.6312  -59.6827 H         1 UNK         0.0600 
    238 H238       -1.5463  -17.2221  -59.2728 H         1 UNK         0.0600 
    239 H239       -0.9012  -18.2409  -57.9915 H         1 UNK         0.0600 
    240 H240       -3.2891  -19.7762  -56.6231 H         1 UNK         0.3000 
    241 H241       -5.0893  -17.5614  -56.0612 H         1 UNK         0.0600 
    242 H242       -7.3704  -20.5037  -57.6193 H         1 UNK         0.3800 
    243 H243       -5.6456  -20.4700  -57.8802 H         1 UNK         0.3800 
    244 H244       -4.6225  -20.0771  -54.3991 H         1 UNK         0.0800 
    245 H245       -5.4361  -18.6316  -53.8777 H         1 UNK         0.0800 
    246 H246       -4.2136  -17.7609  -51.9395 H         1 UNK         0.0800 
    247 H247       -4.1211  -16.3928  -53.0288 H         1 UNK         0.0800 
@<TRIPOS>BOND
     1    1    2 1    
     2    1  127 1    
     3    1  128 1    
     4    1  129 1    
     5    2    3 2    
     6    2    4 am   BACKBONE|DICT|INTERRES
     7    4    5 1    
     8    4  130 1    
     9    5    6 1    
    10    5   65 1    
    11    5  131 1    
    12    6    7 1    
    13    6  132 1    
    14    6  133 1    
    15    7    8 1    
    16    8    9 1    
    17    8  134 1    
    18    8  135 1    
    19    9   10 ar   
    20    9   14 ar   
    21   10   11 ar   
    22   10  136 1    
    23   11   12 ar   
    24   11  126 1    
    25   12   13 ar   
    26   12  137 1    
    27   13   14 ar   
    28   13   15 1    
    29   14  138 1    
    30   15   16 1    
    31   15  139 1    
    32   15  140 1    
    33   16   17 1    
    34   17   18 1    
    35   17  141 1    
    36   17  142 1    
    37   18   19 1    
    38   18   67 1    
    39   18  143 1    
    40   19   20 am   BACKBONE|DICT|INTERRES
    41   19  144 1    
    42   20   21 2    
    43   20   22 1    
    44   22   23 1    
    45   22   24 1    
    46   22  145 1    
    47   23  146 1    
    48   23  147 1    
    49   23  148 1    
    50   24   25 am   BACKBONE|DICT|INTERRES
    51   24  149 1    
    52   25   26 2    
    53   25   27 1    
    54   27   28 1    
    55   27   29 1    
    56   27  150 1    
    57   28  151 1    
    58   28  152 1    
    59   28  153 1    
    60   29   30 am   BACKBONE|DICT|INTERRES
    61   29  154 1    
    62   30   31 2    
    63   30   32 1    
    64   32   33 1    
    65   32   34 1    
    66   32  155 1    
    67   33  156 1    
    68   33  157 1    
    69   33  158 1    
    70   34   35 am   BACKBONE|DICT|INTERRES
    71   34  159 1    
    72   35   36 2    
    73   35   37 1    
    74   37   38 1    
    75   37   39 1    
    76   37  160 1    
    77   38  161 1    
    78   38  162 1    
    79   38  163 1    
    80   39   40 am   BACKBONE|DICT|INTERRES
    81   39  164 1    
    82   40   41 2    
    83   40   42 1    
    84   42   43 1    
    85   42   44 1    
    86   42  165 1    
    87   43  166 1    
    88   43  167 1    
    89   43  168 1    
    90   44   45 am   BACKBONE|DICT|INTERRES
    91   44  169 1    
    92   45   46 2    
    93   45   47 1    
    94   47   48 1    
    95   47   49 1    
    96   47  170 1    
    97   48  171 1    
    98   48  172 1    
    99   48  173 1    
   100   49   50 am   BACKBONE|DICT|INTERRES
   101   49  174 1    
   102   50   51 2    
   103   50   52 1    
   104   52   53 1    
   105   52   54 1    
   106   52  175 1    
   107   53  176 1    
   108   53  177 1    
   109   53  178 1    
   110   54   55 am   BACKBONE|DICT|INTERRES
   111   54  179 1    
   112   55   56 2    
   113   55   57 1    
   114   57   58 1    
   115   57   59 1    
   116   57  180 1    
   117   58  181 1    
   118   58  182 1    
   119   58  183 1    
   120   59   60 am   BACKBONE|DICT|INTERRES
   121   59  184 1    
   122   60   61 2    
   123   60   62 1    
   124   62   63 1    
   125   62   64 1    
   126   62  185 1    
   127   63  186 1    
   128   63  187 1    
   129   63  188 1    
   130   64   65 am   BACKBONE|DICT|INTERRES
   131   64  189 1    
   132   65   66 2    
   133   67   68 2    
   134   67   69 am   BACKBONE|DICT|INTERRES
   135   69   70 1    
   136   69  190 1    
   137   70   71 1    
   138   70   72 1    
   139   70  191 1    
   140   71  192 1    
   141   71  193 1    
   142   71  194 1    
   143   72   73 2    
   144   72   74 am   BACKBONE|DICT|INTERRES
   145   74   75 1    
   146   74  195 1    
   147   75   76 1    
   148   75   77 1    
   149   75  196 1    
   150   76  197 1    
   151   76  198 1    
   152   76  199 1    
   153   77   78 2    
   154   77   79 am   BACKBONE|DICT|INTERRES
   155   79   80 1    
   156   79  200 1    
   157   80   81 1    
   158   80   82 1    
   159   80  201 1    
   160   81  202 1    
   161   81  203 1    
   162   81  204 1    
   163   82   83 2    
   164   82   84 am   BACKBONE|DICT|INTERRES
   165   84   85 1    
   166   84  205 1    
   167   85   86 1    
   168   85   87 1    
   169   85  206 1    
   170   86  207 1    
   171   86  208 1    
   172   86  209 1    
   173   87   88 2    
   174   87   89 am   BACKBONE|DICT|INTERRES
   175   89   90 1    
   176   89  210 1    
   177   90   91 1    
   178   90   92 1    
   179   90  211 1    
   180   91  212 1    
   181   91  213 1    
   182   91  214 1    
   183   92   93 2    
   184   92   94 am   BACKBONE|DICT|INTERRES
   185   94   95 1    
   186   94  215 1    
   187   95   96 1    
   188   95   97 1    
   189   95  216 1    
   190   96  217 1    
   191   96  218 1    
   192   96  219 1    
   193   97   98 2    
   194   97   99 am   BACKBONE|DICT|INTERRES
   195   99  100 1    
   196   99  220 1    
   197  100  101 1    
   198  100  102 1    
   199  100  221 1    
   200  101  222 1    
   201  101  223 1    
   202  101  224 1    
   203  102  103 2    
   204  102  104 am   BACKBONE|DICT|INTERRES
   205  104  105 1    
   206  104  225 1    
   207  105  106 1    
   208  105  107 1    
   209  105  226 1    
   210  106  227 1    
   211  106  228 1    
   212  106  229 1    
   213  107  108 2    
   214  107  109 am   BACKBONE|DICT|INTERRES
   215  109  110 1    
   216  109  230 1    
   217  110  111 1    
   218  110  112 1    
   219  110  231 1    
   220  111  232 1    
   221  111  233 1    
   222  111  234 1    
   223  112  113 2    
   224  112  114 am   BACKBONE|DICT|INTERRES
   225  114  115 1    
   226  114  235 1    
   227  115  116 1    
   228  115  117 1    
   229  115  236 1    
   230  116  237 1    
   231  116  238 1    
   232  116  239 1    
   233  117  118 2    
   234  117  119 am   BACKBONE|DICT|INTERRES
   235  119  120 1    
   236  119  240 1    
   237  120  121 1    
   238  120  124 1    
   239  120  241 1    
   240  121  122 am   BACKBONE|DICT|INTERRES
   241  121  123 2    
   242  122  242 1    
   243  122  243 1    
   244  124  125 1    
   245  124  244 1    
   246  124  245 1    
   247  125  126 1    
   248  126  246 1    
   249  126  247 1    
@<TRIPOS>SUBSTRUCTURE
     1 UNK         1 GROUP             0       ****    0 ROOT    
