@<TRIPOS>MOLECULE
3R540
247   249    1
SMALL
USER_CHARGES


@<TRIPOS>ATOM
      1 CA         -2.5712  -15.4733  -49.0493 C.3       0 UNK        -0.1800 
      2 C          -1.3686  -14.7706  -48.4441 C.2       0 UNK         0.5000 
      3 O          -1.5375  -13.8500  -47.6452 O.2       0 UNK        -0.5000 
      4 N          -0.1607  -15.2054  -48.8174 N.am      1 UNK        -0.5000 
      5 CA          1.1010  -14.7615  -48.2179 C.3       1 UNK         0.1400 
      6 C6          2.2975  -14.9306  -49.1890 C.3       23 UNK        -0.0398 
      7 S7          2.0813  -13.9438  -50.7134 S.3       23 UNK        -0.2404 
      8 C8          2.3202  -15.1740  -52.0370 C.3       23 UNK        -0.0205 
      9 C9          1.3145  -16.3131  -51.9642 C.ar      23 UNK        -0.0193 
     10 C10        -0.0274  -16.0988  -52.2872 C.ar      23 UNK        -0.1150 
     11 C11        -0.9638  -17.1347  -52.2022 C.ar      23 UNK        -0.0193 
     12 C12        -0.5356  -18.3993  -51.7722 C.ar      23 UNK        -0.1150 
     13 C13         0.8102  -18.6306  -51.4669 C.ar      23 UNK        -0.0193 
     14 C14         1.7298  -17.5866  -51.5750 C.ar      23 UNK        -0.1150 
     15 C15         1.2760  -20.0113  -51.0272 C.3       23 UNK        -0.0205 
     16 S16         2.1192  -20.0191  -49.4062 S.3       23 UNK        -0.2404 
     17 C17         0.9925  -19.0801  -48.3174 C.3       23 UNK        -0.0398 
     18 CA         -0.0487  -19.9643  -47.5949 C.3       11 UNK         0.1400 
     19 N          -0.4170  -19.4364  -46.2785 N.am      11 UNK        -0.5000 
     20 C          -1.1240  -20.1370  -45.3787 C.2       10 UNK         0.5000 
     21 O          -1.4709  -21.3045  -45.5614 O.2       10 UNK        -0.5000 
     22 CA         -1.5571  -19.4330  -44.0810 C.3       10 UNK         0.1400 
     23 CB         -0.8022  -20.0016  -42.8764 C.3       10 UNK        -0.1800 
     24 N          -1.4065  -17.9774  -44.0942 N.am      10 UNK        -0.5000 
     25 C          -2.1678  -17.1430  -44.8171 C.2       9 UNK         0.5000 
     26 O          -2.9827  -17.5337  -45.6550 O.2       9 UNK        -0.5000 
     27 CA         -2.0061  -15.6354  -44.5517 C.3       9 UNK         0.1400 
     28 CB         -3.3628  -14.9116  -44.4888 C.3       9 UNK        -0.1800 
     29 N          -1.2581  -15.3764  -43.3175 N.am      9 UNK        -0.5000 
     30 C          -0.3011  -14.4510  -43.1971 C.2       8 UNK         0.5000 
     31 O           0.0036  -13.6656  -44.0944 O.2       8 UNK        -0.5000 
     32 CA          0.4648  -14.3724  -41.8625 C.3       8 UNK         0.1400 
     33 CB          0.0383  -13.1220  -41.0773 C.3       8 UNK        -0.1800 
     34 N           0.3667  -15.5313  -40.9706 N.am      8 UNK        -0.5000 
     35 C           0.7995  -16.7806  -41.1975 C.2       7 UNK         0.5000 
     36 O           1.1330  -17.2123  -42.3041 O.2       7 UNK        -0.5000 
     37 CA          0.9186  -17.6589  -39.9373 C.3       7 UNK         0.1400 
     38 CB          1.6542  -18.9895  -40.1775 C.3       7 UNK        -0.1800 
     39 N           1.6469  -16.8952  -38.9249 N.am      7 UNK        -0.5000 
     40 C           1.2527  -16.6702  -37.6648 C.2       6 UNK         0.5000 
     41 O           0.2166  -17.1360  -37.1883 O.2       6 UNK        -0.5000 
     42 CA          2.1321  -15.7305  -36.8049 C.3       6 UNK         0.1400 
     43 CB          2.2017  -16.1692  -35.3267 C.3       6 UNK        -0.1800 
     44 N           3.4729  -15.4877  -37.3584 N.am      6 UNK        -0.5000 
     45 C           4.4657  -16.3773  -37.4946 C.2       5 UNK         0.5000 
     46 O           4.4211  -17.5402  -37.0874 O.2       5 UNK        -0.5000 
     47 CA          5.7121  -15.8909  -38.2596 C.3       5 UNK         0.1400 
     48 CB          6.8974  -15.6878  -37.3037 C.3       5 UNK        -0.1800 
     49 N           6.0878  -16.8461  -39.3030 N.am      5 UNK        -0.5000 
     50 C           5.3089  -17.1749  -40.3414 C.2       4 UNK         0.5000 
     51 O           4.2457  -16.6014  -40.6062 O.2       4 UNK        -0.5000 
     52 CA          5.7782  -18.3604  -41.2007 C.3       4 UNK         0.1400 
     53 CB          5.8092  -19.6606  -40.3686 C.3       4 UNK        -0.1800 
     54 N           4.8537  -18.4974  -42.3195 N.am      4 UNK        -0.5000 
     55 C           4.9785  -19.2932  -43.3876 C.2       3 UNK         0.5000 
     56 O           5.9554  -20.0117  -43.6009 O.2       3 UNK        -0.5000 
     57 CA          3.8074  -19.2840  -44.3874 C.3       3 UNK         0.1400 
     58 CB          2.8166  -20.4084  -44.0550 C.3       3 UNK        -0.1800 
     59 N           3.1059  -17.9982  -44.3818 N.am      3 UNK        -0.5000 
     60 C           3.5005  -16.9447  -45.1049 C.2       2 UNK         0.5000 
     61 O           4.4262  -16.9713  -45.9193 O.2       2 UNK        -0.5000 
     62 CA          2.7524  -15.6269  -44.8584 C.3       2 UNK         0.1400 
     63 CB          3.6306  -14.6400  -44.0741 C.3       2 UNK        -0.1800 
     64 N           2.3278  -15.0134  -46.1127 N.am      2 UNK        -0.5000 
     65 C           1.3498  -15.5014  -46.8849 C.2       1 UNK         0.5000 
     66 O           0.6752  -16.4915  -46.5789 O.2       1 UNK        -0.5000 
     67 C          -1.2900  -20.2394  -48.4731 C.2       11 UNK         0.5000 
     68 O          -1.2769  -21.2021  -49.2358 O.2       11 UNK        -0.5000 
     69 N          -2.3702  -19.4572  -48.3068 N.am      12 UNK        -0.5000 
     70 CA         -3.6534  -19.7143  -48.9680 C.3       12 UNK         0.1400 
     71 CB         -4.6159  -18.5381  -48.7544 C.3       12 UNK        -0.1800 
     72 C          -4.3048  -21.0295  -48.5097 C.2       12 UNK         0.5000 
     73 O          -4.8332  -21.7642  -49.3431 O.2       12 UNK        -0.5000 
     74 N          -4.2257  -21.3225  -47.2043 N.am      13 UNK        -0.5000 
     75 CA         -4.6971  -22.5776  -46.6186 C.3       13 UNK         0.1400 
     76 CB         -4.7133  -22.4694  -45.0863 C.3       13 UNK        -0.1800 
     77 C          -3.8573  -23.7786  -47.0879 C.2       13 UNK         0.5000 
     78 O          -4.4281  -24.8137  -47.4344 O.2       13 UNK        -0.5000 
     79 N          -2.5284  -23.5963  -47.1418 N.am      14 UNK        -0.5000 
     80 CA         -1.5703  -24.5666  -47.6774 C.3       14 UNK         0.1400 
     81 CB         -0.1371  -24.0735  -47.4283 C.3       14 UNK        -0.1800 
     82 C          -1.7982  -24.8630  -49.1725 C.2       14 UNK         0.5000 
     83 O          -1.7428  -26.0248  -49.5764 O.2       14 UNK        -0.5000 
     84 N          -2.1273  -23.8253  -49.9536 N.am      15 UNK        -0.5000 
     85 CA         -2.5314  -23.8873  -51.3608 C.3       15 UNK         0.1400 
     86 CB         -2.2830  -22.5142  -52.0150 C.3       15 UNK        -0.1800 
     87 C          -3.9886  -24.3681  -51.5517 C.2       15 UNK         0.5000 
     88 O          -4.7040  -23.8222  -52.3908 O.2       15 UNK        -0.5000 
     89 N          -4.4008  -25.3792  -50.7729 N.am      16 UNK        -0.5000 
     90 CA         -5.6857  -26.0858  -50.8047 C.3       16 UNK         0.1400 
     91 CB         -5.7268  -27.0436  -52.0121 C.3       16 UNK        -0.1800 
     92 C          -6.9183  -25.1591  -50.7242 C.2       16 UNK         0.5000 
     93 O          -7.8831  -25.3504  -51.4665 O.2       16 UNK        -0.5000 
     94 N          -6.8520  -24.1754  -49.8152 N.am      17 UNK        -0.5000 
     95 CA         -7.8483  -23.1256  -49.5766 C.3       17 UNK         0.1400 
     96 CB         -9.1734  -23.7193  -49.0530 C.3       17 UNK        -0.1800 
     97 C          -8.0250  -22.2086  -50.8050 C.2       17 UNK         0.5000 
     98 O          -9.1292  -22.0756  -51.3365 O.2       17 UNK        -0.5000 
     99 N          -6.9089  -21.5895  -51.2104 N.am      18 UNK        -0.5000 
    100 CA        -6.7571  -20.6255  -52.3021 C.3       18 UNK         0.1400 
    101 CB        -7.5133  -19.3196  -51.9808 C.3       18 UNK        -0.1800 
    102 C         -7.1085  -21.2143  -53.6837 C.2       18 UNK         0.5000 
    103 O         -7.8855  -20.6234  -54.4368 O.2       18 UNK        -0.5000 
    104 N         -6.5262  -22.3784  -53.9874 N.am      19 UNK        -0.5000 
    105 CA        -6.5891  -23.0328  -55.2903 C.3       19 UNK         0.1400 
    106 CB        -6.6665  -24.5518  -55.0670 C.3       19 UNK        -0.1800 
    107 C         -5.3504  -22.6765  -56.1337 C.2       19 UNK         0.5000 
    108 O         -4.3873  -22.0940  -55.6243 O.2       19 UNK        -0.5000 
    109 N         -5.3942  -23.0659  -57.4163 N.am      20 UNK        -0.5000 
    110 CA        -4.3394  -22.9040  -58.4226 C.3       20 UNK         0.1400 
    111 CB        -3.1475  -23.8354  -58.1024 C.3       20 UNK        -0.1800 
    112 C         -3.9553  -21.4212  -58.6138 C.2       20 UNK         0.5000 
    113 O         -4.8478  -20.5925  -58.8054 O.2       20 UNK        -0.5000 
    114 N         -2.6568  -21.0999  -58.5331 N.am      21 UNK        -0.5000 
    115 CA        -2.1076  -19.7456  -58.6559 C.3       21 UNK         0.1400 
    116 CB        -0.5735  -19.8310  -58.6660 C.3       21 UNK        -0.1800 
    117 C         -2.5859  -18.7673  -57.5625 C.2       21 UNK         0.5000 
    118 O         -2.5798  -17.5577  -57.7944 O.2       21 UNK        -0.5000 
    119 N         -3.0037  -19.3023  -56.4081 N.am      22 UNK        -0.5000 
    120 CA        -3.6443  -18.5539  -55.3181 C.3       22 UNK         0.1400 
    121 C         -5.1805  -18.3605  -55.5210 C.2       22 UNK         0.5000 
    122 N         -5.8105  -18.9536  -56.5290 N.am      22 UNK        -0.7600 
    123 O         -5.8153  -17.6162  -54.7813 O.2       22 UNK        -0.5000 
    124 C124       -3.2598  -19.1830  -53.9498 C.3       23 UNK        -0.0398 
    125 S125       -3.6269  -18.1727  -52.4708 S.3       23 UNK        -0.2404 
    126 C126       -2.4110  -16.8125  -52.5830 C.3       23 UNK        -0.0205 
    127 H127       -2.2803  -16.3916  -49.5596 H         1 UNK         0.0600 
    128 H128       -3.2805  -15.7331  -48.2632 H         1 UNK         0.0600 
    129 H129       -3.0727  -14.8200  -49.7628 H         1 UNK         0.0600 
    130 H130       -0.0840  -15.9479  -49.4964 H         1 UNK         0.3000 
    131 H131        1.0155  -13.6987  -47.9802 H         1 UNK         0.0600 
    132 H132        3.2246  -14.5949  -48.7217 H         1 UNK         0.0800 
    133 H133        2.4517  -15.9826  -49.4295 H         1 UNK         0.0800 
    134 H134        3.3419  -15.5541  -51.9889 H         1 UNK         0.0800 
    135 H135        2.2264  -14.6756  -53.0027 H         1 UNK         0.0800 
    136 H136       -0.3442  -15.1135  -52.6005 H         1 UNK         0.1150 
    137 H137       -1.2375  -19.2149  -51.6787 H         1 UNK         0.1150 
    138 H138        2.7690  -17.7656  -51.3362 H         1 UNK         0.1150 
    139 H139        0.4452  -20.7143  -51.0061 H         1 UNK         0.0800 
    140 H140        1.9683  -20.3972  -51.7763 H         1 UNK         0.0800 
    141 H141        0.5270  -18.2436  -48.8392 H         1 UNK         0.0800 
    142 H142        1.6516  -18.6287  -47.5756 H         1 UNK         0.0800 
    143 H143        0.4224  -20.9302  -47.4024 H         1 UNK         0.0600 
    144 H144       -0.1725  -18.4715  -46.0857 H         1 UNK         0.3000 
    145 H145       -2.6171  -19.6575  -43.9442 H         1 UNK         0.0600 
    146 H146       -1.1876  -19.5959  -41.9410 H         1 UNK         0.0600 
    147 H147       -0.8948  -21.0872  -42.8240 H         1 UNK         0.0600 
    148 H148        0.2564  -19.7621  -42.9389 H         1 UNK         0.0600 
    149 H149       -0.6819  -17.5923  -43.5019 H         1 UNK         0.3000 
    150 H150       -1.4520  -15.2483  -45.4067 H         1 UNK         0.0600 
    151 H151       -3.9223  -15.0428  -45.4159 H         1 UNK         0.0600 
    152 H152       -3.2287  -13.8395  -44.3447 H         1 UNK         0.0600 
    153 H153       -3.9802  -15.2870  -43.6721 H         1 UNK         0.0600 
    154 H154       -1.4725  -15.9611  -42.5225 H         1 UNK         0.3000 
    155 H155        1.5202  -14.2613  -42.1146 H         1 UNK         0.0600 
    156 H156       -1.0017  -13.1869  -40.7549 H         1 UNK         0.0600 
    157 H157        0.1374  -12.2217  -41.6854 H         1 UNK         0.0600 
    158 H158        0.6578  -12.9802  -40.1915 H         1 UNK         0.0600 
    159 H159        0.0947  -15.3148  -40.0229 H         1 UNK         0.3000 
    160 H160       -0.0961  -17.8793  -39.6007 H         1 UNK         0.0600 
    161 H161        1.8191  -19.5209  -39.2402 H         1 UNK         0.0600 
    162 H162        2.6251  -18.8373  -40.6455 H         1 UNK         0.0600 
    163 H163        1.0777  -19.6512  -40.8196 H         1 UNK         0.0600 
    164 H164        2.5118  -16.4768  -39.2483 H         1 UNK         0.3000 
    165 H165        1.6286  -14.7631  -36.8271 H         1 UNK         0.0600 
    166 H166        2.8285  -15.4948  -34.7434 H         1 UNK         0.0600 
    167 H167        1.2110  -16.1634  -34.8708 H         1 UNK         0.0600 
    168 H168        2.6005  -17.1779  -35.2184 H         1 UNK         0.0600 
    169 H169        3.6149  -14.5599  -37.7341 H         1 UNK         0.3000 
    170 H170        5.4897  -14.9362  -38.7413 H         1 UNK         0.0600 
    171 H171        6.6505  -14.9646  -36.5254 H         1 UNK         0.0600 
    172 H172        7.1805  -16.6181  -36.8094 H         1 UNK         0.0600 
    173 H173        7.7717  -15.3089  -37.8333 H         1 UNK         0.0600 
    174 H174        6.9288  -17.3787  -39.1363 H         1 UNK         0.3000 
    175 H175        6.7744  -18.1375  -41.5870 H         1 UNK         0.0600 
    176 H176        4.8240  -19.9025  -39.9680 H         1 UNK         0.0600 
    177 H177        6.1454  -20.5114  -40.9606 H         1 UNK         0.0600 
    178 H178        6.4932  -19.5770  -39.5237 H         1 UNK         0.0600 
    179 H179        4.0427  -17.8959  -42.2388 H         1 UNK         0.3000 
    180 H180        4.2094  -19.4764  -45.3847 H         1 UNK         0.0600 
    181 H181        2.4537  -20.3311  -43.0301 H         1 UNK         0.0600 
    182 H182        3.2918  -21.3847  -44.1568 H         1 UNK         0.0600 
    183 H183        1.9589  -20.3942  -44.7273 H         1 UNK         0.0600 
    184 H184        2.3456  -17.8836  -43.7173 H         1 UNK         0.3000 
    185 H185        1.8603  -15.8365  -44.2731 H         1 UNK         0.0600 
    186 H186        3.9044  -15.0527  -43.1018 H         1 UNK         0.0600 
    187 H187        4.5546  -14.4108  -44.6063 H         1 UNK         0.0600 
    188 H188        3.1070  -13.7010  -43.8944 H         1 UNK         0.0600 
    189 H189        2.8551  -14.2095  -46.4191 H         1 UNK         0.3000 
    190 H190       -2.3449  -18.7111  -47.6236 H         1 UNK         0.3000 
    191 H191       -3.4671  -19.8081  -50.0390 H         1 UNK         0.0600 
    192 H192       -4.7077  -18.2720  -47.7010 H         1 UNK         0.0600 
    193 H193       -5.6149  -18.7773  -49.1208 H         1 UNK         0.0600 
    194 H194       -4.2853  -17.6588  -49.3028 H         1 UNK         0.0600 
    195 H195       -3.7408  -20.6848  -46.5908 H         1 UNK         0.3000 
    196 H196       -5.7241  -22.7395  -46.9520 H         1 UNK         0.0600 
    197 H197       -5.1185  -23.3779  -44.6390 H         1 UNK         0.0600 
    198 H198       -5.3377  -21.6391  -44.7561 H         1 UNK         0.0600 
    199 H199       -3.7150  -22.3226  -44.6749 H         1 UNK         0.0600 
    200 H200       -2.1472  -22.7227  -46.7919 H         1 UNK         0.3000 
    201 H201       -1.7082  -25.4996  -47.1273 H         1 UNK         0.0600 
    202 H202        0.0263  -23.8406  -46.3758 H         1 UNK         0.0600 
    203 H203        0.0891  -23.1805  -48.0097 H         1 UNK         0.0600 
    204 H204        0.5890  -24.8365  -47.7109 H         1 UNK         0.0600 
    205 H205       -2.0956  -22.8935  -49.5489 H         1 UNK         0.3000 
    206 H206       -1.8938  -24.6135  -51.8684 H         1 UNK         0.0600 
    207 H207       -2.5065  -22.5366  -53.0826 H         1 UNK         0.0600 
    208 H208       -2.9042  -21.7387  -51.5657 H         1 UNK         0.0600 
    209 H209       -1.2417  -22.2113  -51.9116 H         1 UNK         0.0600 
    210 H210       -3.7229  -25.7433  -50.1134 H         1 UNK         0.3000 
    211 H211       -5.7153  -26.6977  -49.9021 H         1 UNK         0.0600 
    212 H212       -5.7082  -26.5013  -52.9561 H         1 UNK         0.0600 
    213 H213       -6.6306  -27.6538  -52.0009 H         1 UNK         0.0600 
    214 H214       -4.8769  -27.7260  -52.0022 H         1 UNK         0.0600 
    215 H215       -5.9888  -24.0840  -49.2950 H         1 UNK         0.3000 
    216 H216       -7.4459  -22.4967  -48.7815 H         1 UNK         0.0600 
    217 H217       -9.8669  -22.9266  -48.7704 H         1 UNK         0.0600 
    218 H218       -9.0068  -24.3351  -48.1693 H         1 UNK         0.0600 
    219 H219       -9.6729  -24.3346  -49.8015 H         1 UNK         0.0600 
    220 H220       -6.0592  -21.7850  -50.6837 H         1 UNK         0.3000 
    221 H221       -5.6947  -20.3851  -52.3382 H         1 UNK         0.0600 
    222 H222       -8.5926  -19.4704  -51.9521 H         1 UNK         0.0600 
    223 H223       -7.2044  -18.9113  -51.0191 H         1 UNK         0.0600 
    224 H224       -7.3106  -18.5578  -52.7335 H         1 UNK         0.0600 
    225 H225       -5.8759  -22.7991  -53.3246 H         1 UNK         0.3000 
    226 H226       -7.4831  -22.7126  -55.8289 H         1 UNK         0.0600 
    227 H227       -6.8665  -25.0791  -56.0001 H         1 UNK         0.0600 
    228 H228       -5.7304  -24.9413  -54.6667 H         1 UNK         0.0600 
    229 H229       -7.4635  -24.8115  -54.3695 H         1 UNK         0.0600 
    230 H230       -6.2394  -23.5068  -57.7504 H         1 UNK         0.3000 
    231 H231       -4.7658  -23.2291  -59.3726 H         1 UNK         0.0600 
    232 H232       -3.4801  -24.8688  -58.0029 H         1 UNK         0.0600 
    233 H233       -2.6486  -23.5621  -57.1718 H         1 UNK         0.0600 
    234 H234       -2.4044  -23.8185  -58.9006 H         1 UNK         0.0600 
    235 H235       -1.9920  -21.8386  -58.3550 H         1 UNK         0.3000 
    236 H236       -2.4340  -19.3419  -59.6166 H         1 UNK         0.0600 
    237 H237       -0.1274  -18.8428  -58.7869 H         1 UNK         0.0600 
    238 H238       -0.1886  -20.2532  -57.7368 H         1 UNK         0.0600 
    239 H239       -0.2171  -20.4491  -59.4903 H         1 UNK         0.0600 
    240 H240       -3.0250  -20.3103  -56.3192 H         1 UNK         0.3000 
    241 H241       -3.2299  -17.5461  -55.3353 H         1 UNK         0.0600 
    242 H242       -5.3204  -19.5315  -57.2026 H         1 UNK         0.3800 
    243 H243       -6.8025  -18.8102  -56.6288 H         1 UNK         0.3800 
    244 H244       -3.7540  -20.1482  -53.8323 H         1 UNK         0.0800 
    245 H245       -2.1913  -19.4005  -53.9373 H         1 UNK         0.0800 
    246 H246       -2.4264  -16.3959  -53.5895 H         1 UNK         0.0800 
    247 H247       -2.7622  -16.0121  -51.9322 H         1 UNK         0.0800 
@<TRIPOS>BOND
     1    1    2 1    
     2    1  127 1    
     3    1  128 1    
     4    1  129 1    
     5    2    3 2    
     6    2    4 am   BACKBONE|DICT|INTERRES
     7    4    5 1    
     8    4  130 1    
     9    5    6 1    
    10    5   65 1    
    11    5  131 1    
    12    6    7 1    
    13    6  132 1    
    14    6  133 1    
    15    7    8 1    
    16    8    9 1    
    17    8  134 1    
    18    8  135 1    
    19    9   10 ar   
    20    9   14 ar   
    21   10   11 ar   
    22   10  136 1    
    23   11   12 ar   
    24   11  126 1    
    25   12   13 ar   
    26   12  137 1    
    27   13   14 ar   
    28   13   15 1    
    29   14  138 1    
    30   15   16 1    
    31   15  139 1    
    32   15  140 1    
    33   16   17 1    
    34   17   18 1    
    35   17  141 1    
    36   17  142 1    
    37   18   19 1    
    38   18   67 1    
    39   18  143 1    
    40   19   20 am   BACKBONE|DICT|INTERRES
    41   19  144 1    
    42   20   21 2    
    43   20   22 1    
    44   22   23 1    
    45   22   24 1    
    46   22  145 1    
    47   23  146 1    
    48   23  147 1    
    49   23  148 1    
    50   24   25 am   BACKBONE|DICT|INTERRES
    51   24  149 1    
    52   25   26 2    
    53   25   27 1    
    54   27   28 1    
    55   27   29 1    
    56   27  150 1    
    57   28  151 1    
    58   28  152 1    
    59   28  153 1    
    60   29   30 am   BACKBONE|DICT|INTERRES
    61   29  154 1    
    62   30   31 2    
    63   30   32 1    
    64   32   33 1    
    65   32   34 1    
    66   32  155 1    
    67   33  156 1    
    68   33  157 1    
    69   33  158 1    
    70   34   35 am   BACKBONE|DICT|INTERRES
    71   34  159 1    
    72   35   36 2    
    73   35   37 1    
    74   37   38 1    
    75   37   39 1    
    76   37  160 1    
    77   38  161 1    
    78   38  162 1    
    79   38  163 1    
    80   39   40 am   BACKBONE|DICT|INTERRES
    81   39  164 1    
    82   40   41 2    
    83   40   42 1    
    84   42   43 1    
    85   42   44 1    
    86   42  165 1    
    87   43  166 1    
    88   43  167 1    
    89   43  168 1    
    90   44   45 am   BACKBONE|DICT|INTERRES
    91   44  169 1    
    92   45   46 2    
    93   45   47 1    
    94   47   48 1    
    95   47   49 1    
    96   47  170 1    
    97   48  171 1    
    98   48  172 1    
    99   48  173 1    
   100   49   50 am   BACKBONE|DICT|INTERRES
   101   49  174 1    
   102   50   51 2    
   103   50   52 1    
   104   52   53 1    
   105   52   54 1    
   106   52  175 1    
   107   53  176 1    
   108   53  177 1    
   109   53  178 1    
   110   54   55 am   BACKBONE|DICT|INTERRES
   111   54  179 1    
   112   55   56 2    
   113   55   57 1    
   114   57   58 1    
   115   57   59 1    
   116   57  180 1    
   117   58  181 1    
   118   58  182 1    
   119   58  183 1    
   120   59   60 am   BACKBONE|DICT|INTERRES
   121   59  184 1    
   122   60   61 2    
   123   60   62 1    
   124   62   63 1    
   125   62   64 1    
   126   62  185 1    
   127   63  186 1    
   128   63  187 1    
   129   63  188 1    
   130   64   65 am   BACKBONE|DICT|INTERRES
   131   64  189 1    
   132   65   66 2    
   133   67   68 2    
   134   67   69 am   BACKBONE|DICT|INTERRES
   135   69   70 1    
   136   69  190 1    
   137   70   71 1    
   138   70   72 1    
   139   70  191 1    
   140   71  192 1    
   141   71  193 1    
   142   71  194 1    
   143   72   73 2    
   144   72   74 am   BACKBONE|DICT|INTERRES
   145   74   75 1    
   146   74  195 1    
   147   75   76 1    
   148   75   77 1    
   149   75  196 1    
   150   76  197 1    
   151   76  198 1    
   152   76  199 1    
   153   77   78 2    
   154   77   79 am   BACKBONE|DICT|INTERRES
   155   79   80 1    
   156   79  200 1    
   157   80   81 1    
   158   80   82 1    
   159   80  201 1    
   160   81  202 1    
   161   81  203 1    
   162   81  204 1    
   163   82   83 2    
   164   82   84 am   BACKBONE|DICT|INTERRES
   165   84   85 1    
   166   84  205 1    
   167   85   86 1    
   168   85   87 1    
   169   85  206 1    
   170   86  207 1    
   171   86  208 1    
   172   86  209 1    
   173   87   88 2    
   174   87   89 am   BACKBONE|DICT|INTERRES
   175   89   90 1    
   176   89  210 1    
   177   90   91 1    
   178   90   92 1    
   179   90  211 1    
   180   91  212 1    
   181   91  213 1    
   182   91  214 1    
   183   92   93 2    
   184   92   94 am   BACKBONE|DICT|INTERRES
   185   94   95 1    
   186   94  215 1    
   187   95   96 1    
   188   95   97 1    
   189   95  216 1    
   190   96  217 1    
   191   96  218 1    
   192   96  219 1    
   193   97   98 2    
   194   97   99 am   BACKBONE|DICT|INTERRES
   195   99  100 1    
   196   99  220 1    
   197  100  101 1    
   198  100  102 1    
   199  100  221 1    
   200  101  222 1    
   201  101  223 1    
   202  101  224 1    
   203  102  103 2    
   204  102  104 am   BACKBONE|DICT|INTERRES
   205  104  105 1    
   206  104  225 1    
   207  105  106 1    
   208  105  107 1    
   209  105  226 1    
   210  106  227 1    
   211  106  228 1    
   212  106  229 1    
   213  107  108 2    
   214  107  109 am   BACKBONE|DICT|INTERRES
   215  109  110 1    
   216  109  230 1    
   217  110  111 1    
   218  110  112 1    
   219  110  231 1    
   220  111  232 1    
   221  111  233 1    
   222  111  234 1    
   223  112  113 2    
   224  112  114 am   BACKBONE|DICT|INTERRES
   225  114  115 1    
   226  114  235 1    
   227  115  116 1    
   228  115  117 1    
   229  115  236 1    
   230  116  237 1    
   231  116  238 1    
   232  116  239 1    
   233  117  118 2    
   234  117  119 am   BACKBONE|DICT|INTERRES
   235  119  120 1    
   236  119  240 1    
   237  120  121 1    
   238  120  124 1    
   239  120  241 1    
   240  121  122 am   BACKBONE|DICT|INTERRES
   241  121  123 2    
   242  122  242 1    
   243  122  243 1    
   244  124  125 1    
   245  124  244 1    
   246  124  245 1    
   247  125  126 1    
   248  126  246 1    
   249  126  247 1    
@<TRIPOS>SUBSTRUCTURE
     1 UNK         1 GROUP             0       ****    0 ROOT    
