@<TRIPOS>MOLECULE
3R540
247   249    1
SMALL
USER_CHARGES


@<TRIPOS>ATOM
      1 CA         -2.7920  -10.1609  -45.7932 C.3       0 UNK        -0.1800 
      2 C          -1.7686  -11.2536  -45.5226 C.2       0 UNK         0.5000 
      3 O          -1.0594  -11.1922  -44.5187 O.2       0 UNK        -0.5000 
      4 N          -1.7012  -12.2650  -46.4007 N.am      1 UNK        -0.5000 
      5 CA         -0.7613  -13.3950  -46.3310 C.3       1 UNK         0.1400 
      6 C6         -0.8628  -14.2944  -47.5896 C.3       23 UNK        -0.0398 
      7 S7          0.6996  -15.1766  -47.9180 S.3       23 UNK        -0.2404 
      8 C8          0.8263  -15.1597  -49.7323 C.3       23 UNK        -0.0205 
      9 C9          0.6495  -16.5553  -50.3084 C.ar      23 UNK        -0.0193 
     10 C10        -0.5716  -16.9471  -50.8629 C.ar      23 UNK        -0.1150 
     11 C11        -0.7161  -18.2184  -51.4255 C.ar      23 UNK        -0.0193 
     12 C12         0.3693  -19.1001  -51.4295 C.ar      23 UNK        -0.1150 
     13 C13         1.5914  -18.7263  -50.8618 C.ar      23 UNK        -0.0193 
     14 C14         1.7230  -17.4509  -50.3047 C.ar      23 UNK        -0.1150 
     15 C15         2.7868  -19.6731  -50.8823 C.3       23 UNK        -0.0205 
     16 S16         2.4534  -21.3035  -50.1359 S.3       23 UNK        -0.2404 
     17 C17         2.0811  -20.8776  -48.3988 C.3       23 UNK        -0.0398 
     18 CA          0.8337  -21.6261  -47.8669 C.3       11 UNK         0.1400 
     19 N           0.7974  -21.6558  -46.4023 N.am      11 UNK        -0.5000 
     20 C           0.0049  -22.4576  -45.6762 C.2       10 UNK         0.5000 
     21 O          -0.7230  -23.3236  -46.1618 O.2       10 UNK        -0.5000 
     22 CA          0.0071  -22.2455  -44.1502 C.3       10 UNK         0.1400 
     23 CB          1.1453  -23.0390  -43.4914 C.3       10 UNK        -0.1800 
     24 N           0.1074  -20.8357  -43.7699 N.am      10 UNK        -0.5000 
     25 C          -0.8327  -19.9138  -44.0220 C.2       9 UNK         0.5000 
     26 O          -1.9120  -20.1655  -44.5558 O.2       9 UNK        -0.5000 
     27 CA         -0.4992  -18.4576  -43.6574 C.3       9 UNK         0.1400 
     28 CB         -0.7467  -18.2048  -42.1629 C.3       9 UNK        -0.1800 
     29 N           0.8727  -18.0857  -43.9965 N.am      9 UNK        -0.5000 
     30 C           1.3859  -18.0904  -45.2349 C.2       8 UNK         0.5000 
     31 O           0.7457  -18.3968  -46.2394 O.2       8 UNK        -0.5000 
     32 CA          2.8915  -17.7964  -45.3560 C.3       8 UNK         0.1400 
     33 CB          3.1933  -16.2960  -45.2331 C.3       8 UNK        -0.1800 
     34 N           3.6595  -18.5264  -44.3488 N.am      8 UNK        -0.5000 
     35 C           3.8020  -19.8584  -44.3188 C.2       7 UNK         0.5000 
     36 O           3.3417  -20.6157  -45.1728 O.2       7 UNK        -0.5000 
     37 CA          4.5527  -20.4389  -43.1065 C.3       7 UNK         0.1400 
     38 CB          6.0688  -20.4249  -43.3515 C.3       7 UNK        -0.1800 
     39 N           4.2544  -19.7169  -41.8675 N.am      7 UNK        -0.5000 
     40 C           3.0634  -19.7350  -41.2517 C.2       6 UNK         0.5000 
     41 O           2.1017  -20.3932  -41.6465 O.2       6 UNK        -0.5000 
     42 CA          2.9107  -18.8237  -40.0187 C.3       6 UNK         0.1400 
     43 CB          3.4582  -19.5149  -38.7611 C.3       6 UNK        -0.1800 
     44 N           3.5666  -17.5228  -40.1887 N.am      6 UNK        -0.5000 
     45 C           3.1964  -16.6126  -41.0981 C.2       5 UNK         0.5000 
     46 O           2.2526  -16.7726  -41.8749 O.2       5 UNK        -0.5000 
     47 CA          4.0492  -15.3420  -41.1989 C.3       5 UNK         0.1400 
     48 CB          5.3660  -15.6513  -41.9421 C.3       5 UNK        -0.1800 
     49 N           3.2725  -14.3299  -41.9108 N.am      5 UNK        -0.5000 
     50 C           3.6095  -13.0501  -42.1017 C.2       4 UNK         0.5000 
     51 O           4.6478  -12.5400  -41.6787 O.2       4 UNK        -0.5000 
     52 CA          2.6049  -12.1853  -42.8837 C.3       4 UNK         0.1400 
     53 CB          2.7333  -12.4209  -44.3968 C.3       4 UNK        -0.1800 
     54 N           1.2176  -12.4041  -42.4703 N.am      4 UNK        -0.5000 
     55 C           0.7026  -11.9822  -41.3054 C.2       3 UNK         0.5000 
     56 O           1.3722  -11.4256  -40.4339 O.2       3 UNK        -0.5000 
     57 CA         -0.8073  -12.1791  -41.0662 C.3       3 UNK         0.1400 
     58 CB         -1.5220  -10.8194  -40.9888 C.3       3 UNK        -0.1800 
     59 N          -1.4421  -12.9712  -42.1194 N.am      3 UNK        -0.5000 
     60 C          -1.8346  -14.2454  -41.9882 C.2       2 UNK         0.5000 
     61 O          -1.7247  -14.8873  -40.9436 O.2       2 UNK        -0.5000 
     62 CA         -2.4642  -14.9273  -43.2220 C.3       2 UNK         0.1400 
     63 CB         -3.9928  -14.9851  -43.0842 C.3       2 UNK        -0.1800 
     64 N          -2.1302  -14.2962  -44.4998 N.am      2 UNK        -0.5000 
     65 C          -0.9000  -14.2169  -45.0275 C.2       1 UNK         0.5000 
     66 O           0.0999  -14.6916  -44.4899 O.2       1 UNK        -0.5000 
     67 C          -0.4755  -21.0619  -48.4587 C.2       11 UNK         0.5000 
     68 O          -0.9664  -21.5908  -49.4543 O.2       11 UNK        -0.5000 
     69 N          -1.0223  -20.0124  -47.8321 N.am      12 UNK        -0.5000 
     70 CA         -2.2687  -19.3770  -48.2424 C.3       12 UNK         0.1400 
     71 CB         -2.3849  -17.9962  -47.5813 C.3       12 UNK        -0.1800 
     72 C          -3.5061  -20.2405  -47.9537 C.2       12 UNK         0.5000 
     73 O          -4.3257  -20.4389  -48.8513 O.2       12 UNK        -0.5000 
     74 N          -3.6354  -20.7126  -46.7055 N.am      13 UNK        -0.5000 
     75 CA         -4.7985  -21.4032  -46.1418 C.3       13 UNK         0.1400 
     76 CB         -4.9355  -22.8201  -46.7415 C.3       13 UNK        -0.1800 
     77 C          -6.0676  -20.5321  -46.2741 C.2       13 UNK         0.5000 
     78 O          -6.1247  -19.4578  -45.6749 O.2       13 UNK        -0.5000 
     79 N          -7.0320  -20.9733  -47.0912 N.am      14 UNK        -0.5000 
     80 CA         -8.2542  -20.2459  -47.4479 C.3       14 UNK         0.1400 
     81 CB         -9.3773  -21.2750  -47.6693 C.3       14 UNK        -0.1800 
     82 C          -8.0660  -19.3316  -48.6826 C.2       14 UNK         0.5000 
     83 O          -9.0479  -19.0113  -49.3533 O.2       14 UNK        -0.5000 
     84 N          -6.8113  -18.9591  -48.9786 N.am      15 UNK        -0.5000 
     85 CA         -6.3257  -18.2798  -50.1866 C.3       15 UNK         0.1400 
     86 CB         -6.9709  -16.8894  -50.3650 C.3       15 UNK        -0.1800 
     87 C          -6.4376  -19.1807  -51.4350 C.2       15 UNK         0.5000 
     88 O          -6.6974  -18.6860  -52.5322 O.2       15 UNK        -0.5000 
     89 N          -6.2297  -20.4871  -51.2260 N.am      16 UNK        -0.5000 
     90 CA         -6.3347  -21.5846  -52.1840 C.3       16 UNK         0.1400 
     91 CB         -7.7119  -21.6098  -52.8851 C.3       16 UNK        -0.1800 
     92 C          -6.0721  -22.8833  -51.4076 C.2       16 UNK         0.5000 
     93 O          -7.0159  -23.5946  -51.0572 O.2       16 UNK        -0.5000 
     94 N          -4.7987  -23.1426  -51.0903 N.am      17 UNK        -0.5000 
     95 CA         -4.3749  -24.3360  -50.3523 C.3       17 UNK         0.1400 
     96 CB         -3.0332  -24.0597  -49.6612 C.3       17 UNK        -0.1800 
     97 C          -4.2669  -25.5805  -51.2522 C.2       17 UNK         0.5000 
     98 O          -4.4678  -26.6965  -50.7714 O.2       17 UNK        -0.5000 
     99 N          -3.9558  -25.3681  -52.5347 N.am      18 UNK        -0.5000 
    100 CA        -3.7808  -26.3809  -53.5712 C.3       18 UNK         0.1400 
    101 CB        -2.4618  -27.1483  -53.3490 C.3       18 UNK        -0.1800 
    102 C         -3.7655  -25.6676  -54.9292 C.2       18 UNK         0.5000 
    103 O         -3.6692  -24.4392  -54.9694 O.2       18 UNK        -0.5000 
    104 N         -3.7975  -26.4320  -56.0279 N.am      19 UNK        -0.5000 
    105 CA        -3.7254  -25.9107  -57.4006 C.3       19 UNK         0.1400 
    106 CB        -3.9128  -27.0708  -58.3900 C.3       19 UNK        -0.1800 
    107 C         -2.4224  -25.1408  -57.7107 C.2       19 UNK         0.5000 
    108 O         -2.4366  -24.2228  -58.5308 O.2       19 UNK        -0.5000 
    109 N         -1.3333  -25.5109  -57.0245 N.am      20 UNK        -0.5000 
    110 CA        -0.0296  -24.8473  -57.0803 C.3       20 UNK         0.1400 
    111 CB         1.0608  -25.9166  -56.8983 C.3       20 UNK        -0.1800 
    112 C          0.1267  -23.7305  -56.0242 C.2       20 UNK         0.5000 
    113 O          1.1688  -23.0745  -56.0009 O.2       20 UNK        -0.5000 
    114 N         -0.8797  -23.5400  -55.1612 N.am      21 UNK        -0.5000 
    115 CA        -0.8748  -22.6058  -54.0390 C.3       21 UNK         0.1400 
    116 CB        -0.5939  -23.3770  -52.7388 C.3       21 UNK        -0.1800 
    117 C         -2.2055  -21.8388  -54.0180 C.2       21 UNK         0.5000 
    118 O         -2.9940  -21.9712  -53.0796 O.2       21 UNK        -0.5000 
    119 N         -2.4240  -21.0678  -55.0889 N.am      22 UNK        -0.5000 
    120 CA        -3.5453  -20.1380  -55.3204 C.3       22 UNK         0.1400 
    121 C         -4.9040  -20.7882  -55.7169 C.2       22 UNK         0.5000 
    122 N         -5.0537  -22.1053  -55.7390 N.am      22 UNK        -0.7600 
    123 O         -5.8447  -20.0754  -56.0546 O.2       22 UNK        -0.5000 
    124 C124       -3.7339  -19.0794  -54.1965 C.3       23 UNK        -0.0398 
    125 S125       -2.2016  -18.1870  -53.7587 S.3       23 UNK        -0.2404 
    126 C126       -2.0507  -18.6506  -52.0074 C.3       23 UNK        -0.0205 
    127 H127       -3.4939  -10.0917  -44.9622 H         1 UNK         0.0600 
    128 H128       -3.3596  -10.3524  -46.7041 H         1 UNK         0.0600 
    129 H129       -2.2919   -9.1984  -45.8992 H         1 UNK         0.0600 
    130 H130       -2.3199  -12.2562  -47.1992 H         1 UNK         0.3000 
    131 H131        0.2342  -12.9460  -46.3134 H         1 UNK         0.0600 
    132 H132       -1.6818  -15.0104  -47.5092 H         1 UNK         0.0800 
    133 H133       -1.0921  -13.6772  -48.4584 H         1 UNK         0.0800 
    134 H134        1.8108  -14.7788  -50.0074 H         1 UNK         0.0800 
    135 H135        0.1069  -14.4703  -50.1751 H         1 UNK         0.0800 
    136 H136       -1.4077  -16.2620  -50.8624 H         1 UNK         0.1150 
    137 H137        0.2592  -20.0847  -51.8624 H         1 UNK         0.1150 
    138 H138        2.6659  -17.1459  -49.8728 H         1 UNK         0.1150 
    139 H139        3.0915  -19.8218  -51.9189 H         1 UNK         0.0800 
    140 H140        3.6434  -19.2278  -50.3738 H         1 UNK         0.0800 
    141 H141        1.9721  -19.7985  -48.2787 H         1 UNK         0.0800 
    142 H142        2.9581  -21.1555  -47.8131 H         1 UNK         0.0800 
    143 H143        0.9088  -22.6659  -48.1933 H         1 UNK         0.0600 
    144 H144        1.4063  -21.0049  -45.9196 H         1 UNK         0.3000 
    145 H145       -0.9396  -22.6278  -43.7629 H         1 UNK         0.0600 
    146 H146        1.1073  -22.9546  -42.4052 H         1 UNK         0.0600 
    147 H147        1.0760  -24.0991  -43.7380 H         1 UNK         0.0600 
    148 H148        2.1238  -22.6887  -43.8201 H         1 UNK         0.0600 
    149 H149        0.9407  -20.5578  -43.2608 H         1 UNK         0.3000 
    150 H150       -1.1611  -17.8120  -44.2366 H         1 UNK         0.0600 
    151 H151       -1.7940  -18.3690  -41.9074 H         1 UNK         0.0600 
    152 H152       -0.4989  -17.1800  -41.8881 H         1 UNK         0.0600 
    153 H153       -0.1477  -18.8658  -41.5365 H         1 UNK         0.0600 
    154 H154        1.4563  -17.7676  -43.2269 H         1 UNK         0.3000 
    155 H155        3.2208  -18.1290  -46.3428 H         1 UNK         0.0600 
    156 H156        2.8374  -15.8862  -44.2893 H         1 UNK         0.0600 
    157 H157        2.7091  -15.7342  -46.0286 H         1 UNK         0.0600 
    158 H158        4.2624  -16.0979  -45.3072 H         1 UNK         0.0600 
    159 H159        4.0341  -17.9865  -43.5850 H         1 UNK         0.3000 
    160 H160        4.2359  -21.4768  -42.9833 H         1 UNK         0.0600 
    161 H161        6.4517  -19.4094  -43.4605 H         1 UNK         0.0600 
    162 H162        6.3214  -20.9708  -44.2615 H         1 UNK         0.0600 
    163 H163        6.6050  -20.8999  -42.5297 H         1 UNK         0.0600 
    164 H164        4.9944  -19.1549  -41.4740 H         1 UNK         0.3000 
    165 H165        1.8433  -18.6455  -39.8708 H         1 UNK         0.0600 
    166 H166        3.2773  -18.9130  -37.8703 H         1 UNK         0.0600 
    167 H167        2.9730  -20.4792  -38.6039 H         1 UNK         0.0600 
    168 H168        4.5315  -19.6951  -38.8329 H         1 UNK         0.0600 
    169 H169        4.3523  -17.3284  -39.5846 H         1 UNK         0.3000 
    170 H170        4.2628  -14.9808  -40.1913 H         1 UNK         0.0600 
    171 H171        5.9178  -16.4549  -41.4532 H         1 UNK         0.0600 
    172 H172        5.1845  -15.9575  -42.9722 H         1 UNK         0.0600 
    173 H173        6.0283  -14.7865  -41.9657 H         1 UNK         0.0600 
    174 H174        2.3896  -14.6732  -42.2715 H         1 UNK         0.3000 
    175 H175        2.8517  -11.1389  -42.6909 H         1 UNK         0.0600 
    176 H176        2.4805  -13.4447  -44.6709 H         1 UNK         0.0600 
    177 H177        2.0769  -11.7532  -44.9552 H         1 UNK         0.0600 
    178 H178        3.7529  -12.2339  -44.7357 H         1 UNK         0.0600 
    179 H179        0.6157  -12.8828  -43.1265 H         1 UNK         0.3000 
    180 H180       -0.9162  -12.6707  -40.0975 H         1 UNK         0.0600 
    181 H181       -1.4217  -10.2581  -41.9186 H         1 UNK         0.0600 
    182 H182       -1.1107  -10.2039  -40.1877 H         1 UNK         0.0600 
    183 H183       -2.5858  -10.9448  -40.7863 H         1 UNK         0.0600 
    184 H184       -1.5413  -12.5089  -43.0170 H         1 UNK         0.3000 
    185 H185       -2.0907  -15.9495  -43.2512 H         1 UNK         0.0600 
    186 H186       -4.4426  -15.5454  -43.9043 H         1 UNK         0.0600 
    187 H187       -4.2837  -15.4812  -42.1572 H         1 UNK         0.0600 
    188 H188       -4.4334  -13.9874  -43.0749 H         1 UNK         0.0600 
    189 H189       -2.8891  -13.8474  -44.9915 H         1 UNK         0.3000 
    190 H190       -0.5152  -19.5797  -47.0651 H         1 UNK         0.3000 
    191 H191       -2.2279  -19.2258  -49.3194 H         1 UNK         0.0600 
    192 H192       -2.4069  -18.0666  -46.4934 H         1 UNK         0.0600 
    193 H193       -3.2928  -17.4827  -47.8999 H         1 UNK         0.0600 
    194 H194       -1.5380  -17.3683  -47.8565 H         1 UNK         0.0600 
    195 H195       -2.9151  -20.4754  -46.0249 H         1 UNK         0.3000 
    196 H196       -4.6053  -21.5110  -45.0736 H         1 UNK         0.0600 
    197 H197       -5.1414  -22.7986  -47.8113 H         1 UNK         0.0600 
    198 H198       -4.0191  -23.3923  -46.5942 H         1 UNK         0.0600 
    199 H199       -5.7409  -23.3745  -46.2584 H         1 UNK         0.0600 
    200 H200       -6.8858  -21.8531  -47.5647 H         1 UNK         0.3000 
    201 H201       -8.5484  -19.6026  -46.6162 H         1 UNK         0.0600 
    202 H202       -9.1687  -21.9182  -48.5254 H         1 UNK         0.0600 
    203 H203      -10.3338  -20.7837  -47.8516 H         1 UNK         0.0600 
    204 H204       -9.5067  -21.9120  -46.7941 H         1 UNK         0.0600 
    205 H205       -6.0765  -19.3299  -48.3894 H         1 UNK         0.3000 
    206 H206       -5.2582  -18.1185  -50.0311 H         1 UNK         0.0600 
    207 H207       -8.0263  -16.9589  -50.6286 H         1 UNK         0.0600 
    208 H208       -6.8890  -16.2964  -49.4542 H         1 UNK         0.0600 
    209 H209       -6.4754  -16.3320  -51.1606 H         1 UNK         0.0600 
    210 H210       -5.9262  -20.7621  -50.2981 H         1 UNK         0.3000 
    211 H211       -5.5582  -21.4732  -52.9388 H         1 UNK         0.0600 
    212 H212       -7.8288  -20.7733  -53.5732 H         1 UNK         0.0600 
    213 H213       -8.5313  -21.5728  -52.1662 H         1 UNK         0.0600 
    214 H214       -7.8309  -22.5183  -53.4769 H         1 UNK         0.0600 
    215 H215       -4.0663  -22.5383  -51.4522 H         1 UNK         0.3000 
    216 H216       -5.1102  -24.5532  -49.5748 H         1 UNK         0.0600 
    217 H217       -2.2423  -23.8609  -50.3827 H         1 UNK         0.0600 
    218 H218       -2.7199  -24.9106  -49.0554 H         1 UNK         0.0600 
    219 H219       -3.0981  -23.1969  -48.9997 H         1 UNK         0.0600 
    220 H220       -3.8469  -24.4167  -52.8683 H         1 UNK         0.3000 
    221 H221       -4.6271  -27.0698  -53.5479 H         1 UNK         0.0600 
    222 H222       -2.4504  -27.6547  -52.3840 H         1 UNK         0.0600 
    223 H223       -1.5984  -26.4829  -53.3849 H         1 UNK         0.0600 
    224 H224       -2.3166  -27.9156  -54.1100 H         1 UNK         0.0600 
    225 H225       -3.8702  -27.4347  -55.9298 H         1 UNK         0.3000 
    226 H226       -4.5538  -25.2115  -57.5332 H         1 UNK         0.0600 
    227 H227       -4.8728  -27.5656  -58.2412 H         1 UNK         0.0600 
    228 H228       -3.8897  -26.7135  -59.4204 H         1 UNK         0.0600 
    229 H229       -3.1275  -27.8204  -58.2846 H         1 UNK         0.0600 
    230 H230       -1.4174  -26.2812  -56.3778 H         1 UNK         0.3000 
    231 H231        0.1065  -24.3882  -58.0616 H         1 UNK         0.0600 
    232 H232        0.9935  -26.3978  -55.9217 H         1 UNK         0.0600 
    233 H233        2.0574  -25.4811  -56.9818 H         1 UNK         0.0600 
    234 H234        0.9837  -26.6918  -57.6610 H         1 UNK         0.0600 
    235 H235       -1.7445  -24.0551  -55.2859 H         1 UNK         0.3000 
    236 H236       -0.0878  -21.8589  -54.1627 H         1 UNK         0.0600 
    237 H237       -1.3386  -24.1526  -52.5640 H         1 UNK         0.0600 
    238 H238        0.3855  -23.8543  -52.7681 H         1 UNK         0.0600 
    239 H239       -0.6013  -22.7060  -51.8795 H         1 UNK         0.0600 
    240 H240       -1.7310  -21.0835  -55.8228 H         1 UNK         0.3000 
    241 H241       -3.2480  -19.5874  -56.2136 H         1 UNK         0.0600 
    242 H242       -4.3186  -22.7401  -55.4420 H         1 UNK         0.3800 
    243 H243       -5.9398  -22.4850  -56.0275 H         1 UNK         0.3800 
    244 H244       -4.1454  -19.5530  -53.3059 H         1 UNK         0.0800 
    245 H245       -4.4698  -18.3324  -54.4988 H         1 UNK         0.0800 
    246 H246       -2.8695  -18.1963  -51.4476 H         1 UNK         0.0800 
    247 H247       -2.1643  -19.7293  -51.8924 H         1 UNK         0.0800 
@<TRIPOS>BOND
     1    1    2 1    
     2    1  127 1    
     3    1  128 1    
     4    1  129 1    
     5    2    3 2    
     6    2    4 am   BACKBONE|DICT|INTERRES
     7    4    5 1    
     8    4  130 1    
     9    5    6 1    
    10    5   65 1    
    11    5  131 1    
    12    6    7 1    
    13    6  132 1    
    14    6  133 1    
    15    7    8 1    
    16    8    9 1    
    17    8  134 1    
    18    8  135 1    
    19    9   10 ar   
    20    9   14 ar   
    21   10   11 ar   
    22   10  136 1    
    23   11   12 ar   
    24   11  126 1    
    25   12   13 ar   
    26   12  137 1    
    27   13   14 ar   
    28   13   15 1    
    29   14  138 1    
    30   15   16 1    
    31   15  139 1    
    32   15  140 1    
    33   16   17 1    
    34   17   18 1    
    35   17  141 1    
    36   17  142 1    
    37   18   19 1    
    38   18   67 1    
    39   18  143 1    
    40   19   20 am   BACKBONE|DICT|INTERRES
    41   19  144 1    
    42   20   21 2    
    43   20   22 1    
    44   22   23 1    
    45   22   24 1    
    46   22  145 1    
    47   23  146 1    
    48   23  147 1    
    49   23  148 1    
    50   24   25 am   BACKBONE|DICT|INTERRES
    51   24  149 1    
    52   25   26 2    
    53   25   27 1    
    54   27   28 1    
    55   27   29 1    
    56   27  150 1    
    57   28  151 1    
    58   28  152 1    
    59   28  153 1    
    60   29   30 am   BACKBONE|DICT|INTERRES
    61   29  154 1    
    62   30   31 2    
    63   30   32 1    
    64   32   33 1    
    65   32   34 1    
    66   32  155 1    
    67   33  156 1    
    68   33  157 1    
    69   33  158 1    
    70   34   35 am   BACKBONE|DICT|INTERRES
    71   34  159 1    
    72   35   36 2    
    73   35   37 1    
    74   37   38 1    
    75   37   39 1    
    76   37  160 1    
    77   38  161 1    
    78   38  162 1    
    79   38  163 1    
    80   39   40 am   BACKBONE|DICT|INTERRES
    81   39  164 1    
    82   40   41 2    
    83   40   42 1    
    84   42   43 1    
    85   42   44 1    
    86   42  165 1    
    87   43  166 1    
    88   43  167 1    
    89   43  168 1    
    90   44   45 am   BACKBONE|DICT|INTERRES
    91   44  169 1    
    92   45   46 2    
    93   45   47 1    
    94   47   48 1    
    95   47   49 1    
    96   47  170 1    
    97   48  171 1    
    98   48  172 1    
    99   48  173 1    
   100   49   50 am   BACKBONE|DICT|INTERRES
   101   49  174 1    
   102   50   51 2    
   103   50   52 1    
   104   52   53 1    
   105   52   54 1    
   106   52  175 1    
   107   53  176 1    
   108   53  177 1    
   109   53  178 1    
   110   54   55 am   BACKBONE|DICT|INTERRES
   111   54  179 1    
   112   55   56 2    
   113   55   57 1    
   114   57   58 1    
   115   57   59 1    
   116   57  180 1    
   117   58  181 1    
   118   58  182 1    
   119   58  183 1    
   120   59   60 am   BACKBONE|DICT|INTERRES
   121   59  184 1    
   122   60   61 2    
   123   60   62 1    
   124   62   63 1    
   125   62   64 1    
   126   62  185 1    
   127   63  186 1    
   128   63  187 1    
   129   63  188 1    
   130   64   65 am   BACKBONE|DICT|INTERRES
   131   64  189 1    
   132   65   66 2    
   133   67   68 2    
   134   67   69 am   BACKBONE|DICT|INTERRES
   135   69   70 1    
   136   69  190 1    
   137   70   71 1    
   138   70   72 1    
   139   70  191 1    
   140   71  192 1    
   141   71  193 1    
   142   71  194 1    
   143   72   73 2    
   144   72   74 am   BACKBONE|DICT|INTERRES
   145   74   75 1    
   146   74  195 1    
   147   75   76 1    
   148   75   77 1    
   149   75  196 1    
   150   76  197 1    
   151   76  198 1    
   152   76  199 1    
   153   77   78 2    
   154   77   79 am   BACKBONE|DICT|INTERRES
   155   79   80 1    
   156   79  200 1    
   157   80   81 1    
   158   80   82 1    
   159   80  201 1    
   160   81  202 1    
   161   81  203 1    
   162   81  204 1    
   163   82   83 2    
   164   82   84 am   BACKBONE|DICT|INTERRES
   165   84   85 1    
   166   84  205 1    
   167   85   86 1    
   168   85   87 1    
   169   85  206 1    
   170   86  207 1    
   171   86  208 1    
   172   86  209 1    
   173   87   88 2    
   174   87   89 am   BACKBONE|DICT|INTERRES
   175   89   90 1    
   176   89  210 1    
   177   90   91 1    
   178   90   92 1    
   179   90  211 1    
   180   91  212 1    
   181   91  213 1    
   182   91  214 1    
   183   92   93 2    
   184   92   94 am   BACKBONE|DICT|INTERRES
   185   94   95 1    
   186   94  215 1    
   187   95   96 1    
   188   95   97 1    
   189   95  216 1    
   190   96  217 1    
   191   96  218 1    
   192   96  219 1    
   193   97   98 2    
   194   97   99 am   BACKBONE|DICT|INTERRES
   195   99  100 1    
   196   99  220 1    
   197  100  101 1    
   198  100  102 1    
   199  100  221 1    
   200  101  222 1    
   201  101  223 1    
   202  101  224 1    
   203  102  103 2    
   204  102  104 am   BACKBONE|DICT|INTERRES
   205  104  105 1    
   206  104  225 1    
   207  105  106 1    
   208  105  107 1    
   209  105  226 1    
   210  106  227 1    
   211  106  228 1    
   212  106  229 1    
   213  107  108 2    
   214  107  109 am   BACKBONE|DICT|INTERRES
   215  109  110 1    
   216  109  230 1    
   217  110  111 1    
   218  110  112 1    
   219  110  231 1    
   220  111  232 1    
   221  111  233 1    
   222  111  234 1    
   223  112  113 2    
   224  112  114 am   BACKBONE|DICT|INTERRES
   225  114  115 1    
   226  114  235 1    
   227  115  116 1    
   228  115  117 1    
   229  115  236 1    
   230  116  237 1    
   231  116  238 1    
   232  116  239 1    
   233  117  118 2    
   234  117  119 am   BACKBONE|DICT|INTERRES
   235  119  120 1    
   236  119  240 1    
   237  120  121 1    
   238  120  124 1    
   239  120  241 1    
   240  121  122 am   BACKBONE|DICT|INTERRES
   241  121  123 2    
   242  122  242 1    
   243  122  243 1    
   244  124  125 1    
   245  124  244 1    
   246  124  245 1    
   247  125  126 1    
   248  126  246 1    
   249  126  247 1    
@<TRIPOS>SUBSTRUCTURE
     1 UNK         1 GROUP             0       ****    0 ROOT    
