@<TRIPOS>MOLECULE
3R540
247   249    1
SMALL
USER_CHARGES


@<TRIPOS>ATOM
      1 CA          3.2329  -19.9777  -46.0996 C.3       0 UNK        -0.1800 
      2 C           3.4165  -18.4686  -46.1530 C.2       0 UNK         0.5000 
      3 O           3.5799  -17.8360  -45.1126 O.2       0 UNK        -0.5000 
      4 N           3.4264  -17.8906  -47.3615 N.am      1 UNK        -0.5000 
      5 CA          3.5752  -16.4484  -47.6162 C.3       1 UNK         0.1400 
      6 C6          3.3814  -16.1044  -49.1132 C.3       23 UNK        -0.0398 
      7 S7          1.7464  -16.6142  -49.7441 S.3       23 UNK        -0.2404 
      8 C8          1.0549  -15.0166  -50.2723 C.3       23 UNK        -0.0205 
      9 C9         -0.3402  -15.1981  -50.8462 C.ar      23 UNK        -0.0193 
     10 C10        -0.5215  -15.4381  -52.2114 C.ar      23 UNK        -0.1150 
     11 C11        -1.8041  -15.6430  -52.7299 C.ar      23 UNK        -0.0193 
     12 C12        -2.9086  -15.6085  -51.8737 C.ar      23 UNK        -0.1150 
     13 C13        -2.7363  -15.3790  -50.5062 C.ar      23 UNK        -0.0193 
     14 C14        -1.4519  -15.1542  -50.0027 C.ar      23 UNK        -0.1150 
     15 C15        -3.9277  -15.4318  -49.5608 C.3       23 UNK        -0.0205 
     16 S16        -4.4341  -17.1501  -49.2226 S.3       23 UNK        -0.2404 
     17 C17        -2.8529  -17.8678  -48.6586 C.3       23 UNK        -0.0398 
     18 CA         -2.9898  -19.0522  -47.6821 C.3       11 UNK         0.1400 
     19 N          -3.7639  -18.7091  -46.4851 N.am      11 UNK        -0.5000 
     20 C          -3.7895  -19.4013  -45.3397 C.2       10 UNK         0.5000 
     21 O          -3.2773  -20.5149  -45.2111 O.2       10 UNK        -0.5000 
     22 CA         -4.5039  -18.7252  -44.1545 C.3       10 UNK         0.1400 
     23 CB         -4.5139  -19.6066  -42.8930 C.3       10 UNK        -0.1800 
     24 N          -3.8742  -17.4421  -43.8403 N.am      10 UNK        -0.5000 
     25 C          -4.1194  -16.2864  -44.4727 C.2       9 UNK         0.5000 
     26 O          -4.9479  -16.1704  -45.3767 O.2       9 UNK        -0.5000 
     27 CA         -3.2689  -15.0739  -44.0583 C.3       9 UNK         0.1400 
     28 CB         -3.6609  -14.5756  -42.6585 C.3       9 UNK        -0.1800 
     29 N          -1.8380  -15.3747  -44.0968 N.am      9 UNK        -0.5000 
     30 C          -1.1277  -15.5532  -45.2203 C.2       8 UNK         0.5000 
     31 O          -1.5919  -15.4030  -46.3491 O.2       8 UNK        -0.5000 
     32 CA          0.3447  -15.9795  -45.0625 C.3       8 UNK         0.1400 
     33 CB          1.2549  -14.7579  -44.8687 C.3       8 UNK        -0.1800 
     34 N           0.5367  -16.9071  -43.9508 N.am      8 UNK        -0.5000 
     35 C           0.1008  -18.1737  -43.9401 C.2       7 UNK         0.5000 
     36 O          -0.4303  -18.7242  -44.9041 O.2       7 UNK        -0.5000 
     37 CA          0.2589  -18.9446  -42.6177 C.3       7 UNK         0.1400 
     38 CB          1.6199  -19.6550  -42.5556 C.3       7 UNK        -0.1800 
     39 N           0.1097  -18.0750  -41.4481 N.am      7 UNK        -0.5000 
     40 C          -1.0562  -17.5623  -41.0301 C.2       6 UNK         0.5000 
     41 O          -2.1330  -17.7763  -41.5836 O.2       6 UNK        -0.5000 
     42 CA         -1.0090  -16.6205  -39.8126 C.3       6 UNK         0.1400 
     43 CB         -0.9675  -17.4260  -38.5054 C.3       6 UNK        -0.1800 
     44 N           0.1281  -15.7018  -39.8525 N.am      6 UNK        -0.5000 
     45 C           0.2927  -14.7371  -40.7686 C.2       5 UNK         0.5000 
     46 O          -0.5274  -14.4867  -41.6498 O.2       5 UNK        -0.5000 
     47 CA          1.6204  -13.9564  -40.7263 C.3       5 UNK         0.1400 
     48 CB          1.4899  -12.7213  -39.8228 C.3       5 UNK        -0.1800 
     49 N           2.7637  -14.7622  -40.2856 N.am      5 UNK        -0.5000 
     50 C           3.1919  -15.8767  -40.8931 C.2       4 UNK         0.5000 
     51 O           2.6385  -16.3733  -41.8768 O.2       4 UNK        -0.5000 
     52 CA          4.3900  -16.5890  -40.2401 C.3       4 UNK         0.1400 
     53 CB          3.9011  -17.5127  -39.1129 C.3       4 UNK        -0.1800 
     54 N           5.1517  -17.3885  -41.1983 N.am      4 UNK        -0.5000 
     55 C           5.8648  -16.8977  -42.2200 C.2       3 UNK         0.5000 
     56 O           6.0178  -15.6899  -42.4203 O.2       3 UNK        -0.5000 
     57 CA          6.5502  -17.9239  -43.1464 C.3       3 UNK         0.1400 
     58 CB          5.9236  -19.3329  -43.0859 C.3       3 UNK        -0.1800 
     59 N           6.5193  -17.4541  -44.5298 N.am      3 UNK        -0.5000 
     60 C           7.5212  -16.8173  -45.1524 C.2       2 UNK         0.5000 
     61 O           8.6058  -16.5753  -44.6194 O.2       2 UNK        -0.5000 
     62 CA          7.3061  -16.4004  -46.6231 C.3       2 UNK         0.1400 
     63 CB          8.3302  -17.0933  -47.5382 C.3       2 UNK        -0.1800 
     64 N           5.9649  -16.7184  -47.1151 N.am      2 UNK        -0.5000 
     65 C           4.9208  -15.8791  -47.1124 C.2       1 UNK         0.5000 
     66 O           4.9813  -14.7103  -46.7301 O.2       1 UNK        -0.5000 
     67 C          -3.3993  -20.3598  -48.3931 C.2       11 UNK         0.5000 
     68 O          -2.6856  -20.7971  -49.2948 O.2       11 UNK        -0.5000 
     69 N          -4.4652  -21.0235  -47.9266 N.am      12 UNK        -0.5000 
     70 CA         -4.7514  -22.4267  -48.2239 C.3       12 UNK         0.1400 
     71 CB         -6.0772  -22.8227  -47.5594 C.3       12 UNK        -0.1800 
     72 C          -3.6164  -23.3704  -47.7762 C.2       12 UNK         0.5000 
     73 O          -3.3234  -24.3356  -48.4821 O.2       12 UNK        -0.5000 
     74 N          -2.9649  -23.0424  -46.6489 N.am      13 UNK        -0.5000 
     75 CA         -1.7813  -23.7363  -46.1423 C.3       13 UNK         0.1400 
     76 CB         -1.5659  -23.3699  -44.6658 C.3       13 UNK        -0.1800 
     77 C          -0.5207  -23.4145  -46.9649 C.2       13 UNK         0.5000 
     78 O           0.3114  -24.2997  -47.1591 O.2       13 UNK        -0.5000 
     79 N          -0.4149  -22.1700  -47.4557 N.am      14 UNK        -0.5000 
     80 CA          0.6688  -21.7068  -48.3276 C.3       14 UNK         0.1400 
     81 CB          0.6251  -20.1741  -48.4520 C.3       14 UNK        -0.1800 
     82 C           0.6142  -22.3689  -49.7162 C.2       14 UNK         0.5000 
     83 O           1.6467  -22.7994  -50.2302 O.2       14 UNK        -0.5000 
     84 N          -0.5994  -22.4704  -50.2749 N.am      15 UNK        -0.5000 
     85 CA         -0.8975  -23.1869  -51.5152 C.3       15 UNK         0.1400 
     86 CB         -2.3070  -22.7910  -51.9828 C.3       15 UNK        -0.1800 
     87 C          -0.8076  -24.7185  -51.3669 C.2       15 UNK         0.5000 
     88 O          -0.6265  -25.4093  -52.3699 O.2       15 UNK        -0.5000 
     89 N          -0.9655  -25.2102  -50.1280 N.am      16 UNK        -0.5000 
     90 CA         -1.0897  -26.6150  -49.7248 C.3       16 UNK         0.1400 
     91 CB          0.2283  -27.3788  -49.9665 C.3       16 UNK        -0.1800 
     92 C          -2.3195  -27.2884  -50.3708 C.2       16 UNK         0.5000 
     93 O          -2.2476  -28.4403  -50.8038 O.2       16 UNK        -0.5000 
     94 N          -3.4216  -26.5332  -50.4423 N.am      17 UNK        -0.5000 
     95 CA         -4.6612  -26.8891  -51.1192 C.3       17 UNK         0.1400 
     96 CB         -4.4614  -26.8934  -52.6528 C.3       17 UNK        -0.1800 
     97 C          -5.7536  -25.9178  -50.6506 C.2       17 UNK         0.5000 
     98 O          -6.3691  -26.1542  -49.6107 O.2       17 UNK        -0.5000 
     99 N          -5.9647  -24.8398  -51.4118 N.am      18 UNK        -0.5000 
    100 CA        -6.9426  -23.7905  -51.1592 C.3       18 UNK         0.1400 
    101 CB        -8.2839  -24.1654  -51.8120 C.3       18 UNK        -0.1800 
    102 C         -6.4036  -22.4780  -51.7385 C.2       18 UNK         0.5000 
    103 O         -5.6012  -22.5079  -52.6747 O.2       18 UNK        -0.5000 
    104 N         -6.8852  -21.3481  -51.2035 N.am      19 UNK        -0.5000 
    105 CA        -6.5223  -19.9911  -51.6336 C.3       19 UNK         0.1400 
    106 CB        -7.1928  -18.9783  -50.6953 C.3       19 UNK        -0.1800 
    107 C         -6.8875  -19.6873  -53.1016 C.2       19 UNK         0.5000 
    108 O         -6.2390  -18.8546  -53.7366 O.2       19 UNK        -0.5000 
    109 N         -7.8793  -20.4164  -53.6342 N.am      20 UNK        -0.5000 
    110 CA        -8.3185  -20.4099  -55.0322 C.3       20 UNK         0.1400 
    111 CB        -9.5367  -21.3376  -55.1631 C.3       20 UNK        -0.1800 
    112 C         -7.2283  -20.8030  -56.0541 C.2       20 UNK         0.5000 
    113 O         -7.4121  -20.5577  -57.2469 O.2       20 UNK        -0.5000 
    114 N         -6.1103  -21.3769  -55.5823 N.am      21 UNK        -0.5000 
    115 CA        -4.9060  -21.6534  -56.3661 C.3       21 UNK         0.1400 
    116 CB        -3.9201  -22.4491  -55.4981 C.3       21 UNK        -0.1800 
    117 C         -4.2203  -20.3882  -56.9259 C.2       21 UNK         0.5000 
    118 O         -3.5207  -20.4916  -57.9349 O.2       21 UNK        -0.5000 
    119 N         -4.4308  -19.2276  -56.2889 N.am      22 UNK        -0.5000 
    120 CA        -3.9061  -17.9305  -56.7456 C.3       22 UNK         0.1400 
    121 C         -4.8121  -16.7064  -56.4324 C.2       22 UNK         0.5000 
    122 N         -5.8065  -16.7944  -55.5581 N.am      22 UNK        -0.7600 
    123 O         -4.6219  -15.6454  -57.0209 O.2       22 UNK        -0.5000 
    124 C124       -2.4261  -17.7000  -56.3372 C.3       23 UNK        -0.0398 
    125 S125       -2.1407  -17.7045  -54.5324 S.3       23 UNK        -0.2404 
    126 C126       -1.9996  -15.9191  -54.2105 C.3       23 UNK        -0.0205 
    127 H127        3.9517  -20.4210  -45.4108 H         1 UNK         0.0600 
    128 H128        3.3797  -20.4345  -47.0780 H         1 UNK         0.0600 
    129 H129        2.2302  -20.2213  -45.7498 H         1 UNK         0.0600 
    130 H130        3.2824  -18.4579  -48.1842 H         1 UNK         0.3000 
    131 H131        2.7909  -15.9404  -47.0535 H         1 UNK         0.0600 
    132 H132        3.5081  -15.0323  -49.2760 H         1 UNK         0.0800 
    133 H133        4.1452  -16.5931  -49.7207 H         1 UNK         0.0800 
    134 H134        1.0246  -14.3327  -49.4225 H         1 UNK         0.0800 
    135 H135        1.7099  -14.5621  -51.0173 H         1 UNK         0.0800 
    136 H136        0.3371  -15.4822  -52.8667 H         1 UNK         0.1150 
    137 H137       -3.8988  -15.7937  -52.2665 H         1 UNK         0.1150 
    138 H138       -1.3109  -14.9845  -48.9446 H         1 UNK         0.1150 
    139 H139       -3.6926  -14.9364  -48.6170 H         1 UNK         0.0800 
    140 H140       -4.7680  -14.8883  -49.9948 H         1 UNK         0.0800 
    141 H141       -2.2605  -18.1439  -49.5333 H         1 UNK         0.0800 
    142 H142       -2.2813  -17.0880  -48.1585 H         1 UNK         0.0800 
    143 H143       -1.9807  -19.2508  -47.3157 H         1 UNK         0.0600 
    144 H144       -4.2218  -17.8040  -46.5000 H         1 UNK         0.3000 
    145 H145       -5.5419  -18.5555  -44.4479 H         1 UNK         0.0600 
    146 H146       -5.0113  -19.1040  -42.0634 H         1 UNK         0.0600 
    147 H147       -5.0458  -20.5413  -43.0746 H         1 UNK         0.0600 
    148 H148       -3.5036  -19.8627  -42.5718 H         1 UNK         0.0600 
    149 H149       -3.1655  -17.4665  -43.1104 H         1 UNK         0.3000 
    150 H150       -3.4675  -14.2682  -44.7683 H         1 UNK         0.0600 
    151 H151       -4.7271  -14.3521  -42.6074 H         1 UNK         0.0600 
    152 H152       -3.1248  -13.6612  -42.4036 H         1 UNK         0.0600 
    153 H153       -3.4420  -15.3151  -41.8879 H         1 UNK         0.0600 
    154 H154       -1.3609  -15.4280  -43.2031 H         1 UNK         0.3000 
    155 H155        0.6457  -16.4877  -45.9812 H         1 UNK         0.0600 
    156 H156        2.2971  -15.0570  -44.7500 H         1 UNK         0.0600 
    157 H157        1.2007  -14.0921  -45.7307 H         1 UNK         0.0600 
    158 H158        0.9713  -14.1804  -43.9889 H         1 UNK         0.0600 
    159 H159        1.0531  -16.5677  -43.1462 H         1 UNK         0.3000 
    160 H160       -0.5238  -19.7057  -42.5814 H         1 UNK         0.0600 
    161 H161        2.4474  -18.9496  -42.6381 H         1 UNK         0.0600 
    162 H162        1.7198  -20.3728  -43.3699 H         1 UNK         0.0600 
    163 H163        1.7379  -20.2052  -41.6221 H         1 UNK         0.0600 
    164 H164        0.9629  -17.7818  -40.9946 H         1 UNK         0.3000 
    165 H165       -1.9246  -16.0252  -39.8172 H         1 UNK         0.0600 
    166 H166       -1.0171  -16.7697  -37.6364 H         1 UNK         0.0600 
    167 H167       -1.8143  -18.1109  -38.4427 H         1 UNK         0.0600 
    168 H168       -0.0569  -18.0211  -38.4257 H         1 UNK         0.0600 
    169 H169        0.8518  -15.8374  -39.1626 H         1 UNK         0.3000 
    170 H170        1.8315  -13.6151  -41.7415 H         1 UNK         0.0600 
    171 H171        0.6584  -12.0910  -40.1413 H         1 UNK         0.0600 
    172 H172        1.3119  -12.9992  -38.7832 H         1 UNK         0.0600 
    173 H173        2.3913  -12.1091  -39.8581 H         1 UNK         0.0600 
    174 H174        3.2594  -14.4276  -39.4718 H         1 UNK         0.3000 
    175 H175        5.0576  -15.8355  -39.8172 H         1 UNK         0.0600 
    176 H176        3.3555  -16.9526  -38.3524 H         1 UNK         0.0600 
    177 H177        3.2346  -18.2900  -39.4896 H         1 UNK         0.0600 
    178 H178        4.7375  -18.0019  -38.6132 H         1 UNK         0.0600 
    179 H179        5.0546  -18.3896  -41.1211 H         1 UNK         0.3000 
    180 H180        7.5841  -18.0127  -42.8075 H         1 UNK         0.0600 
    181 H181        4.8513  -19.3107  -43.2806 H         1 UNK         0.0600 
    182 H182        6.0763  -19.7946  -42.1100 H         1 UNK         0.0600 
    183 H183        6.3789  -19.9954  -43.8223 H         1 UNK         0.0600 
    184 H184        5.6197  -17.5259  -44.9916 H         1 UNK         0.3000 
    185 H185        7.4762  -15.3234  -46.6818 H         1 UNK         0.0600 
    186 H186        9.3513  -16.8472  -47.2439 H         1 UNK         0.0600 
    187 H187        8.2312  -18.1789  -47.5037 H         1 UNK         0.0600 
    188 H188        8.2094  -16.7776  -48.5747 H         1 UNK         0.0600 
    189 H189        5.8174  -17.6639  -47.4377 H         1 UNK         0.3000 
    190 H190       -4.9904  -20.6006  -47.1761 H         1 UNK         0.3000 
    191 H191       -4.8514  -22.5280  -49.3045 H         1 UNK         0.0600 
    192 H192       -6.0363  -22.6990  -46.4764 H         1 UNK         0.0600 
    193 H193       -6.3179  -23.8679  -47.7588 H         1 UNK         0.0600 
    194 H194       -6.9035  -22.2189  -47.9344 H         1 UNK         0.0600 
    195 H195       -3.2462  -22.2099  -46.1370 H         1 UNK         0.3000 
    196 H196       -1.9593  -24.8121  -46.2045 H         1 UNK         0.0600 
    197 H197       -0.7257  -23.9241  -44.2456 H         1 UNK         0.0600 
    198 H198       -2.4454  -23.6080  -44.0674 H         1 UNK         0.0600 
    199 H199       -1.3527  -22.3075  -44.5393 H         1 UNK         0.0600 
    200 H200       -1.1478  -21.5103  -47.2464 H         1 UNK         0.3000 
    201 H201        1.6145  -21.9855  -47.8588 H         1 UNK         0.0600 
    202 H202        0.5927  -19.6903  -47.4759 H         1 UNK         0.0600 
    203 H203       -0.2393  -19.8330  -49.0207 H         1 UNK         0.0600 
    204 H204        1.5105  -19.8058  -48.9706 H         1 UNK         0.0600 
    205 H205       -1.3845  -22.0080  -49.8217 H         1 UNK         0.3000 
    206 H206       -0.1782  -22.8799  -52.2771 H         1 UNK         0.0600 
    207 H207       -2.3756  -21.7203  -52.1766 H         1 UNK         0.0600 
    208 H208       -2.5741  -23.3076  -52.9052 H         1 UNK         0.0600 
    209 H209       -3.0633  -23.0428  -51.2381 H         1 UNK         0.0600 
    210 H210       -1.1409  -24.5408  -49.3918 H         1 UNK         0.3000 
    211 H211       -1.2746  -26.6076  -48.6496 H         1 UNK         0.0600 
    212 H212        0.4516  -27.4800  -51.0288 H         1 UNK         0.0600 
    213 H213        0.1789  -28.3838  -49.5461 H         1 UNK         0.0600 
    214 H214        1.0684  -26.8702  -49.4934 H         1 UNK         0.0600 
    215 H215       -3.4184  -25.6362  -49.9628 H         1 UNK         0.3000 
    216 H216       -4.9621  -27.8901  -50.8036 H         1 UNK         0.0600 
    217 H217       -4.0119  -25.9659  -53.0100 H         1 UNK         0.0600 
    218 H218       -5.4101  -27.0299  -53.1736 H         1 UNK         0.0600 
    219 H219       -3.8099  -27.7106  -52.9621 H         1 UNK         0.0600 
    220 H220       -5.3808  -24.6724  -52.2217 H         1 UNK         0.3000 
    221 H221       -7.0844  -23.6666  -50.0851 H         1 UNK         0.0600 
    222 H222       -8.6731  -25.0987  -51.4045 H         1 UNK         0.0600 
    223 H223       -8.1847  -24.2882  -52.8914 H         1 UNK         0.0600 
    224 H224       -9.0372  -23.3969  -51.6352 H         1 UNK         0.0600 
    225 H225       -7.5580  -21.4084  -50.4529 H         1 UNK         0.3000 
    226 H226       -5.4392  -19.8870  -51.5369 H         1 UNK         0.0600 
    227 H227       -6.8748  -19.1273  -49.6631 H         1 UNK         0.0600 
    228 H228       -6.9280  -17.9565  -50.9711 H         1 UNK         0.0600 
    229 H229       -8.2802  -19.0556  -50.7281 H         1 UNK         0.0600 
    230 H230       -8.3453  -21.0754  -53.0293 H         1 UNK         0.3000 
    231 H231       -8.6314  -19.3922  -55.2737 H         1 UNK         0.0600 
    232 H232       -9.2855  -22.3677  -54.9069 H         1 UNK         0.0600 
    233 H233       -9.9225  -21.3377  -56.1835 H         1 UNK         0.0600 
    234 H234      -10.3498  -21.0171  -54.5115 H         1 UNK         0.0600 
    235 H235       -6.0472  -21.5737  -54.5902 H         1 UNK         0.3000 
    236 H236       -5.1961  -22.2747  -57.2157 H         1 UNK         0.0600 
    237 H237       -4.3655  -23.3776  -55.1403 H         1 UNK         0.0600 
    238 H238       -3.0243  -22.7134  -56.0615 H         1 UNK         0.0600 
    239 H239       -3.6035  -21.8717  -54.6287 H         1 UNK         0.0600 
    240 H240       -5.0053  -19.2146  -55.4559 H         1 UNK         0.3000 
    241 H241       -3.9179  -17.9630  -57.8371 H         1 UNK         0.0600 
    242 H242       -6.3771  -15.9797  -55.4006 H         1 UNK         0.3800 
    243 H243       -5.9515  -17.6121  -54.9702 H         1 UNK         0.3800 
    244 H244       -2.0491  -16.7719  -56.7701 H         1 UNK         0.0800 
    245 H245       -1.8065  -18.4874  -56.7679 H         1 UNK         0.0800 
    246 H246       -1.1669  -15.5101  -54.7849 H         1 UNK         0.0800 
    247 H247       -2.8978  -15.4087  -54.5604 H         1 UNK         0.0800 
@<TRIPOS>BOND
     1    1    2 1    
     2    1  127 1    
     3    1  128 1    
     4    1  129 1    
     5    2    3 2    
     6    2    4 am   BACKBONE|DICT|INTERRES
     7    4    5 1    
     8    4  130 1    
     9    5    6 1    
    10    5   65 1    
    11    5  131 1    
    12    6    7 1    
    13    6  132 1    
    14    6  133 1    
    15    7    8 1    
    16    8    9 1    
    17    8  134 1    
    18    8  135 1    
    19    9   10 ar   
    20    9   14 ar   
    21   10   11 ar   
    22   10  136 1    
    23   11   12 ar   
    24   11  126 1    
    25   12   13 ar   
    26   12  137 1    
    27   13   14 ar   
    28   13   15 1    
    29   14  138 1    
    30   15   16 1    
    31   15  139 1    
    32   15  140 1    
    33   16   17 1    
    34   17   18 1    
    35   17  141 1    
    36   17  142 1    
    37   18   19 1    
    38   18   67 1    
    39   18  143 1    
    40   19   20 am   BACKBONE|DICT|INTERRES
    41   19  144 1    
    42   20   21 2    
    43   20   22 1    
    44   22   23 1    
    45   22   24 1    
    46   22  145 1    
    47   23  146 1    
    48   23  147 1    
    49   23  148 1    
    50   24   25 am   BACKBONE|DICT|INTERRES
    51   24  149 1    
    52   25   26 2    
    53   25   27 1    
    54   27   28 1    
    55   27   29 1    
    56   27  150 1    
    57   28  151 1    
    58   28  152 1    
    59   28  153 1    
    60   29   30 am   BACKBONE|DICT|INTERRES
    61   29  154 1    
    62   30   31 2    
    63   30   32 1    
    64   32   33 1    
    65   32   34 1    
    66   32  155 1    
    67   33  156 1    
    68   33  157 1    
    69   33  158 1    
    70   34   35 am   BACKBONE|DICT|INTERRES
    71   34  159 1    
    72   35   36 2    
    73   35   37 1    
    74   37   38 1    
    75   37   39 1    
    76   37  160 1    
    77   38  161 1    
    78   38  162 1    
    79   38  163 1    
    80   39   40 am   BACKBONE|DICT|INTERRES
    81   39  164 1    
    82   40   41 2    
    83   40   42 1    
    84   42   43 1    
    85   42   44 1    
    86   42  165 1    
    87   43  166 1    
    88   43  167 1    
    89   43  168 1    
    90   44   45 am   BACKBONE|DICT|INTERRES
    91   44  169 1    
    92   45   46 2    
    93   45   47 1    
    94   47   48 1    
    95   47   49 1    
    96   47  170 1    
    97   48  171 1    
    98   48  172 1    
    99   48  173 1    
   100   49   50 am   BACKBONE|DICT|INTERRES
   101   49  174 1    
   102   50   51 2    
   103   50   52 1    
   104   52   53 1    
   105   52   54 1    
   106   52  175 1    
   107   53  176 1    
   108   53  177 1    
   109   53  178 1    
   110   54   55 am   BACKBONE|DICT|INTERRES
   111   54  179 1    
   112   55   56 2    
   113   55   57 1    
   114   57   58 1    
   115   57   59 1    
   116   57  180 1    
   117   58  181 1    
   118   58  182 1    
   119   58  183 1    
   120   59   60 am   BACKBONE|DICT|INTERRES
   121   59  184 1    
   122   60   61 2    
   123   60   62 1    
   124   62   63 1    
   125   62   64 1    
   126   62  185 1    
   127   63  186 1    
   128   63  187 1    
   129   63  188 1    
   130   64   65 am   BACKBONE|DICT|INTERRES
   131   64  189 1    
   132   65   66 2    
   133   67   68 2    
   134   67   69 am   BACKBONE|DICT|INTERRES
   135   69   70 1    
   136   69  190 1    
   137   70   71 1    
   138   70   72 1    
   139   70  191 1    
   140   71  192 1    
   141   71  193 1    
   142   71  194 1    
   143   72   73 2    
   144   72   74 am   BACKBONE|DICT|INTERRES
   145   74   75 1    
   146   74  195 1    
   147   75   76 1    
   148   75   77 1    
   149   75  196 1    
   150   76  197 1    
   151   76  198 1    
   152   76  199 1    
   153   77   78 2    
   154   77   79 am   BACKBONE|DICT|INTERRES
   155   79   80 1    
   156   79  200 1    
   157   80   81 1    
   158   80   82 1    
   159   80  201 1    
   160   81  202 1    
   161   81  203 1    
   162   81  204 1    
   163   82   83 2    
   164   82   84 am   BACKBONE|DICT|INTERRES
   165   84   85 1    
   166   84  205 1    
   167   85   86 1    
   168   85   87 1    
   169   85  206 1    
   170   86  207 1    
   171   86  208 1    
   172   86  209 1    
   173   87   88 2    
   174   87   89 am   BACKBONE|DICT|INTERRES
   175   89   90 1    
   176   89  210 1    
   177   90   91 1    
   178   90   92 1    
   179   90  211 1    
   180   91  212 1    
   181   91  213 1    
   182   91  214 1    
   183   92   93 2    
   184   92   94 am   BACKBONE|DICT|INTERRES
   185   94   95 1    
   186   94  215 1    
   187   95   96 1    
   188   95   97 1    
   189   95  216 1    
   190   96  217 1    
   191   96  218 1    
   192   96  219 1    
   193   97   98 2    
   194   97   99 am   BACKBONE|DICT|INTERRES
   195   99  100 1    
   196   99  220 1    
   197  100  101 1    
   198  100  102 1    
   199  100  221 1    
   200  101  222 1    
   201  101  223 1    
   202  101  224 1    
   203  102  103 2    
   204  102  104 am   BACKBONE|DICT|INTERRES
   205  104  105 1    
   206  104  225 1    
   207  105  106 1    
   208  105  107 1    
   209  105  226 1    
   210  106  227 1    
   211  106  228 1    
   212  106  229 1    
   213  107  108 2    
   214  107  109 am   BACKBONE|DICT|INTERRES
   215  109  110 1    
   216  109  230 1    
   217  110  111 1    
   218  110  112 1    
   219  110  231 1    
   220  111  232 1    
   221  111  233 1    
   222  111  234 1    
   223  112  113 2    
   224  112  114 am   BACKBONE|DICT|INTERRES
   225  114  115 1    
   226  114  235 1    
   227  115  116 1    
   228  115  117 1    
   229  115  236 1    
   230  116  237 1    
   231  116  238 1    
   232  116  239 1    
   233  117  118 2    
   234  117  119 am   BACKBONE|DICT|INTERRES
   235  119  120 1    
   236  119  240 1    
   237  120  121 1    
   238  120  124 1    
   239  120  241 1    
   240  121  122 am   BACKBONE|DICT|INTERRES
   241  121  123 2    
   242  122  242 1    
   243  122  243 1    
   244  124  125 1    
   245  124  244 1    
   246  124  245 1    
   247  125  126 1    
   248  126  246 1    
   249  126  247 1    
@<TRIPOS>SUBSTRUCTURE
     1 UNK         1 GROUP             0       ****    0 ROOT    
