@<TRIPOS>MOLECULE
3R540
247   249    1
SMALL
USER_CHARGES


@<TRIPOS>ATOM
      1 CA         -1.7961  -13.4064  -43.6429 C.3       0 UNK        -0.1800 
      2 C          -1.7273  -13.7971  -45.1128 C.2       0 UNK         0.5000 
      3 O          -2.7651  -14.0525  -45.7224 O.2       0 UNK        -0.5000 
      4 N          -0.5160  -13.8448  -45.6805 N.am      1 UNK        -0.5000 
      5 CA         -0.2691  -14.1411  -47.0952 C.3       1 UNK         0.1400 
      6 C6          1.2009  -14.5388  -47.3736 C.3       23 UNK        -0.0398 
      7 S7          1.7005  -16.0961  -46.5611 S.3       23 UNK        -0.2404 
      8 C8          2.4078  -17.0359  -47.9599 C.3       23 UNK        -0.0205 
      9 C9          1.4097  -17.9715  -48.6366 C.ar      23 UNK        -0.0193 
     10 C10         0.1833  -17.4978  -49.1125 C.ar      23 UNK        -0.1150 
     11 C11        -0.7187  -18.3581  -49.7427 C.ar      23 UNK        -0.0193 
     12 C12        -0.3825  -19.7034  -49.9112 C.ar      23 UNK        -0.1150 
     13 C13         0.8426  -20.1961  -49.4535 C.ar      23 UNK        -0.0193 
     14 C14         1.7355  -19.3193  -48.8227 C.ar      23 UNK        -0.1150 
     15 C15         1.1748  -21.6725  -49.6729 C.3       23 UNK        -0.0205 
     16 S16         2.1790  -22.4485  -48.3602 S.3       23 UNK        -0.2404 
     17 C17         1.1646  -22.1243  -46.8814 C.3       23 UNK        -0.0398 
     18 CA          0.3540  -23.3416  -46.3876 C.3       11 UNK         0.1400 
     19 N          -0.0349  -23.1710  -44.9888 N.am      11 UNK        -0.5000 
     20 C          -0.6009  -24.1050  -44.2151 C.2       10 UNK         0.5000 
     21 O          -0.9491  -25.2112  -44.6278 O.2       10 UNK        -0.5000 
     22 CA         -0.8210  -23.7328  -42.7410 C.3       10 UNK         0.1400 
     23 CB          0.4853  -23.8948  -41.9487 C.3       10 UNK        -0.1800 
     24 N          -1.2874  -22.3520  -42.6189 N.am      10 UNK        -0.5000 
     25 C          -2.5598  -21.9978  -42.3978 C.2       9 UNK         0.5000 
     26 O          -3.4679  -22.8011  -42.1810 O.2       9 UNK        -0.5000 
     27 CA         -2.8847  -20.4901  -42.4417 C.3       9 UNK         0.1400 
     28 CB         -2.7636  -19.8739  -41.0397 C.3       9 UNK        -0.1800 
     29 N          -2.0547  -19.7193  -43.3712 N.am      9 UNK        -0.5000 
     30 C          -1.9711  -19.9324  -44.6921 C.2       8 UNK         0.5000 
     31 O          -2.5640  -20.8336  -45.2806 O.2       8 UNK        -0.5000 
     32 CA         -1.0229  -19.0185  -45.4869 C.3       8 UNK         0.1400 
     33 CB         -1.7432  -17.7126  -45.8504 C.3       8 UNK        -0.1800 
     34 N           0.2385  -18.6906  -44.8153 N.am      8 UNK        -0.5000 
     35 C           1.0628  -19.5114  -44.1448 C.2       7 UNK         0.5000 
     36 O           0.8455  -20.7089  -43.9545 O.2       7 UNK        -0.5000 
     37 CA          2.3441  -18.8813  -43.5665 C.3       7 UNK         0.1400 
     38 CB          3.5355  -19.1541  -44.4958 C.3       7 UNK        -0.1800 
     39 N           2.2279  -17.4372  -43.3409 N.am      7 UNK        -0.5000 
     40 C           1.4320  -16.8733  -42.4206 C.2       6 UNK         0.5000 
     41 O           0.7400  -17.5232  -41.6356 O.2       6 UNK        -0.5000 
     42 CA          1.3849  -15.3361  -42.3940 C.3       6 UNK         0.1400 
     43 CB          1.0883  -14.7665  -40.9943 C.3       6 UNK        -0.1800 
     44 N           2.6174  -14.7406  -42.9189 N.am      6 UNK        -0.5000 
     45 C           2.6566  -13.6447  -43.6843 C.2       5 UNK         0.5000 
     46 O           1.6426  -13.0608  -44.0691 O.2       5 UNK        -0.5000 
     47 CA          4.0606  -13.1329  -44.0715 C.3       5 UNK         0.1400 
     48 CB          4.6413  -13.9194  -45.2635 C.3       5 UNK        -0.1800 
     49 N           4.1091  -11.6822  -44.3051 N.am      5 UNK        -0.5000 
     50 C           3.5112  -10.9707  -45.2720 C.2       4 UNK         0.5000 
     51 O           2.8928  -11.4508  -46.2268 O.2       4 UNK        -0.5000 
     52 CA          3.6173   -9.4405  -45.1453 C.3       4 UNK         0.1400 
     53 CB          4.5991   -8.8717  -46.1807 C.3       4 UNK        -0.1800 
     54 N           2.3002   -8.8532  -45.3624 N.am      4 UNK        -0.5000 
     55 C           1.3014   -8.8650  -44.4729 C.2       3 UNK         0.5000 
     56 O           1.4514   -9.1403  -43.2819 O.2       3 UNK        -0.5000 
     57 CA         -0.1136   -8.5794  -45.0147 C.3       3 UNK         0.1400 
     58 CB         -0.3394   -7.0764  -45.2697 C.3       3 UNK        -0.1800 
     59 N          -0.4534   -9.4036  -46.1859 N.am      3 UNK        -0.5000 
     60 C           0.0556   -9.3533  -47.4267 C.2       2 UNK         0.5000 
     61 O           0.8616   -8.5009  -47.8045 O.2       2 UNK        -0.5000 
     62 CA         -0.3471  -10.5054  -48.3599 C.3       2 UNK         0.1400 
     63 CB          0.4090  -10.4863  -49.7050 C.3       2 UNK        -0.1800 
     64 N          -0.1126  -11.7687  -47.6634 N.am      2 UNK        -0.5000 
     65 C          -0.6742  -12.9429  -47.9739 C.2       1 UNK         0.5000 
     66 O          -1.4792  -13.1002  -48.8925 O.2       1 UNK        -0.5000 
     67 C          -0.8394  -23.6626  -47.3110 C.2       11 UNK         0.5000 
     68 O          -0.7040  -24.5248  -48.1757 O.2       11 UNK        -0.5000 
     69 N          -1.9972  -23.0221  -47.0906 N.am      12 UNK        -0.5000 
     70 CA         -3.2220  -23.2762  -47.8553 C.3       12 UNK         0.1400 
     71 CB         -4.2467  -22.1713  -47.5586 C.3       12 UNK        -0.1800 
     72 C          -3.8366  -24.6629  -47.5809 C.2       12 UNK         0.5000 
     73 O          -4.5200  -25.2022  -48.4501 O.2       12 UNK        -0.5000 
     74 N          -3.5872  -25.2207  -46.3880 N.am      13 UNK        -0.5000 
     75 CA         -3.9920  -26.5785  -46.0273 C.3       13 UNK         0.1400 
     76 CB         -4.0948  -26.7007  -44.4988 C.3       13 UNK        -0.1800 
     77 C          -3.0187  -27.6209  -46.6046 C.2       13 UNK         0.5000 
     78 O          -3.4618  -28.6641  -47.0860 O.2       13 UNK        -0.5000 
     79 N          -1.7143  -27.3157  -46.5531 N.am      14 UNK        -0.5000 
     80 CA         -0.6380  -28.1557  -47.0772 C.3       14 UNK         0.1400 
     81 CB          0.7099  -27.6301  -46.5593 C.3       14 UNK        -0.1800 
     82 C          -0.6351  -28.2390  -48.6152 C.2       14 UNK         0.5000 
     83 O          -0.4735  -29.3301  -49.1636 O.2       14 UNK        -0.5000 
     84 N          -0.8157  -27.0910  -49.2763 N.am      15 UNK        -0.5000 
     85 CA         -0.8313  -26.9331  -50.7233 C.3       15 UNK         0.1400 
     86 CB          0.3862  -26.0924  -51.1486 C.3       15 UNK        -0.1800 
     87 C          -2.1586  -26.2767  -51.1239 C.2       15 UNK         0.5000 
     88 O          -2.2390  -25.0530  -51.2434 O.2       15 UNK        -0.5000 
     89 N          -3.1846  -27.1089  -51.3426 N.am      16 UNK        -0.5000 
     90 CA         -4.5321  -26.6905  -51.7473 C.3       16 UNK         0.1400 
     91 CB         -5.4540  -27.9186  -51.7652 C.3       16 UNK        -0.1800 
     92 C          -4.5839  -25.9530  -53.1021 C.2       16 UNK         0.5000 
     93 O          -5.4868  -25.1459  -53.3184 O.2       16 UNK        -0.5000 
     94 N          -3.6031  -26.2132  -53.9780 N.am      17 UNK        -0.5000 
     95 CA         -3.4131  -25.5016  -55.2426 C.3       17 UNK         0.1400 
     96 CB         -2.4375  -26.2962  -56.1237 C.3       17 UNK        -0.1800 
     97 C          -2.9079  -24.0579  -55.0469 C.2       17 UNK         0.5000 
     98 O          -3.2511  -23.1849  -55.8443 O.2       17 UNK        -0.5000 
     99 N          -2.1150  -23.8255  -53.9903 N.am      18 UNK        -0.5000 
    100 CA        -1.5678  -22.5128  -53.6424 C.3       18 UNK         0.1400 
    101 CB        -0.2881  -22.6934  -52.8148 C.3       18 UNK        -0.1800 
    102 C         -2.5813  -21.6375  -52.8864 C.2       18 UNK         0.5000 
    103 O         -2.4637  -20.4137  -52.9262 O.2       18 UNK        -0.5000 
    104 N         -3.5805  -22.2650  -52.2474 N.am      19 UNK        -0.5000 
    105 CA        -4.6732  -21.6110  -51.5194 C.3       19 UNK         0.1400 
    106 CB        -5.5967  -22.6847  -50.9290 C.3       19 UNK        -0.1800 
    107 C         -5.4988  -20.6331  -52.3782 C.2       19 UNK         0.5000 
    108 O         -6.0415  -19.6663  -51.8456 O.2       19 UNK        -0.5000 
    109 N         -5.5451  -20.8734  -53.6963 N.am      20 UNK        -0.5000 
    110 CA        -6.1756  -20.0055  -54.6914 C.3       20 UNK         0.1400 
    111 CB        -6.1300  -20.7048  -56.0581 C.3       20 UNK        -0.1800 
    112 C         -5.5409  -18.6020  -54.7814 C.2       20 UNK         0.5000 
    113 O         -6.2361  -17.6499  -55.1375 O.2       20 UNK        -0.5000 
    114 N         -4.2502  -18.4846  -54.4345 N.am      21 UNK        -0.5000 
    115 CA        -3.5215  -17.2160  -54.3939 C.3       21 UNK         0.1400 
    116 CB        -2.0149  -17.4936  -54.5218 C.3       21 UNK        -0.1800 
    117 C         -3.8170  -16.3909  -53.1254 C.2       21 UNK         0.5000 
    118 O         -3.4817  -15.2064  -53.0962 O.2       21 UNK        -0.5000 
    119 N         -4.4245  -17.0115  -52.1029 N.am      22 UNK        -0.5000 
    120 CA        -4.7886  -16.3591  -50.8344 C.3       22 UNK         0.1400 
    121 C         -6.0849  -15.4968  -50.9257 C.2       22 UNK         0.5000 
    122 N         -6.8436  -15.5347  -52.0155 N.am      22 UNK        -0.7600 
    123 O         -6.4058  -14.7691  -49.9902 O.2       22 UNK        -0.5000 
    124 C124       -4.8905  -17.3681  -49.6554 C.3       23 UNK        -0.0398 
    125 S125       -3.4280  -18.3839  -49.2067 S.3       23 UNK        -0.2404 
    126 C126       -2.0478  -17.8311  -50.2576 C.3       23 UNK        -0.0205 
    127 H127       -2.5994  -12.6876  -43.4819 H         1 UNK         0.0600 
    128 H128       -0.8682  -12.9512  -43.2982 H         1 UNK         0.0600 
    129 H129       -1.9963  -14.2854  -43.0302 H         1 UNK         0.0600 
    130 H130        0.3027  -13.5962  -45.1257 H         1 UNK         0.3000 
    131 H131       -0.9074  -14.9779  -47.3827 H         1 UNK         0.0600 
    132 H132        1.8763  -13.7540  -47.0342 H         1 UNK         0.0800 
    133 H133        1.3677  -14.6258  -48.4483 H         1 UNK         0.0800 
    134 H134        3.2534  -17.6081  -47.5774 H         1 UNK         0.0800 
    135 H135        2.8292  -16.3584  -48.7031 H         1 UNK         0.0800 
    136 H136       -0.0733  -16.4569  -48.9957 H         1 UNK         0.1150 
    137 H137       -1.0815  -20.3648  -50.4043 H         1 UNK         0.1150 
    138 H138        2.6912  -19.6859  -48.4768 H         1 UNK         0.1150 
    139 H139        0.2552  -22.2501  -49.7764 H         1 UNK         0.0800 
    140 H140        1.7099  -21.7695  -50.6178 H         1 UNK         0.0800 
    141 H141        0.5151  -21.2648  -47.0335 H         1 UNK         0.0800 
    142 H142        1.8737  -21.8227  -46.1102 H         1 UNK         0.0800 
    143 H143        1.0157  -24.2098  -46.4102 H         1 UNK         0.0600 
    144 H144        0.2303  -22.2855  -44.5639 H         1 UNK         0.3000 
    145 H145       -1.5550  -24.4274  -42.3272 H         1 UNK         0.0600 
    146 H146        0.3297  -23.6865  -40.8901 H         1 UNK         0.0600 
    147 H147        0.8661  -24.9139  -42.0274 H         1 UNK         0.0600 
    148 H148        1.2647  -23.2225  -42.3103 H         1 UNK         0.0600 
    149 H149       -0.6132  -21.6246  -42.8293 H         1 UNK         0.3000 
    150 H150       -3.9211  -20.3913  -42.7706 H         1 UNK         0.0600 
    151 H151       -3.3837  -20.4109  -40.3207 H         1 UNK         0.0600 
    152 H152       -3.0903  -18.8338  -41.0359 H         1 UNK         0.0600 
    153 H153       -1.7357  -19.9041  -40.6756 H         1 UNK         0.0600 
    154 H154       -1.4974  -18.9781  -42.9711 H         1 UNK         0.3000 
    155 H155       -0.7774  -19.5292  -46.4183 H         1 UNK         0.0600 
    156 H156       -1.9039  -17.0804  -44.9765 H         1 UNK         0.0600 
    157 H157       -1.1704  -17.1415  -46.5780 H         1 UNK         0.0600 
    158 H158       -2.7186  -17.9097  -46.2964 H         1 UNK         0.0600 
    159 H159        0.5482  -17.7363  -44.9300 H         1 UNK         0.3000 
    160 H160        2.5411  -19.3621  -42.6060 H         1 UNK         0.0600 
    161 H161        4.4633  -18.7685  -44.0732 H         1 UNK         0.0600 
    162 H162        3.3950  -18.6956  -45.4743 H         1 UNK         0.0600 
    163 H163        3.6711  -20.2250  -44.6530 H         1 UNK         0.0600 
    164 H164        2.7341  -16.8370  -43.9759 H         1 UNK         0.3000 
    165 H165        0.5485  -15.0772  -43.0448 H         1 UNK         0.0600 
    166 H166        1.0022  -13.6801  -41.0225 H         1 UNK         0.0600 
    167 H167        0.1470  -15.1519  -40.6007 H         1 UNK         0.0600 
    168 H168        1.8747  -15.0229  -40.2838 H         1 UNK         0.0600 
    169 H169        3.4813  -15.1775  -42.6271 H         1 UNK         0.3000 
    170 H170        4.7102  -13.3097  -43.2129 H         1 UNK         0.0600 
    171 H171        4.6871  -14.9867  -45.0443 H         1 UNK         0.0600 
    172 H172        4.0439  -13.8032  -46.1663 H         1 UNK         0.0600 
    173 H173        5.6555  -13.5923  -45.4922 H         1 UNK         0.0600 
    174 H174        4.5703  -11.1617  -43.5722 H         1 UNK         0.3000 
    175 H175        3.9689   -9.1743  -44.1462 H         1 UNK         0.0600 
    176 H176        4.2866   -9.1015  -47.2004 H         1 UNK         0.0600 
    177 H177        4.6813   -7.7883  -46.0919 H         1 UNK         0.0600 
    178 H178        5.5975   -9.2876  -46.0406 H         1 UNK         0.0600 
    179 H179        2.0488   -8.6578  -46.3274 H         1 UNK         0.3000 
    180 H180       -0.8136   -8.8811  -44.2337 H         1 UNK         0.0600 
    181 H181        0.3584   -6.6713  -46.0026 H         1 UNK         0.0600 
    182 H182       -0.2065   -6.5059  -44.3498 H         1 UNK         0.0600 
    183 H183       -1.3510   -6.8852  -45.6275 H         1 UNK         0.0600 
    184 H184       -1.0887  -10.1644  -45.9886 H         1 UNK         0.3000 
    185 H185       -1.4156  -10.3976  -48.5574 H         1 UNK         0.0600 
    186 H186        0.2528   -9.5427  -50.2291 H         1 UNK         0.0600 
    187 H187        1.4829  -10.6109  -49.5603 H         1 UNK         0.0600 
    188 H188        0.0667  -11.2809  -50.3677 H         1 UNK         0.0600 
    189 H189        0.5595  -11.7290  -46.9055 H         1 UNK         0.3000 
    190 H190       -2.0640  -22.3233  -46.3545 H         1 UNK         0.3000 
    191 H191       -2.9719  -23.2327  -48.9180 H         1 UNK         0.0600 
    192 H192       -4.5187  -22.1508  -46.5029 H         1 UNK         0.0600 
    193 H193       -5.1665  -22.3218  -48.1222 H         1 UNK         0.0600 
    194 H194       -3.8567  -21.1890  -47.8260 H         1 UNK         0.0600 
    195 H195       -2.9876  -24.7332  -45.7371 H         1 UNK         0.3000 
    196 H196       -4.9826  -26.7770  -46.4427 H         1 UNK         0.0600 
    197 H197       -4.4451  -27.6931  -44.2126 H         1 UNK         0.0600 
    198 H198       -4.8014  -25.9768  -44.0924 H         1 UNK         0.0600 
    199 H199       -3.1344  -26.5410  -44.0091 H         1 UNK         0.0600 
    200 H200       -1.4353  -26.4599  -46.0842 H         1 UNK         0.3000 
    201 H201       -0.7794  -29.1661  -46.6879 H         1 UNK         0.0600 
    202 H202        0.7366  -27.6182  -45.4695 H         1 UNK         0.0600 
    203 H203        0.9076  -26.6166  -46.9093 H         1 UNK         0.0600 
    204 H204        1.5318  -28.2612  -46.8993 H         1 UNK         0.0600 
    205 H205       -0.9257  -26.2239  -48.7514 H         1 UNK         0.3000 
    206 H206       -0.7664  -27.8997  -51.2270 H         1 UNK         0.0600 
    207 H207        1.3177  -26.6088  -50.9168 H         1 UNK         0.0600 
    208 H208        0.3765  -25.9022  -52.2224 H         1 UNK         0.0600 
    209 H209        0.4095  -25.1267  -50.6419 H         1 UNK         0.0600 
    210 H210       -3.0456  -28.0993  -51.2020 H         1 UNK         0.3000 
    211 H211       -4.9040  -25.9967  -50.9913 H         1 UNK         0.0600 
    212 H212       -5.1153  -28.6660  -52.4837 H         1 UNK         0.0600 
    213 H213       -6.4727  -27.6387  -52.0371 H         1 UNK         0.0600 
    214 H214       -5.5000  -28.3906  -50.7834 H         1 UNK         0.0600 
    215 H215       -2.9120  -26.9069  -53.7341 H         1 UNK         0.3000 
    216 H216       -4.3745  -25.4506  -55.7584 H         1 UNK         0.0600 
    217 H217       -2.2915  -25.8038  -57.0861 H         1 UNK         0.0600 
    218 H218       -2.8161  -27.2981  -56.3270 H         1 UNK         0.0600 
    219 H219       -1.4581  -26.3953  -55.6537 H         1 UNK         0.0600 
    220 H220       -1.9383  -24.5712  -53.3297 H         1 UNK         0.3000 
    221 H221       -1.2998  -21.9868  -54.5613 H         1 UNK         0.0600 
    222 H222       -0.4924  -23.1752  -51.8595 H         1 UNK         0.0600 
    223 H223        0.4470  -23.2975  -53.3465 H         1 UNK         0.0600 
    224 H224        0.1740  -21.7282  -52.6043 H         1 UNK         0.0600 
    225 H225       -3.5737  -23.2758  -52.2413 H         1 UNK         0.3000 
    226 H226       -4.2267  -21.0445  -50.6998 H         1 UNK         0.0600 
    227 H227       -5.0349  -23.4291  -50.3674 H         1 UNK         0.0600 
    228 H228       -6.3267  -22.2397  -50.2523 H         1 UNK         0.0600 
    229 H229       -6.1551  -23.2063  -51.7059 H         1 UNK         0.0600 
    230 H230       -5.0655  -21.6898  -54.0477 H         1 UNK         0.3000 
    231 H231       -7.2212  -19.8752  -54.4053 H         1 UNK         0.0600 
    232 H232       -6.6136  -20.0982  -56.8249 H         1 UNK         0.0600 
    233 H233       -6.6479  -21.6637  -56.0287 H         1 UNK         0.0600 
    234 H234       -5.1042  -20.8879  -56.3814 H         1 UNK         0.0600 
    235 H235       -3.7468  -19.3000  -54.1009 H         1 UNK         0.3000 
    236 H236       -3.8228  -16.6129  -55.2530 H         1 UNK         0.0600 
    237 H237       -1.7942  -18.0779  -55.4152 H         1 UNK         0.0600 
    238 H238       -1.4530  -16.5619  -54.5964 H         1 UNK         0.0600 
    239 H239       -1.6268  -18.0373  -53.6607 H         1 UNK         0.0600 
    240 H240       -4.7097  -17.9776  -52.2022 H         1 UNK         0.3000 
    241 H241       -3.9997  -15.6491  -50.5819 H         1 UNK         0.0600 
    242 H242       -6.5957  -16.1258  -52.7939 H         1 UNK         0.3800 
    243 H243       -7.6758  -14.9679  -52.0610 H         1 UNK         0.3800 
    244 H244       -5.1582  -16.8299  -48.7443 H         1 UNK         0.0800 
    245 H245       -5.7190  -18.0550  -49.8307 H         1 UNK         0.0800 
    246 H246       -2.1957  -18.1967  -51.2732 H         1 UNK         0.0800 
    247 H247       -2.0219  -16.7424  -50.3060 H         1 UNK         0.0800 
@<TRIPOS>BOND
     1    1    2 1    
     2    1  127 1    
     3    1  128 1    
     4    1  129 1    
     5    2    3 2    
     6    2    4 am   BACKBONE|DICT|INTERRES
     7    4    5 1    
     8    4  130 1    
     9    5    6 1    
    10    5   65 1    
    11    5  131 1    
    12    6    7 1    
    13    6  132 1    
    14    6  133 1    
    15    7    8 1    
    16    8    9 1    
    17    8  134 1    
    18    8  135 1    
    19    9   10 ar   
    20    9   14 ar   
    21   10   11 ar   
    22   10  136 1    
    23   11   12 ar   
    24   11  126 1    
    25   12   13 ar   
    26   12  137 1    
    27   13   14 ar   
    28   13   15 1    
    29   14  138 1    
    30   15   16 1    
    31   15  139 1    
    32   15  140 1    
    33   16   17 1    
    34   17   18 1    
    35   17  141 1    
    36   17  142 1    
    37   18   19 1    
    38   18   67 1    
    39   18  143 1    
    40   19   20 am   BACKBONE|DICT|INTERRES
    41   19  144 1    
    42   20   21 2    
    43   20   22 1    
    44   22   23 1    
    45   22   24 1    
    46   22  145 1    
    47   23  146 1    
    48   23  147 1    
    49   23  148 1    
    50   24   25 am   BACKBONE|DICT|INTERRES
    51   24  149 1    
    52   25   26 2    
    53   25   27 1    
    54   27   28 1    
    55   27   29 1    
    56   27  150 1    
    57   28  151 1    
    58   28  152 1    
    59   28  153 1    
    60   29   30 am   BACKBONE|DICT|INTERRES
    61   29  154 1    
    62   30   31 2    
    63   30   32 1    
    64   32   33 1    
    65   32   34 1    
    66   32  155 1    
    67   33  156 1    
    68   33  157 1    
    69   33  158 1    
    70   34   35 am   BACKBONE|DICT|INTERRES
    71   34  159 1    
    72   35   36 2    
    73   35   37 1    
    74   37   38 1    
    75   37   39 1    
    76   37  160 1    
    77   38  161 1    
    78   38  162 1    
    79   38  163 1    
    80   39   40 am   BACKBONE|DICT|INTERRES
    81   39  164 1    
    82   40   41 2    
    83   40   42 1    
    84   42   43 1    
    85   42   44 1    
    86   42  165 1    
    87   43  166 1    
    88   43  167 1    
    89   43  168 1    
    90   44   45 am   BACKBONE|DICT|INTERRES
    91   44  169 1    
    92   45   46 2    
    93   45   47 1    
    94   47   48 1    
    95   47   49 1    
    96   47  170 1    
    97   48  171 1    
    98   48  172 1    
    99   48  173 1    
   100   49   50 am   BACKBONE|DICT|INTERRES
   101   49  174 1    
   102   50   51 2    
   103   50   52 1    
   104   52   53 1    
   105   52   54 1    
   106   52  175 1    
   107   53  176 1    
   108   53  177 1    
   109   53  178 1    
   110   54   55 am   BACKBONE|DICT|INTERRES
   111   54  179 1    
   112   55   56 2    
   113   55   57 1    
   114   57   58 1    
   115   57   59 1    
   116   57  180 1    
   117   58  181 1    
   118   58  182 1    
   119   58  183 1    
   120   59   60 am   BACKBONE|DICT|INTERRES
   121   59  184 1    
   122   60   61 2    
   123   60   62 1    
   124   62   63 1    
   125   62   64 1    
   126   62  185 1    
   127   63  186 1    
   128   63  187 1    
   129   63  188 1    
   130   64   65 am   BACKBONE|DICT|INTERRES
   131   64  189 1    
   132   65   66 2    
   133   67   68 2    
   134   67   69 am   BACKBONE|DICT|INTERRES
   135   69   70 1    
   136   69  190 1    
   137   70   71 1    
   138   70   72 1    
   139   70  191 1    
   140   71  192 1    
   141   71  193 1    
   142   71  194 1    
   143   72   73 2    
   144   72   74 am   BACKBONE|DICT|INTERRES
   145   74   75 1    
   146   74  195 1    
   147   75   76 1    
   148   75   77 1    
   149   75  196 1    
   150   76  197 1    
   151   76  198 1    
   152   76  199 1    
   153   77   78 2    
   154   77   79 am   BACKBONE|DICT|INTERRES
   155   79   80 1    
   156   79  200 1    
   157   80   81 1    
   158   80   82 1    
   159   80  201 1    
   160   81  202 1    
   161   81  203 1    
   162   81  204 1    
   163   82   83 2    
   164   82   84 am   BACKBONE|DICT|INTERRES
   165   84   85 1    
   166   84  205 1    
   167   85   86 1    
   168   85   87 1    
   169   85  206 1    
   170   86  207 1    
   171   86  208 1    
   172   86  209 1    
   173   87   88 2    
   174   87   89 am   BACKBONE|DICT|INTERRES
   175   89   90 1    
   176   89  210 1    
   177   90   91 1    
   178   90   92 1    
   179   90  211 1    
   180   91  212 1    
   181   91  213 1    
   182   91  214 1    
   183   92   93 2    
   184   92   94 am   BACKBONE|DICT|INTERRES
   185   94   95 1    
   186   94  215 1    
   187   95   96 1    
   188   95   97 1    
   189   95  216 1    
   190   96  217 1    
   191   96  218 1    
   192   96  219 1    
   193   97   98 2    
   194   97   99 am   BACKBONE|DICT|INTERRES
   195   99  100 1    
   196   99  220 1    
   197  100  101 1    
   198  100  102 1    
   199  100  221 1    
   200  101  222 1    
   201  101  223 1    
   202  101  224 1    
   203  102  103 2    
   204  102  104 am   BACKBONE|DICT|INTERRES
   205  104  105 1    
   206  104  225 1    
   207  105  106 1    
   208  105  107 1    
   209  105  226 1    
   210  106  227 1    
   211  106  228 1    
   212  106  229 1    
   213  107  108 2    
   214  107  109 am   BACKBONE|DICT|INTERRES
   215  109  110 1    
   216  109  230 1    
   217  110  111 1    
   218  110  112 1    
   219  110  231 1    
   220  111  232 1    
   221  111  233 1    
   222  111  234 1    
   223  112  113 2    
   224  112  114 am   BACKBONE|DICT|INTERRES
   225  114  115 1    
   226  114  235 1    
   227  115  116 1    
   228  115  117 1    
   229  115  236 1    
   230  116  237 1    
   231  116  238 1    
   232  116  239 1    
   233  117  118 2    
   234  117  119 am   BACKBONE|DICT|INTERRES
   235  119  120 1    
   236  119  240 1    
   237  120  121 1    
   238  120  124 1    
   239  120  241 1    
   240  121  122 am   BACKBONE|DICT|INTERRES
   241  121  123 2    
   242  122  242 1    
   243  122  243 1    
   244  124  125 1    
   245  124  244 1    
   246  124  245 1    
   247  125  126 1    
   248  126  246 1    
   249  126  247 1    
@<TRIPOS>SUBSTRUCTURE
     1 UNK         1 GROUP             0       ****    0 ROOT    
