@<TRIPOS>MOLECULE
3R540
247   249    1
SMALL
USER_CHARGES


@<TRIPOS>ATOM
      1 CA         -0.7612  -16.5010  -48.3975 C.3       0 UNK        -0.1800 
      2 C          -0.3898  -15.1034  -48.8616 C.2       0 UNK         0.5000 
      3 O          -0.8549  -14.1221  -48.2830 O.2       0 UNK        -0.5000 
      4 N           0.4512  -15.0109  -49.9007 N.am      1 UNK        -0.5000 
      5 CA          0.8631  -13.7646  -50.5660 C.3       1 UNK         0.1400 
      6 C6          1.7307  -14.0421  -51.8160 C.3       23 UNK        -0.0398 
      7 S7          0.8365  -14.9719  -53.1083 S.3       23 UNK        -0.2404 
      8 C8          1.9328  -16.3981  -53.3930 C.3       23 UNK        -0.0205 
      9 C9          1.4306  -17.6510  -52.6929 C.ar      23 UNK        -0.0193 
     10 C10         0.3838  -18.3787  -53.2610 C.ar      23 UNK        -0.1150 
     11 C11        -0.0651  -19.5632  -52.6739 C.ar      23 UNK        -0.0193 
     12 C12         0.5539  -20.0312  -51.5133 C.ar      23 UNK        -0.1150 
     13 C13         1.6014  -19.3112  -50.9300 C.ar      23 UNK        -0.0193 
     14 C14         2.0297  -18.1147  -51.5176 C.ar      23 UNK        -0.1150 
     15 C15         2.3033  -19.8539  -49.6945 C.3       23 UNK        -0.0205 
     16 S16         1.6399  -19.1605  -48.1486 S.3       23 UNK        -0.2404 
     17 C17         0.0241  -19.9982  -47.9987 C.3       23 UNK        -0.0398 
     18 CA          0.1405  -21.4109  -47.3816 C.3       11 UNK         0.1400 
     19 N           0.5628  -21.3893  -45.9810 N.am      11 UNK        -0.5000 
     20 C           0.9182  -22.4702  -45.2745 C.2       10 UNK         0.5000 
     21 O           0.9670  -23.6070  -45.7459 O.2       10 UNK        -0.5000 
     22 CA          1.2169  -22.2517  -43.7800 C.3       10 UNK         0.1400 
     23 CB          2.6240  -21.6706  -43.5760 C.3       10 UNK        -0.1800 
     24 N           0.2251  -21.3906  -43.1318 N.am      10 UNK        -0.5000 
     25 C          -1.0663  -21.7161  -42.9755 C.2       9 UNK         0.5000 
     26 O          -1.5441  -22.7951  -43.3279 O.2       9 UNK        -0.5000 
     27 CA         -1.9882  -20.6466  -42.3589 C.3       9 UNK         0.1400 
     28 CB         -1.8351  -20.6069  -40.8313 C.3       9 UNK        -0.1800 
     29 N          -1.7615  -19.3104  -42.9117 N.am      9 UNK        -0.5000 
     30 C          -1.9584  -18.9784  -44.1958 C.2       8 UNK         0.5000 
     31 O          -2.3976  -19.7521  -45.0437 O.2       8 UNK        -0.5000 
     32 CA         -1.5318  -17.5664  -44.6292 C.3       8 UNK         0.1400 
     33 CB         -2.6033  -16.5269  -44.2718 C.3       8 UNK        -0.1800 
     34 N          -0.2431  -17.1663  -44.0668 N.am      8 UNK        -0.5000 
     35 C           0.9112  -17.8204  -44.2554 C.2       7 UNK         0.5000 
     36 O           1.0195  -18.8267  -44.9497 O.2       7 UNK        -0.5000 
     37 CA          2.1366  -17.3045  -43.4884 C.3       7 UNK         0.1400 
     38 CB          2.7253  -16.0588  -44.1638 C.3       7 UNK        -0.1800 
     39 N           1.8104  -17.0157  -42.0938 N.am      7 UNK        -0.5000 
     40 C           1.5150  -17.9535  -41.1824 C.2       6 UNK         0.5000 
     41 O           1.5333  -19.1635  -41.4119 O.2       6 UNK        -0.5000 
     42 CA          1.0910  -17.4475  -39.7920 C.3       6 UNK         0.1400 
     43 CB          2.3225  -17.1496  -38.9239 C.3       6 UNK        -0.1800 
     44 N           0.2467  -16.2533  -39.8647 N.am      6 UNK        -0.5000 
     45 C          -0.9986  -16.2418  -40.3601 C.2       5 UNK         0.5000 
     46 O          -1.5732  -17.2420  -40.7904 O.2       5 UNK        -0.5000 
     47 CA         -1.7019  -14.8731  -40.4244 C.3       5 UNK         0.1400 
     48 CB         -2.3304  -14.5234  -39.0672 C.3       5 UNK        -0.1800 
     49 N          -0.8273  -13.7761  -40.8552 N.am      5 UNK        -0.5000 
     50 C          -0.2118  -13.7216  -42.0433 C.2       4 UNK         0.5000 
     51 O          -0.2364  -14.6379  -42.8660 O.2       4 UNK        -0.5000 
     52 CA          0.5938  -12.4507  -42.3609 C.3       4 UNK         0.1400 
     53 CB          2.0728  -12.6468  -41.9946 C.3       4 UNK        -0.1800 
     54 N           0.4947  -12.1238  -43.7833 N.am      4 UNK        -0.5000 
     55 C          -0.5983  -11.6292  -44.3785 C.2       3 UNK         0.5000 
     56 O          -1.6062  -11.2938  -43.7536 O.2       3 UNK        -0.5000 
     57 CA         -0.6034  -11.5060  -45.9187 C.3       3 UNK         0.1400 
     58 CB         -0.8495  -10.0524  -46.3711 C.3       3 UNK        -0.1800 
     59 N           0.5548  -12.0844  -46.6157 N.am      3 UNK        -0.5000 
     60 C           1.8297  -11.6627  -46.6186 C.2       2 UNK         0.5000 
     61 O           2.2403  -10.7222  -45.9394 O.2       2 UNK        -0.5000 
     62 CA          2.8286  -12.4290  -47.5125 C.3       2 UNK         0.1400 
     63 CB          3.7257  -13.3351  -46.6571 C.3       2 UNK        -0.1800 
     64 N           2.1878  -13.2443  -48.5473 N.am      2 UNK        -0.5000 
     65 C           1.5827  -12.7562  -49.6397 C.2       1 UNK         0.5000 
     66 O           1.5652  -11.5583  -49.9256 O.2       1 UNK        -0.5000 
     67 C          -1.1650  -22.2046  -47.5739 C.2       11 UNK         0.5000 
     68 O          -1.2545  -22.9701  -48.5303 O.2       11 UNK        -0.5000 
     69 N          -2.1331  -22.0545  -46.6587 N.am      12 UNK        -0.5000 
     70 CA         -3.3864  -22.8108  -46.6538 C.3       12 UNK         0.1400 
     71 CB         -4.3464  -22.2391  -45.6003 C.3       12 UNK        -0.1800 
     72 C          -3.1722  -24.3161  -46.4336 C.2       12 UNK         0.5000 
     73 O          -3.8342  -25.1159  -47.0933 O.2       12 UNK        -0.5000 
     74 N          -2.2355  -24.6817  -45.5492 N.am      13 UNK        -0.5000 
     75 CA         -1.8296  -26.0691  -45.3239 C.3       13 UNK         0.1400 
     76 CB         -0.9190  -26.1479  -44.0891 C.3       13 UNK        -0.1800 
     77 C          -1.1472  -26.6909  -46.5581 C.2       13 UNK         0.5000 
     78 O          -1.4189  -27.8473  -46.8824 O.2       13 UNK        -0.5000 
     79 N          -0.2951  -25.9078  -47.2335 N.am      14 UNK        -0.5000 
     80 CA          0.4221  -26.3106  -48.4424 C.3       14 UNK         0.1400 
     81 CB          1.5711  -25.3231  -48.7019 C.3       14 UNK        -0.1800 
     82 C          -0.4893  -26.4218  -49.6798 C.2       14 UNK         0.5000 
     83 O          -0.4128  -27.4153  -50.4036 O.2       14 UNK        -0.5000 
     84 N          -1.3210  -25.3978  -49.9098 N.am      15 UNK        -0.5000 
     85 CA         -2.1488  -25.2449  -51.1092 C.3       15 UNK         0.1400 
     86 CB         -2.3026  -23.7454  -51.4098 C.3       15 UNK        -0.1800 
     87 C          -3.5310  -25.9171  -51.0081 C.2       15 UNK         0.5000 
     88 O          -4.2820  -25.8685  -51.9822 O.2       15 UNK        -0.5000 
     89 N          -3.8551  -26.5076  -49.8482 N.am      16 UNK        -0.5000 
     90 CA         -5.1375  -27.1313  -49.5000 C.3       16 UNK         0.1400 
     91 CB         -5.4208  -28.3664  -50.3809 C.3       16 UNK        -0.1800 
     92 C          -6.2817  -26.0973  -49.5047 C.2       16 UNK         0.5000 
     93 O          -7.2195  -26.1921  -50.2973 O.2       16 UNK        -0.5000 
     94 N          -6.1319  -25.0982  -48.6265 N.am      17 UNK        -0.5000 
     95 CA         -6.9969  -23.9430  -48.3573 C.3       17 UNK         0.1400 
     96 CB         -8.4493  -24.3668  -48.0636 C.3       17 UNK        -0.1800 
     97 C          -6.9341  -22.8226  -49.4132 C.2       17 UNK         0.5000 
     98 O          -7.3408  -21.7002  -49.1107 O.2       17 UNK        -0.5000 
     99 N          -6.3963  -23.1008  -50.6070 N.am      18 UNK        -0.5000 
    100 CA        -6.2613  -22.1570  -51.7198 C.3       18 UNK         0.1400 
    101 CB        -6.2331  -22.9539  -53.0366 C.3       18 UNK        -0.1800 
    102 C         -5.0377  -21.2268  -51.5640 C.2       18 UNK         0.5000 
    103 O         -4.2334  -21.1098  -52.4880 O.2       18 UNK        -0.5000 
    104 N         -4.8981  -20.5981  -50.3902 N.am      19 UNK        -0.5000 
    105 CA        -3.8268  -19.6554  -50.0703 C.3       19 UNK         0.1400 
    106 CB        -3.8461  -19.3652  -48.5617 C.3       19 UNK        -0.1800 
    107 C         -3.9608  -18.3421  -50.8640 C.2       19 UNK         0.5000 
    108 O         -5.0773  -17.8419  -51.0179 O.2       19 UNK        -0.5000 
    109 N         -2.8079  -17.8042  -51.2879 N.am      20 UNK        -0.5000 
    110 CA        -2.5952  -16.5843  -52.0755 C.3       20 UNK         0.1400 
    111 CB        -3.2065  -15.3447  -51.3941 C.3       20 UNK        -0.1800 
    112 C         -3.0677  -16.7037  -53.5397 C.2       20 UNK         0.5000 
    113 O         -4.1946  -17.1228  -53.8045 O.2       20 UNK        -0.5000 
    114 N         -2.1897  -16.2919  -54.4665 N.am      21 UNK        -0.5000 
    115 CA        -2.4179  -16.1617  -55.9137 C.3       21 UNK         0.1400 
    116 CB        -3.3707  -14.9798  -56.1910 C.3       21 UNK        -0.1800 
    117 C         -2.8555  -17.4596  -56.6358 C.2       21 UNK         0.5000 
    118 O         -3.5739  -17.3924  -57.6356 O.2       21 UNK        -0.5000 
    119 N         -2.4113  -18.6169  -56.1309 N.am      22 UNK        -0.5000 
    120 CA        -2.6169  -19.9386  -56.7447 C.3       22 UNK         0.1400 
    121 C         -1.8021  -20.1434  -58.0561 C.2       22 UNK         0.5000 
    122 N         -2.2247  -21.0620  -58.9150 N.am      22 UNK        -0.7600 
    123 O         -0.7830  -19.4988  -58.2971 O.2       22 UNK        -0.5000 
    124 C124       -2.3894  -21.0908  -55.7278 C.3       23 UNK        -0.0398 
    125 S125       -0.7601  -21.0490  -54.8996 S.3       23 UNK        -0.2404 
    126 C126       -1.2212  -20.3248  -53.2971 C.3       23 UNK        -0.0205 
    127 H127       -1.8172  -16.5428  -48.1314 H         1 UNK         0.0600 
    128 H128       -0.1714  -16.7649  -47.5203 H         1 UNK         0.0600 
    129 H129       -0.5773  -17.2415  -49.1758 H         1 UNK         0.0600 
    130 H130        0.8017  -15.8578  -50.3247 H         1 UNK         0.3000 
    131 H131       -0.0529  -13.2705  -50.8974 H         1 UNK         0.0600 
    132 H132        2.6425  -14.5682  -51.5295 H         1 UNK         0.0800 
    133 H133        2.0556  -13.1051  -52.2728 H         1 UNK         0.0800 
    134 H134        1.9747  -16.5875  -54.4667 H         1 UNK         0.0800 
    135 H135        2.9580  -16.1712  -53.0982 H         1 UNK         0.0800 
    136 H136       -0.0677  -18.0316  -54.1781 H         1 UNK         0.1150 
    137 H137        0.2277  -20.9618  -51.0697 H         1 UNK         0.1150 
    138 H138        2.8497  -17.5647  -51.0773 H         1 UNK         0.1150 
    139 H139        2.2433  -20.9427  -49.6678 H         1 UNK         0.0800 
    140 H140        3.3666  -19.6163  -49.7505 H         1 UNK         0.0800 
    141 H141       -0.4492  -20.0304  -48.9792 H         1 UNK         0.0800 
    142 H142       -0.6228  -19.3756  -47.3790 H         1 UNK         0.0800 
    143 H143        0.9095  -21.9533  -47.9347 H         1 UNK         0.0600 
    144 H144        0.6092  -20.4730  -45.5367 H         1 UNK         0.3000 
    145 H145        1.1816  -23.2272  -43.2905 H         1 UNK         0.0600 
    146 H146        2.8603  -21.5750  -42.5161 H         1 UNK         0.0600 
    147 H147        3.3807  -22.3170  -44.0222 H         1 UNK         0.0600 
    148 H148        2.7258  -20.6850  -44.0300 H         1 UNK         0.0600 
    149 H149        0.5495  -20.4891  -42.8007 H         1 UNK         0.3000 
    150 H150       -3.0182  -20.9281  -42.5870 H         1 UNK         0.0600 
    151 H151       -2.0132  -21.5904  -40.3947 H         1 UNK         0.0600 
    152 H152       -2.5500  -19.9173  -40.3822 H         1 UNK         0.0600 
    153 H153       -0.8350  -20.2906  -40.5337 H         1 UNK         0.0600 
    154 H154       -1.4402  -18.5968  -42.2650 H         1 UNK         0.3000 
    155 H155       -1.4267  -17.5800  -45.7142 H         1 UNK         0.0600 
    156 H156       -3.5667  -16.7935  -44.7081 H         1 UNK         0.0600 
    157 H157       -2.3354  -15.5402  -44.6507 H         1 UNK         0.0600 
    158 H158       -2.7408  -16.4450  -43.1937 H         1 UNK         0.0600 
    159 H159       -0.2380  -16.3160  -43.5059 H         1 UNK         0.3000 
    160 H160        2.8978  -18.0877  -43.5043 H         1 UNK         0.0600 
    161 H161        2.0022  -15.2450  -44.2194 H         1 UNK         0.0600 
    162 H162        3.0369  -16.2915  -45.1827 H         1 UNK         0.0600 
    163 H163        3.6036  -15.6954  -43.6303 H         1 UNK         0.0600 
    164 H164        1.7145  -16.0447  -41.8387 H         1 UNK         0.3000 
    165 H165        0.5174  -18.2421  -39.3099 H         1 UNK         0.0600 
    166 H166        2.0320  -16.8630  -37.9130 H         1 UNK         0.0600 
    167 H167        2.9620  -18.0293  -38.8401 H         1 UNK         0.0600 
    168 H168        2.9265  -16.3431  -39.3417 H         1 UNK         0.0600 
    169 H169        0.6446  -15.3863  -39.5350 H         1 UNK         0.3000 
    170 H170       -2.5073  -14.9561  -41.1570 H         1 UNK         0.0600 
    171 H171       -2.9994  -15.3166  -38.7307 H         1 UNK         0.0600 
    172 H172       -1.5728  -14.3833  -38.2951 H         1 UNK         0.0600 
    173 H173       -2.9200  -13.6085  -39.1295 H         1 UNK         0.0600 
    174 H174       -0.7488  -12.9905  -40.2255 H         1 UNK         0.3000 
    175 H175        0.1940  -11.6175  -41.7791 H         1 UNK         0.0600 
    176 H176        2.5257  -13.4631  -42.5577 H         1 UNK         0.0600 
    177 H177        2.6498  -11.7437  -42.1947 H         1 UNK         0.0600 
    178 H178        2.1869  -12.8759  -40.9343 H         1 UNK         0.0600 
    179 H179        1.2767  -12.3789  -44.3663 H         1 UNK         0.3000 
    180 H180       -1.4578  -12.0959  -46.2536 H         1 UNK         0.0600 
    181 H181       -0.0645   -9.3796  -46.0256 H         1 UNK         0.0600 
    182 H182       -1.7946   -9.6756  -45.9783 H         1 UNK         0.0600 
    183 H183       -0.9000   -9.9813  -47.4577 H         1 UNK         0.0600 
    184 H184        0.3196  -12.8737  -47.2098 H         1 UNK         0.3000 
    185 H185        3.4627  -11.6868  -48.0020 H         1 UNK         0.0600 
    186 H186        3.1446  -14.1102  -46.1605 H         1 UNK         0.0600 
    187 H187        4.4892  -13.8228  -47.2636 H         1 UNK         0.0600 
    188 H188        4.2415  -12.7636  -45.8842 H         1 UNK         0.0600 
    189 H189        2.1564  -14.2407  -48.3887 H         1 UNK         0.3000 
    190 H190       -2.0253  -21.3560  -45.9269 H         1 UNK         0.3000 
    191 H191       -3.8515  -22.6915  -47.6347 H         1 UNK         0.0600 
    192 H192       -3.9056  -22.2565  -44.6037 H         1 UNK         0.0600 
    193 H193       -5.2727  -22.8123  -45.5559 H         1 UNK         0.0600 
    194 H194       -4.6144  -21.2076  -45.8282 H         1 UNK         0.0600 
    195 H195       -1.7693  -23.9674  -44.9993 H         1 UNK         0.3000 
    196 H196       -2.7298  -26.6510  -45.1150 H         1 UNK         0.0600 
    197 H197       -0.6344  -27.1797  -43.8799 H         1 UNK         0.0600 
    198 H198       -1.4239  -25.7628  -43.2030 H         1 UNK         0.0600 
    199 H199       -0.0015  -25.5755  -44.2244 H         1 UNK         0.0600 
    200 H200       -0.0925  -24.9833  -46.8677 H         1 UNK         0.3000 
    201 H201        0.8610  -27.2945  -48.2636 H         1 UNK         0.0600 
    202 H202        2.2627  -25.2941  -47.8597 H         1 UNK         0.0600 
    203 H203        1.2041  -24.3096  -48.8659 H         1 UNK         0.0600 
    204 H204        2.1436  -25.6122  -49.5841 H         1 UNK         0.0600 
    205 H205       -1.3060  -24.5980  -49.2781 H         1 UNK         0.3000 
    206 H206       -1.6320  -25.7006  -51.9563 H         1 UNK         0.0600 
    207 H207       -1.3313  -23.2546  -51.4713 H         1 UNK         0.0600 
    208 H208       -2.8073  -23.5840  -52.3631 H         1 UNK         0.0600 
    209 H209       -2.8863  -23.2391  -50.6402 H         1 UNK         0.0600 
    210 H210       -3.1834  -26.4437  -49.0950 H         1 UNK         0.3000 
    211 H211       -5.0384  -27.4829  -48.4717 H         1 UNK         0.0600 
    212 H212       -5.5713  -28.1015  -51.4276 H         1 UNK         0.0600 
    213 H213       -6.3213  -28.8816  -50.0450 H         1 UNK         0.0600 
    214 H214       -4.5995  -29.0812  -50.3311 H         1 UNK         0.0600 
    215 H215       -5.2852  -25.1276  -48.0571 H         1 UNK         0.3000 
    216 H216       -6.6032  -23.5040  -47.4405 H         1 UNK         0.0600 
    217 H217       -9.0354  -23.5190  -47.7068 H         1 UNK         0.0600 
    218 H218       -8.4888  -25.1355  -47.2919 H         1 UNK         0.0600 
    219 H219       -8.9507  -24.7528  -48.9513 H         1 UNK         0.0600 
    220 H220       -6.0802  -24.0453  -50.7785 H         1 UNK         0.3000 
    221 H221       -7.1445  -21.5155  -51.7453 H         1 UNK         0.0600 
    222 H222       -5.3562  -23.5993  -53.0968 H         1 UNK         0.0600 
    223 H223       -7.1184  -23.5820  -53.1376 H         1 UNK         0.0600 
    224 H224       -6.2096  -22.2865  -53.8989 H         1 UNK         0.0600 
    225 H225       -5.6361  -20.7114  -49.7050 H         1 UNK         0.3000 
    226 H226       -2.8761  -20.1326  -50.3192 H         1 UNK         0.0600 
    227 H227       -3.7598  -20.2805  -47.9818 H         1 UNK         0.0600 
    228 H228       -3.0156  -18.7206  -48.2734 H         1 UNK         0.0600 
    229 H229       -4.7684  -18.8677  -48.2590 H         1 UNK         0.0600 
    230 H230       -1.9623  -18.3228  -51.1018 H         1 UNK         0.3000 
    231 H231       -1.5144  -16.4441  -52.0789 H         1 UNK         0.0600 
    232 H232       -2.9281  -15.2870  -50.3428 H         1 UNK         0.0600 
    233 H233       -4.2954  -15.3447  -51.4500 H         1 UNK         0.0600 
    234 H234       -2.8579  -14.4299  -51.8748 H         1 UNK         0.0600 
    235 H235       -1.2921  -15.9497  -54.1486 H         1 UNK         0.3000 
    236 H236       -1.4494  -15.9032  -56.3441 H         1 UNK         0.0600 
    237 H237       -3.4383  -14.7689  -57.2589 H         1 UNK         0.0600 
    238 H238       -4.3801  -15.1841  -55.8324 H         1 UNK         0.0600 
    239 H239       -3.0206  -14.0688  -55.7057 H         1 UNK         0.0600 
    240 H240       -1.8006  -18.5958  -55.3305 H         1 UNK         0.3000 
    241 H241       -3.6687  -19.9823  -57.0350 H         1 UNK         0.0600 
    242 H242       -1.7028  -21.2121  -59.7648 H         1 UNK         0.3800 
    243 H243       -3.0576  -21.6051  -58.7470 H         1 UNK         0.3800 
    244 H244       -3.1763  -21.0670  -54.9730 H         1 UNK         0.0800 
    245 H245       -2.4982  -22.0610  -56.2150 H         1 UNK         0.0800 
    246 H246       -1.5655  -21.1206  -52.6365 H         1 UNK         0.0800 
    247 H247       -2.0641  -19.6445  -53.4200 H         1 UNK         0.0800 
@<TRIPOS>BOND
     1    1    2 1    
     2    1  127 1    
     3    1  128 1    
     4    1  129 1    
     5    2    3 2    
     6    2    4 am   BACKBONE|DICT|INTERRES
     7    4    5 1    
     8    4  130 1    
     9    5    6 1    
    10    5   65 1    
    11    5  131 1    
    12    6    7 1    
    13    6  132 1    
    14    6  133 1    
    15    7    8 1    
    16    8    9 1    
    17    8  134 1    
    18    8  135 1    
    19    9   10 ar   
    20    9   14 ar   
    21   10   11 ar   
    22   10  136 1    
    23   11   12 ar   
    24   11  126 1    
    25   12   13 ar   
    26   12  137 1    
    27   13   14 ar   
    28   13   15 1    
    29   14  138 1    
    30   15   16 1    
    31   15  139 1    
    32   15  140 1    
    33   16   17 1    
    34   17   18 1    
    35   17  141 1    
    36   17  142 1    
    37   18   19 1    
    38   18   67 1    
    39   18  143 1    
    40   19   20 am   BACKBONE|DICT|INTERRES
    41   19  144 1    
    42   20   21 2    
    43   20   22 1    
    44   22   23 1    
    45   22   24 1    
    46   22  145 1    
    47   23  146 1    
    48   23  147 1    
    49   23  148 1    
    50   24   25 am   BACKBONE|DICT|INTERRES
    51   24  149 1    
    52   25   26 2    
    53   25   27 1    
    54   27   28 1    
    55   27   29 1    
    56   27  150 1    
    57   28  151 1    
    58   28  152 1    
    59   28  153 1    
    60   29   30 am   BACKBONE|DICT|INTERRES
    61   29  154 1    
    62   30   31 2    
    63   30   32 1    
    64   32   33 1    
    65   32   34 1    
    66   32  155 1    
    67   33  156 1    
    68   33  157 1    
    69   33  158 1    
    70   34   35 am   BACKBONE|DICT|INTERRES
    71   34  159 1    
    72   35   36 2    
    73   35   37 1    
    74   37   38 1    
    75   37   39 1    
    76   37  160 1    
    77   38  161 1    
    78   38  162 1    
    79   38  163 1    
    80   39   40 am   BACKBONE|DICT|INTERRES
    81   39  164 1    
    82   40   41 2    
    83   40   42 1    
    84   42   43 1    
    85   42   44 1    
    86   42  165 1    
    87   43  166 1    
    88   43  167 1    
    89   43  168 1    
    90   44   45 am   BACKBONE|DICT|INTERRES
    91   44  169 1    
    92   45   46 2    
    93   45   47 1    
    94   47   48 1    
    95   47   49 1    
    96   47  170 1    
    97   48  171 1    
    98   48  172 1    
    99   48  173 1    
   100   49   50 am   BACKBONE|DICT|INTERRES
   101   49  174 1    
   102   50   51 2    
   103   50   52 1    
   104   52   53 1    
   105   52   54 1    
   106   52  175 1    
   107   53  176 1    
   108   53  177 1    
   109   53  178 1    
   110   54   55 am   BACKBONE|DICT|INTERRES
   111   54  179 1    
   112   55   56 2    
   113   55   57 1    
   114   57   58 1    
   115   57   59 1    
   116   57  180 1    
   117   58  181 1    
   118   58  182 1    
   119   58  183 1    
   120   59   60 am   BACKBONE|DICT|INTERRES
   121   59  184 1    
   122   60   61 2    
   123   60   62 1    
   124   62   63 1    
   125   62   64 1    
   126   62  185 1    
   127   63  186 1    
   128   63  187 1    
   129   63  188 1    
   130   64   65 am   BACKBONE|DICT|INTERRES
   131   64  189 1    
   132   65   66 2    
   133   67   68 2    
   134   67   69 am   BACKBONE|DICT|INTERRES
   135   69   70 1    
   136   69  190 1    
   137   70   71 1    
   138   70   72 1    
   139   70  191 1    
   140   71  192 1    
   141   71  193 1    
   142   71  194 1    
   143   72   73 2    
   144   72   74 am   BACKBONE|DICT|INTERRES
   145   74   75 1    
   146   74  195 1    
   147   75   76 1    
   148   75   77 1    
   149   75  196 1    
   150   76  197 1    
   151   76  198 1    
   152   76  199 1    
   153   77   78 2    
   154   77   79 am   BACKBONE|DICT|INTERRES
   155   79   80 1    
   156   79  200 1    
   157   80   81 1    
   158   80   82 1    
   159   80  201 1    
   160   81  202 1    
   161   81  203 1    
   162   81  204 1    
   163   82   83 2    
   164   82   84 am   BACKBONE|DICT|INTERRES
   165   84   85 1    
   166   84  205 1    
   167   85   86 1    
   168   85   87 1    
   169   85  206 1    
   170   86  207 1    
   171   86  208 1    
   172   86  209 1    
   173   87   88 2    
   174   87   89 am   BACKBONE|DICT|INTERRES
   175   89   90 1    
   176   89  210 1    
   177   90   91 1    
   178   90   92 1    
   179   90  211 1    
   180   91  212 1    
   181   91  213 1    
   182   91  214 1    
   183   92   93 2    
   184   92   94 am   BACKBONE|DICT|INTERRES
   185   94   95 1    
   186   94  215 1    
   187   95   96 1    
   188   95   97 1    
   189   95  216 1    
   190   96  217 1    
   191   96  218 1    
   192   96  219 1    
   193   97   98 2    
   194   97   99 am   BACKBONE|DICT|INTERRES
   195   99  100 1    
   196   99  220 1    
   197  100  101 1    
   198  100  102 1    
   199  100  221 1    
   200  101  222 1    
   201  101  223 1    
   202  101  224 1    
   203  102  103 2    
   204  102  104 am   BACKBONE|DICT|INTERRES
   205  104  105 1    
   206  104  225 1    
   207  105  106 1    
   208  105  107 1    
   209  105  226 1    
   210  106  227 1    
   211  106  228 1    
   212  106  229 1    
   213  107  108 2    
   214  107  109 am   BACKBONE|DICT|INTERRES
   215  109  110 1    
   216  109  230 1    
   217  110  111 1    
   218  110  112 1    
   219  110  231 1    
   220  111  232 1    
   221  111  233 1    
   222  111  234 1    
   223  112  113 2    
   224  112  114 am   BACKBONE|DICT|INTERRES
   225  114  115 1    
   226  114  235 1    
   227  115  116 1    
   228  115  117 1    
   229  115  236 1    
   230  116  237 1    
   231  116  238 1    
   232  116  239 1    
   233  117  118 2    
   234  117  119 am   BACKBONE|DICT|INTERRES
   235  119  120 1    
   236  119  240 1    
   237  120  121 1    
   238  120  124 1    
   239  120  241 1    
   240  121  122 am   BACKBONE|DICT|INTERRES
   241  121  123 2    
   242  122  242 1    
   243  122  243 1    
   244  124  125 1    
   245  124  244 1    
   246  124  245 1    
   247  125  126 1    
   248  126  246 1    
   249  126  247 1    
@<TRIPOS>SUBSTRUCTURE
     1 UNK         1 GROUP             0       ****    0 ROOT    
