@<TRIPOS>MOLECULE
3R540
247   249    1
SMALL
USER_CHARGES


@<TRIPOS>ATOM
      1 CA         -5.6153  -12.0476  -47.8635 C.3       0 UNK        -0.1800 
      2 C          -4.1663  -12.4447  -47.6236 C.2       0 UNK         0.5000 
      3 O          -3.4962  -11.8432  -46.7859 O.2       0 UNK        -0.5000 
      4 N          -3.6823  -13.4682  -48.3399 N.am      1 UNK        -0.5000 
      5 CA         -2.3093  -13.9899  -48.2633 C.3       1 UNK         0.1400 
      6 C6         -2.0699  -15.0474  -49.3653 C.3       23 UNK        -0.0398 
      7 S7         -0.3087  -15.3362  -49.7442 S.3       23 UNK        -0.2404 
      8 C8         -0.2848  -17.1554  -49.7266 C.3       23 UNK        -0.0205 
      9 C9          0.9561  -17.7558  -50.3739 C.ar      23 UNK        -0.0193 
     10 C10         1.3659  -17.3597  -51.6519 C.ar      23 UNK        -0.1150 
     11 C11         2.4469  -17.9863  -52.2786 C.ar      23 UNK        -0.0193 
     12 C12         3.1125  -19.0259  -51.6229 C.ar      23 UNK        -0.1150 
     13 C13         2.7093  -19.4403  -50.3502 C.ar      23 UNK        -0.0193 
     14 C14         1.6410  -18.7873  -49.7271 C.ar      23 UNK        -0.1150 
     15 C15         3.4339  -20.5893  -49.6596 C.3       23 UNK        -0.0205 
     16 S16         2.3664  -22.0514  -49.4240 S.3       23 UNK        -0.2404 
     17 C17         1.9394  -21.8446  -47.6637 C.3       23 UNK        -0.0398 
     18 CA          0.8209  -22.7557  -47.1064 C.3       11 UNK         0.1400 
     19 N           0.6306  -22.4767  -45.6812 N.am      11 UNK        -0.5000 
     20 C          -0.1585  -23.1578  -44.8419 C.2       10 UNK         0.5000 
     21 O          -0.7998  -24.1568  -45.1607 O.2       10 UNK        -0.5000 
     22 CA         -0.2921  -22.5916  -43.4172 C.3       10 UNK         0.1400 
     23 CB          0.9248  -22.9718  -42.5609 C.3       10 UNK        -0.1800 
     24 N          -0.4686  -21.1381  -43.4044 N.am      10 UNK        -0.5000 
     25 C          -1.5081  -20.4949  -43.9551 C.2       9 UNK         0.5000 
     26 O          -2.4469  -21.0626  -44.5103 O.2       9 UNK        -0.5000 
     27 CA         -1.4754  -18.9581  -43.9205 C.3       9 UNK         0.1400 
     28 CB         -1.8359  -18.4390  -42.5203 C.3       9 UNK        -0.1800 
     29 N          -0.1833  -18.4129  -44.3384 N.am      9 UNK        -0.5000 
     30 C           0.3599  -18.5831  -45.5531 C.2       8 UNK         0.5000 
     31 O          -0.1961  -19.1731  -46.4781 O.2       8 UNK        -0.5000 
     32 CA          1.7968  -18.0712  -45.7479 C.3       8 UNK         0.1400 
     33 CB          1.8161  -16.5716  -46.0803 C.3       8 UNK        -0.1800 
     34 N           2.6312  -18.3446  -44.5775 N.am      8 UNK        -0.5000 
     35 C           3.0015  -19.5742  -44.1882 C.2       7 UNK         0.5000 
     36 O           2.7135  -20.6011  -44.8023 O.2       7 UNK        -0.5000 
     37 CA          3.7822  -19.6765  -42.8655 C.3       7 UNK         0.1400 
     38 CB          5.2739  -19.3909  -43.0931 C.3       7 UNK        -0.1800 
     39 N           3.2635  -18.7670  -41.8437 N.am      7 UNK        -0.5000 
     40 C           2.0495  -18.8679  -41.2826 C.2       6 UNK         0.5000 
     41 O           1.2670  -19.7884  -41.5140 O.2       6 UNK        -0.5000 
     42 CA          1.6194  -17.7165  -40.3523 C.3       6 UNK         0.1400 
     43 CB          2.0372  -18.0072  -38.9036 C.3       6 UNK        -0.1800 
     44 N           2.1661  -16.4209  -40.7680 N.am      6 UNK        -0.5000 
     45 C           1.8613  -15.8113  -41.9208 C.2       5 UNK         0.5000 
     46 O           1.0436  -16.2517  -42.7326 O.2       5 UNK        -0.5000 
     47 CA          2.6717  -14.5556  -42.2612 C.3       5 UNK         0.1400 
     48 CB          4.0390  -14.9656  -42.8484 C.3       5 UNK        -0.1800 
     49 N           1.9214  -13.7526  -43.2211 N.am      5 UNK        -0.5000 
     50 C           2.2339  -12.5137  -43.6197 C.2       4 UNK         0.5000 
     51 O           3.2040  -11.8806  -43.2008 O.2       4 UNK        -0.5000 
     52 CA          1.2990  -11.8622  -44.6537 C.3       4 UNK         0.1400 
     53 CB          1.6735  -12.3088  -46.0756 C.3       4 UNK        -0.1800 
     54 N          -0.1150  -12.1464  -44.4000 N.am      4 UNK        -0.5000 
     55 C          -0.8152  -11.6150  -43.3842 C.2       3 UNK         0.5000 
     56 O          -0.3252  -10.8467  -42.5552 O.2       3 UNK        -0.5000 
     57 CA         -2.3116  -11.9698  -43.2690 C.3       3 UNK         0.1400 
     58 CB         -3.1834  -10.7632  -43.6509 C.3       3 UNK        -0.1800 
     59 N          -2.6901  -13.1189  -44.0919 N.am      3 UNK        -0.5000 
     60 C          -2.4821  -14.3932  -43.7298 C.2       2 UNK         0.5000 
     61 O          -2.0190  -14.7117  -42.6354 O.2       2 UNK        -0.5000 
     62 CA         -2.8295  -15.5007  -44.7479 C.3       2 UNK         0.1400 
     63 CB         -4.1311  -16.2154  -44.3533 C.3       2 UNK        -0.1800 
     64 N          -2.9493  -15.0391  -46.1311 N.am      2 UNK        -0.5000 
     65 C          -1.9480  -14.5245  -46.8581 C.2       1 UNK         0.5000 
     66 O          -0.8021  -14.3999  -46.4288 O.2       1 UNK        -0.5000 
     67 C          -0.5092  -22.6489  -47.8878 C.2       11 UNK         0.5000 
     68 O          -0.8677  -23.5786  -48.6127 O.2       11 UNK        -0.5000 
     69 N          -1.2488  -21.5512  -47.6758 N.am      12 UNK        -0.5000 
     70 CA         -2.5656  -21.3077  -48.2628 C.3       12 UNK         0.1400 
     71 CB         -3.0084  -19.8763  -47.9391 C.3       12 UNK        -0.1800 
     72 C          -3.6396  -22.3191  -47.8259 C.2       12 UNK         0.5000 
     73 O          -4.4653  -22.7109  -48.6535 O.2       12 UNK        -0.5000 
     74 N          -3.6015  -22.7284  -46.5509 N.am      13 UNK        -0.5000 
     75 CA         -4.4799  -23.7425  -45.9697 C.3       13 UNK         0.1400 
     76 CB         -4.3949  -23.6852  -44.4373 C.3       13 UNK        -0.1800 
     77 C          -4.1649  -25.1595  -46.4783 C.2       13 UNK         0.5000 
     78 O          -5.0953  -25.9172  -46.7505 O.2       13 UNK        -0.5000 
     79 N          -2.8723  -25.4846  -46.6276 N.am      14 UNK        -0.5000 
     80 CA         -2.3888  -26.7509  -47.1846 C.3       14 UNK         0.1400 
     81 CB         -0.8728  -26.8702  -46.9669 C.3       14 UNK        -0.1800 
     82 C          -2.7404  -26.9079  -48.6744 C.2       14 UNK         0.5000 
     83 O          -3.1381  -27.9948  -49.0955 O.2       14 UNK        -0.5000 
     84 N          -2.6275  -25.8089  -49.4332 N.am      15 UNK        -0.5000 
     85 CA         -3.0899  -25.7041  -50.8185 C.3       15 UNK         0.1400 
     86 CB         -2.5176  -24.4179  -51.4302 C.3       15 UNK        -0.1800 
     87 C          -4.6278  -25.7086  -50.9392 C.2       15 UNK         0.5000 
     88 O          -5.1514  -26.1021  -51.9816 O.2       15 UNK        -0.5000 
     89 N          -5.3079  -25.2572  -49.8739 N.am      16 UNK        -0.5000 
     90 CA         -6.7561  -25.0860  -49.7205 C.3       16 UNK         0.1400 
     91 CB         -7.4737  -26.4511  -49.7395 C.3       16 UNK        -0.1800 
     92 C          -7.3400  -24.0742  -50.7282 C.2       16 UNK         0.5000 
     93 O          -8.4575  -24.2584  -51.2146 O.2       16 UNK        -0.5000 
     94 N          -6.5534  -23.0349  -51.0372 N.am      17 UNK        -0.5000 
     95 CA         -6.8224  -22.0809  -52.1154 C.3       17 UNK         0.1400 
     96 CB         -5.7266  -22.2401  -53.1838 C.3       17 UNK        -0.1800 
     97 C          -6.9082  -20.6221  -51.6345 C.2       17 UNK         0.5000 
     98 O          -7.2104  -19.7522  -52.4516 O.2       17 UNK        -0.5000 
     99 N          -6.6121  -20.3584  -50.3504 N.am      18 UNK        -0.5000 
    100 CA        -6.6123  -19.0572  -49.6507 C.3       18 UNK         0.1400 
    101 CB        -8.0081  -18.4065  -49.6698 C.3       18 UNK        -0.1800 
    102 C         -5.5311  -18.0592  -50.1244 C.2       18 UNK         0.5000 
    103 O         -4.9113  -17.3956  -49.2937 O.2       18 UNK        -0.5000 
    104 N         -5.2929  -18.0029  -51.4375 N.am      19 UNK        -0.5000 
    105 CA        -4.1999  -17.2803  -52.0886 C.3       19 UNK         0.1400 
    106 CB        -4.7497  -16.6190  -53.3629 C.3       19 UNK        -0.1800 
    107 C         -3.0169  -18.2121  -52.4258 C.2       19 UNK         0.5000 
    108 O         -2.0440  -17.7553  -53.0221 O.2       19 UNK        -0.5000 
    109 N         -3.1395  -19.5055  -52.0860 N.am      20 UNK        -0.5000 
    110 CA        -2.2091  -20.6261  -52.3041 C.3       20 UNK         0.1400 
    111 CB        -0.8567  -20.3761  -51.6161 C.3       20 UNK        -0.1800 
    112 C         -1.9914  -21.0426  -53.7736 C.2       20 UNK         0.5000 
    113 O         -1.4906  -22.1429  -54.0076 O.2       20 UNK        -0.5000 
    114 N         -2.3496  -20.1747  -54.7293 N.am      21 UNK        -0.5000 
    115 CA        -2.1474  -20.2548  -56.1815 C.3       21 UNK         0.1400 
    116 CB        -2.8006  -21.5093  -56.7944 C.3       21 UNK        -0.1800 
    117 C         -0.6659  -20.1148  -56.5815 C.2       21 UNK         0.5000 
    118 O         -0.3442  -19.2320  -57.3763 O.2       21 UNK        -0.5000 
    119 N          0.1890  -20.9619  -55.9920 N.am      22 UNK        -0.5000 
    120 CA         1.6640  -20.9336  -55.9656 C.3       22 UNK         0.1400 
    121 C          2.4220  -20.8155  -57.3253 C.2       22 UNK         0.5000 
    122 N          1.7989  -21.1155  -58.4575 N.am      22 UNK        -0.7600 
    123 O          3.6085  -20.4992  -57.3573 O.2       22 UNK        -0.5000 
    124 C124        2.2221  -20.0242  -54.8318 C.3       23 UNK        -0.0398 
    125 S125        1.8527  -18.2418  -54.9846 S.3       23 UNK        -0.2404 
    126 C126        2.8941  -17.5431  -53.6645 C.3       23 UNK        -0.0205 
    127 H127       -5.6686  -11.0123  -48.2000 H         1 UNK         0.0600 
    128 H128       -6.1857  -12.1364  -46.9390 H         1 UNK         0.0600 
    129 H129       -6.0890  -12.6761  -48.6180 H         1 UNK         0.0600 
    130 H130       -4.2908  -13.9300  -49.0010 H         1 UNK         0.3000 
    131 H131       -1.6479  -13.1428  -48.4584 H         1 UNK         0.0600 
    132 H132       -2.5269  -14.7152  -50.2983 H         1 UNK         0.0800 
    133 H133       -2.5678  -15.9843  -49.1085 H         1 UNK         0.0800 
    134 H134       -0.3888  -17.4931  -48.6943 H         1 UNK         0.0800 
    135 H135       -1.1536  -17.5325  -50.2647 H         1 UNK         0.0800 
    136 H136        0.8264  -16.5799  -52.1709 H         1 UNK         0.1150 
    137 H137        3.9414  -19.5191  -52.1108 H         1 UNK         0.1150 
    138 H138        1.3078  -19.1054  -48.7531 H         1 UNK         0.1150 
    139 H139        4.3005  -20.8968  -50.2469 H         1 UNK         0.0800 
    140 H140        3.8301  -20.2451  -48.7031 H         1 UNK         0.0800 
    141 H141        1.6822  -20.8040  -47.4827 H         1 UNK         0.0800 
    142 H142        2.8541  -22.0213  -47.0959 H         1 UNK         0.0800 
    143 H143        1.1599  -23.7902  -47.1900 H         1 UNK         0.0600 
    144 H144        1.1536  -21.6887  -45.3110 H         1 UNK         0.3000 
    145 H145       -1.1795  -23.0384  -42.9643 H         1 UNK         0.0600 
    146 H146        0.7976  -22.6432  -41.5292 H         1 UNK         0.0600 
    147 H147        1.8427  -22.5239  -42.9425 H         1 UNK         0.0600 
    148 H148        1.0680  -24.0529  -42.5431 H         1 UNK         0.0600 
    149 H149        0.2397  -20.5975  -42.9153 H         1 UNK         0.3000 
    150 H150       -2.2273  -18.5977  -44.6245 H         1 UNK         0.0600 
    151 H151       -2.8589  -18.7116  -42.2588 H         1 UNK         0.0600 
    152 H152       -1.7616  -17.3543  -42.4643 H         1 UNK         0.0600 
    153 H153       -1.1843  -18.8521  -41.7516 H         1 UNK         0.0600 
    154 H154        0.3279  -17.8655  -43.6532 H         1 UNK         0.3000 
    155 H155        2.2316  -18.6032  -46.5956 H         1 UNK         0.0600 
    156 H156        1.2638  -16.3726  -46.9996 H         1 UNK         0.0600 
    157 H157        2.8335  -16.2108  -46.2302 H         1 UNK         0.0600 
    158 H158        1.3583  -15.9705  -45.2957 H         1 UNK         0.0600 
    159 H159        2.8595  -17.5583  -43.9895 H         1 UNK         0.3000 
    160 H160        3.6810  -20.6990  -42.4954 H         1 UNK         0.0600 
    161 H161        5.4428  -18.3706  -43.4400 H         1 UNK         0.0600 
    162 H162        5.6898  -20.0658  -43.8425 H         1 UNK         0.0600 
    163 H163        5.8465  -19.5330  -42.1764 H         1 UNK         0.0600 
    164 H164        3.8500  -17.9884  -41.5843 H         1 UNK         0.3000 
    165 H165        0.5300  -17.6502  -40.3879 H         1 UNK         0.0600 
    166 H166        1.6731  -17.2349  -38.2257 H         1 UNK         0.0600 
    167 H167        1.6249  -18.9578  -38.5625 H         1 UNK         0.0600 
    168 H168        3.1214  -18.0630  -38.7990 H         1 UNK         0.0600 
    169 H169        2.8501  -16.0022  -40.1539 H         1 UNK         0.3000 
    170 H170        2.8162  -13.9731  -41.3492 H         1 UNK         0.0600 
    171 H171        3.9267  -15.4916  -43.7971 H         1 UNK         0.0600 
    172 H172        4.6776  -14.1003  -43.0239 H         1 UNK         0.0600 
    173 H173        4.5823  -15.6233  -42.1690 H         1 UNK         0.0600 
    174 H174        1.0904  -14.2042  -43.5832 H         1 UNK         0.3000 
    175 H175        1.4402  -10.7806  -44.5968 H         1 UNK         0.0600 
    176 H176        1.6229  -13.3923  -46.1863 H         1 UNK         0.0600 
    177 H177        1.0119  -11.8641  -46.8192 H         1 UNK         0.0600 
    178 H178        2.6917  -12.0054  -46.3214 H         1 UNK         0.0600 
    179 H179       -0.5689  -12.7933  -45.0344 H         1 UNK         0.3000 
    180 H180       -2.5128  -12.2043  -42.2215 H         1 UNK         0.0600 
    181 H181       -4.2446  -11.0085  -43.6046 H         1 UNK         0.0600 
    182 H182       -2.9626  -10.4075  -44.6574 H         1 UNK         0.0600 
    183 H183       -3.0125   -9.9296  -42.9687 H         1 UNK         0.0600 
    184 H184       -3.0524  -12.9111  -45.0159 H         1 UNK         0.3000 
    185 H185       -2.0112  -16.2208  -44.7161 H         1 UNK         0.0600 
    186 H186       -4.9900  -15.5461  -44.4153 H         1 UNK         0.0600 
    187 H187       -4.3236  -17.0713  -45.0007 H         1 UNK         0.0600 
    188 H188       -4.0815  -16.5883  -43.3297 H         1 UNK         0.0600 
    189 H189       -3.8686  -15.0829  -46.5462 H         1 UNK         0.3000 
    190 H190       -0.8811  -20.8122  -47.0810 H         1 UNK         0.3000 
    191 H191       -2.4702  -21.3990  -49.3447 H         1 UNK         0.0600 
    192 H192       -2.3661  -19.1424  -48.4253 H         1 UNK         0.0600 
    193 H193       -2.9906  -19.6801  -46.8669 H         1 UNK         0.0600 
    194 H194       -4.0253  -19.7011  -48.2815 H         1 UNK         0.0600 
    195 H195       -2.9403  -22.2869  -45.9176 H         1 UNK         0.3000 
    196 H196       -5.5059  -23.5062  -46.2595 H         1 UNK         0.0600 
    197 H197       -4.6978  -22.7071  -44.0631 H         1 UNK         0.0600 
    198 H198       -3.3824  -23.8795  -44.0824 H         1 UNK         0.0600 
    199 H199       -5.0521  -24.4261  -43.9806 H         1 UNK         0.0600 
    200 H200       -2.1612  -24.8295  -46.3130 H         1 UNK         0.3000 
    201 H201       -2.8744  -27.5640  -46.6411 H         1 UNK         0.0600 
    202 H202       -0.6258  -26.8538  -45.9053 H         1 UNK         0.0600 
    203 H203       -0.3308  -26.0559  -47.4486 H         1 UNK         0.0600 
    204 H204       -0.4912  -27.8070  -47.3748 H         1 UNK         0.0600 
    205 H205       -2.2097  -24.9763  -49.0267 H         1 UNK         0.3000 
    206 H206       -2.7058  -26.5578  -51.3805 H         1 UNK         0.0600 
    207 H207       -2.8347  -23.5429  -50.8639 H         1 UNK         0.0600 
    208 H208       -1.4275  -24.4324  -51.4373 H         1 UNK         0.0600 
    209 H209       -2.8492  -24.2861  -52.4612 H         1 UNK         0.0600 
    210 H210       -4.7605  -24.9219  -49.0927 H         1 UNK         0.3000 
    211 H211       -6.9057  -24.6491  -48.7321 H         1 UNK         0.0600 
    212 H212       -7.4180  -26.9258  -50.7195 H         1 UNK         0.0600 
    213 H213       -8.5292  -26.3421  -49.4878 H         1 UNK         0.0600 
    214 H214       -7.0360  -27.1332  -49.0103 H         1 UNK         0.0600 
    215 H215       -5.6627  -22.9632  -50.5604 H         1 UNK         0.3000 
    216 H216       -7.7821  -22.2959  -52.5893 H         1 UNK         0.0600 
    217 H217       -5.8607  -21.5353  -54.0056 H         1 UNK         0.0600 
    218 H218       -5.7436  -23.2424  -53.6127 H         1 UNK         0.0600 
    219 H219       -4.7344  -22.0785  -52.7673 H         1 UNK         0.0600 
    220 H220       -6.3737  -21.1490  -49.7674 H         1 UNK         0.3000 
    221 H221       -6.3833  -19.2874  -48.6092 H         1 UNK         0.0600 
    222 H222       -8.3105  -18.1119  -50.6750 H         1 UNK         0.0600 
    223 H223       -8.7647  -19.0859  -49.2773 H         1 UNK         0.0600 
    224 H224       -8.0255  -17.5086  -49.0508 H         1 UNK         0.0600 
    225 H225       -5.9072  -18.5488  -52.0390 H         1 UNK         0.3000 
    226 H226       -3.8218  -16.4966  -51.4306 H         1 UNK         0.0600 
    227 H227       -5.5711  -15.9411  -53.1301 H         1 UNK         0.0600 
    228 H228       -3.9804  -16.0324  -53.8666 H         1 UNK         0.0600 
    229 H229       -5.1186  -17.3597  -54.0737 H         1 UNK         0.0600 
    230 H230       -4.0002  -19.7538  -51.6229 H         1 UNK         0.3000 
    231 H231       -2.6685  -21.4802  -51.8108 H         1 UNK         0.0600 
    232 H232       -0.2559  -21.2861  -51.5905 H         1 UNK         0.0600 
    233 H233       -0.9817  -20.0437  -50.5867 H         1 UNK         0.0600 
    234 H234       -0.2755  -19.6231  -52.1476 H         1 UNK         0.0600 
    235 H235       -2.6425  -19.2645  -54.3973 H         1 UNK         0.3000 
    236 H236       -2.6675  -19.3885  -56.5936 H         1 UNK         0.0600 
    237 H237       -2.3128  -22.4300  -56.4746 H         1 UNK         0.0600 
    238 H238       -3.8539  -21.5767  -56.5218 H         1 UNK         0.0600 
    239 H239       -2.7475  -21.4779  -57.8831 H         1 UNK         0.0600 
    240 H240       -0.2345  -21.6340  -55.3583 H         1 UNK         0.3000 
    241 H241        1.9184  -21.9479  -55.6564 H         1 UNK         0.0600 
    242 H242        2.2964  -21.0529  -59.3318 H         1 UNK         0.3800 
    243 H243        0.8196  -21.3523  -58.4511 H         1 UNK         0.3800 
    244 H244        3.3019  -20.1516  -54.7414 H         1 UNK         0.0800 
    245 H245        1.8099  -20.3617  -53.8799 H         1 UNK         0.0800 
    246 H246        2.8541  -16.4546  -53.7255 H         1 UNK         0.0800 
    247 H247        3.9354  -17.8181  -53.8397 H         1 UNK         0.0800 
@<TRIPOS>BOND
     1    1    2 1    
     2    1  127 1    
     3    1  128 1    
     4    1  129 1    
     5    2    3 2    
     6    2    4 am   BACKBONE|DICT|INTERRES
     7    4    5 1    
     8    4  130 1    
     9    5    6 1    
    10    5   65 1    
    11    5  131 1    
    12    6    7 1    
    13    6  132 1    
    14    6  133 1    
    15    7    8 1    
    16    8    9 1    
    17    8  134 1    
    18    8  135 1    
    19    9   10 ar   
    20    9   14 ar   
    21   10   11 ar   
    22   10  136 1    
    23   11   12 ar   
    24   11  126 1    
    25   12   13 ar   
    26   12  137 1    
    27   13   14 ar   
    28   13   15 1    
    29   14  138 1    
    30   15   16 1    
    31   15  139 1    
    32   15  140 1    
    33   16   17 1    
    34   17   18 1    
    35   17  141 1    
    36   17  142 1    
    37   18   19 1    
    38   18   67 1    
    39   18  143 1    
    40   19   20 am   BACKBONE|DICT|INTERRES
    41   19  144 1    
    42   20   21 2    
    43   20   22 1    
    44   22   23 1    
    45   22   24 1    
    46   22  145 1    
    47   23  146 1    
    48   23  147 1    
    49   23  148 1    
    50   24   25 am   BACKBONE|DICT|INTERRES
    51   24  149 1    
    52   25   26 2    
    53   25   27 1    
    54   27   28 1    
    55   27   29 1    
    56   27  150 1    
    57   28  151 1    
    58   28  152 1    
    59   28  153 1    
    60   29   30 am   BACKBONE|DICT|INTERRES
    61   29  154 1    
    62   30   31 2    
    63   30   32 1    
    64   32   33 1    
    65   32   34 1    
    66   32  155 1    
    67   33  156 1    
    68   33  157 1    
    69   33  158 1    
    70   34   35 am   BACKBONE|DICT|INTERRES
    71   34  159 1    
    72   35   36 2    
    73   35   37 1    
    74   37   38 1    
    75   37   39 1    
    76   37  160 1    
    77   38  161 1    
    78   38  162 1    
    79   38  163 1    
    80   39   40 am   BACKBONE|DICT|INTERRES
    81   39  164 1    
    82   40   41 2    
    83   40   42 1    
    84   42   43 1    
    85   42   44 1    
    86   42  165 1    
    87   43  166 1    
    88   43  167 1    
    89   43  168 1    
    90   44   45 am   BACKBONE|DICT|INTERRES
    91   44  169 1    
    92   45   46 2    
    93   45   47 1    
    94   47   48 1    
    95   47   49 1    
    96   47  170 1    
    97   48  171 1    
    98   48  172 1    
    99   48  173 1    
   100   49   50 am   BACKBONE|DICT|INTERRES
   101   49  174 1    
   102   50   51 2    
   103   50   52 1    
   104   52   53 1    
   105   52   54 1    
   106   52  175 1    
   107   53  176 1    
   108   53  177 1    
   109   53  178 1    
   110   54   55 am   BACKBONE|DICT|INTERRES
   111   54  179 1    
   112   55   56 2    
   113   55   57 1    
   114   57   58 1    
   115   57   59 1    
   116   57  180 1    
   117   58  181 1    
   118   58  182 1    
   119   58  183 1    
   120   59   60 am   BACKBONE|DICT|INTERRES
   121   59  184 1    
   122   60   61 2    
   123   60   62 1    
   124   62   63 1    
   125   62   64 1    
   126   62  185 1    
   127   63  186 1    
   128   63  187 1    
   129   63  188 1    
   130   64   65 am   BACKBONE|DICT|INTERRES
   131   64  189 1    
   132   65   66 2    
   133   67   68 2    
   134   67   69 am   BACKBONE|DICT|INTERRES
   135   69   70 1    
   136   69  190 1    
   137   70   71 1    
   138   70   72 1    
   139   70  191 1    
   140   71  192 1    
   141   71  193 1    
   142   71  194 1    
   143   72   73 2    
   144   72   74 am   BACKBONE|DICT|INTERRES
   145   74   75 1    
   146   74  195 1    
   147   75   76 1    
   148   75   77 1    
   149   75  196 1    
   150   76  197 1    
   151   76  198 1    
   152   76  199 1    
   153   77   78 2    
   154   77   79 am   BACKBONE|DICT|INTERRES
   155   79   80 1    
   156   79  200 1    
   157   80   81 1    
   158   80   82 1    
   159   80  201 1    
   160   81  202 1    
   161   81  203 1    
   162   81  204 1    
   163   82   83 2    
   164   82   84 am   BACKBONE|DICT|INTERRES
   165   84   85 1    
   166   84  205 1    
   167   85   86 1    
   168   85   87 1    
   169   85  206 1    
   170   86  207 1    
   171   86  208 1    
   172   86  209 1    
   173   87   88 2    
   174   87   89 am   BACKBONE|DICT|INTERRES
   175   89   90 1    
   176   89  210 1    
   177   90   91 1    
   178   90   92 1    
   179   90  211 1    
   180   91  212 1    
   181   91  213 1    
   182   91  214 1    
   183   92   93 2    
   184   92   94 am   BACKBONE|DICT|INTERRES
   185   94   95 1    
   186   94  215 1    
   187   95   96 1    
   188   95   97 1    
   189   95  216 1    
   190   96  217 1    
   191   96  218 1    
   192   96  219 1    
   193   97   98 2    
   194   97   99 am   BACKBONE|DICT|INTERRES
   195   99  100 1    
   196   99  220 1    
   197  100  101 1    
   198  100  102 1    
   199  100  221 1    
   200  101  222 1    
   201  101  223 1    
   202  101  224 1    
   203  102  103 2    
   204  102  104 am   BACKBONE|DICT|INTERRES
   205  104  105 1    
   206  104  225 1    
   207  105  106 1    
   208  105  107 1    
   209  105  226 1    
   210  106  227 1    
   211  106  228 1    
   212  106  229 1    
   213  107  108 2    
   214  107  109 am   BACKBONE|DICT|INTERRES
   215  109  110 1    
   216  109  230 1    
   217  110  111 1    
   218  110  112 1    
   219  110  231 1    
   220  111  232 1    
   221  111  233 1    
   222  111  234 1    
   223  112  113 2    
   224  112  114 am   BACKBONE|DICT|INTERRES
   225  114  115 1    
   226  114  235 1    
   227  115  116 1    
   228  115  117 1    
   229  115  236 1    
   230  116  237 1    
   231  116  238 1    
   232  116  239 1    
   233  117  118 2    
   234  117  119 am   BACKBONE|DICT|INTERRES
   235  119  120 1    
   236  119  240 1    
   237  120  121 1    
   238  120  124 1    
   239  120  241 1    
   240  121  122 am   BACKBONE|DICT|INTERRES
   241  121  123 2    
   242  122  242 1    
   243  122  243 1    
   244  124  125 1    
   245  124  244 1    
   246  124  245 1    
   247  125  126 1    
   248  126  246 1    
   249  126  247 1    
@<TRIPOS>SUBSTRUCTURE
     1 UNK         1 GROUP             0       ****    0 ROOT    
