@<TRIPOS>MOLECULE
3R540
247   249    1
SMALL
USER_CHARGES


@<TRIPOS>ATOM
      1 CA          7.0414  -11.0296  -50.7067 C.3       0 UNK        -0.1800 
      2 C           5.6354  -11.4156  -50.2697 C.2       0 UNK         0.5000 
      3 O           4.6936  -11.2702  -51.0487 O.2       0 UNK        -0.5000 
      4 N           5.4951  -11.8958  -49.0258 N.am      1 UNK        -0.5000 
      5 CA          4.2449  -12.3545  -48.3971 C.3       1 UNK         0.1400 
      6 C6          3.6182  -13.5971  -49.0912 C.3       23 UNK        -0.0398 
      7 S7          4.7049  -15.0601  -48.9732 S.3       23 UNK        -0.2404 
      8 C8          3.6625  -16.2255  -48.0386 C.3       23 UNK        -0.0205 
      9 C9          2.7832  -17.0580  -48.9596 C.ar      23 UNK        -0.0193 
     10 C10         1.5672  -16.5552  -49.4300 C.ar      23 UNK        -0.1150 
     11 C11         0.7620  -17.3218  -50.2765 C.ar      23 UNK        -0.0193 
     12 C12         1.1771  -18.6044  -50.6477 C.ar      23 UNK        -0.1150 
     13 C13         2.3830  -19.1276  -50.1694 C.ar      23 UNK        -0.0193 
     14 C14         3.1823  -18.3450  -49.3308 C.ar      23 UNK        -0.1150 
     15 C15         2.8356  -20.5348  -50.5499 C.3       23 UNK        -0.0205 
     16 S16         1.5692  -21.8184  -50.2635 S.3       23 UNK        -0.2404 
     17 C17         1.0330  -21.4490  -48.5584 C.3       23 UNK        -0.0398 
     18 CA          0.5128  -22.6743  -47.7700 C.3       11 UNK         0.1400 
     19 N           0.2961  -22.3323  -46.3633 N.am      11 UNK        -0.5000 
     20 C          -0.0308  -23.1938  -45.3909 C.2       10 UNK         0.5000 
     21 O          -0.1282  -24.4095  -45.5544 O.2       10 UNK        -0.5000 
     22 CA         -0.3617  -22.5832  -44.0171 C.3       10 UNK         0.1400 
     23 CB          0.9205  -22.2328  -43.2481 C.3       10 UNK        -0.1800 
     24 N          -1.2179  -21.3993  -44.1246 N.am      10 UNK        -0.5000 
     25 C          -2.4693  -21.4175  -44.6076 C.2       9 UNK         0.5000 
     26 O          -3.0448  -22.4446  -44.9641 O.2       9 UNK        -0.5000 
     27 CA         -3.1880  -20.0650  -44.7538 C.3       9 UNK         0.1400 
     28 CB         -3.7682  -19.6091  -43.4070 C.3       9 UNK        -0.1800 
     29 N          -2.3202  -19.0213  -45.2967 N.am      9 UNK        -0.5000 
     30 C          -1.7976  -19.0294  -46.5313 C.2       8 UNK         0.5000 
     31 O          -2.0184  -19.9037  -47.3694 O.2       8 UNK        -0.5000 
     32 CA         -0.8195  -17.8924  -46.8722 C.3       8 UNK         0.1400 
     33 CB         -1.5807  -16.5975  -47.1879 C.3       8 UNK        -0.1800 
     34 N           0.1491  -17.6440  -45.8057 N.am      8 UNK        -0.5000 
     35 C           1.0343  -18.5434  -45.3537 C.2       7 UNK         0.5000 
     36 O           1.1698  -19.6710  -45.8258 O.2       7 UNK        -0.5000 
     37 CA          1.8666  -18.1365  -44.1276 C.3       7 UNK         0.1400 
     38 CB          3.0793  -17.2917  -44.5399 C.3       7 UNK        -0.1800 
     39 N           1.0644  -17.4075  -43.1458 N.am      7 UNK        -0.5000 
     40 C           0.1033  -17.9660  -42.3967 C.2       6 UNK         0.5000 
     41 O          -0.1857  -19.1620  -42.4343 O.2       6 UNK        -0.5000 
     42 CA         -0.6946  -17.0180  -41.4833 C.3       6 UNK         0.1400 
     43 CB          0.0780  -16.7325  -40.1868 C.3       6 UNK        -0.1800 
     44 N          -1.0268  -15.7534  -42.1419 N.am      6 UNK        -0.5000 
     45 C          -1.8643  -15.6456  -43.1827 C.2       5 UNK         0.5000 
     46 O          -2.4618  -16.5998  -43.6785 O.2       5 UNK        -0.5000 
     47 CA         -2.0343  -14.2451  -43.7991 C.3       5 UNK         0.1400 
     48 CB         -3.1265  -13.4584  -43.0599 C.3       5 UNK        -0.1800 
     49 N          -0.8039  -13.4509  -43.8275 N.am      5 UNK        -0.5000 
     50 C           0.3345  -13.7940  -44.4438 C.2       4 UNK         0.5000 
     51 O           0.5024  -14.8752  -45.0108 O.2       4 UNK        -0.5000 
     52 CA          1.4556  -12.7360  -44.4304 C.3       4 UNK         0.1400 
     53 CB          2.7522  -13.2376  -45.0870 C.3       4 UNK        -0.1800 
     54 N           1.0298  -11.5037  -45.0976 N.am      4 UNK        -0.5000 
     55 C           0.3062  -10.5290  -44.5274 C.2       3 UNK         0.5000 
     56 O          -0.1128  -10.5997  -43.3700 O.2       3 UNK        -0.5000 
     57 CA         -0.0326   -9.2921  -45.3911 C.3       3 UNK         0.1400 
     58 CB         -0.1786   -8.0047  -44.5527 C.3       3 UNK        -0.1800 
     59 N           0.8835   -9.0817  -46.5194 N.am      3 UNK        -0.5000 
     60 C           2.1974   -8.8194  -46.4675 C.2       2 UNK         0.5000 
     61 O           2.8410   -8.6799  -45.4257 O.2       2 UNK        -0.5000 
     62 CA          2.9227   -8.7585  -47.8257 C.3       2 UNK         0.1400 
     63 CB          3.8475   -7.5336  -47.9189 C.3       2 UNK        -0.1800 
     64 N           3.7082   -9.9683  -48.0715 N.am      2 UNK        -0.5000 
     65 C           3.2212  -11.2144  -48.1705 C.2       1 UNK         0.5000 
     66 O           2.0222  -11.4790  -48.0582 O.2       1 UNK        -0.5000 
     67 C          -0.7568  -23.2895  -48.3983 C.2       11 UNK         0.5000 
     68 O          -0.6739  -24.3508  -49.0159 O.2       11 UNK        -0.5000 
     69 N          -1.9150  -22.6503  -48.1787 N.am      12 UNK        -0.5000 
     70 CA         -3.2249  -23.1250  -48.6223 C.3       12 UNK         0.1400 
     71 CB         -4.2890  -22.0698  -48.3135 C.3       12 UNK        -0.1800 
     72 C          -3.6294  -24.4830  -48.0319 C.2       12 UNK         0.5000 
     73 O          -4.1888  -25.3039  -48.7594 O.2       12 UNK        -0.5000 
     74 N          -3.3302  -24.7008  -46.7455 N.am      13 UNK        -0.5000 
     75 CA         -3.5487  -25.9662  -46.0481 C.3       13 UNK         0.1400 
     76 CB         -3.3660  -25.7622  -44.5366 C.3       13 UNK        -0.1800 
     77 C          -2.6294  -27.0851  -46.5679 C.2       13 UNK         0.5000 
     78 O          -3.1047  -28.1979  -46.7935 O.2       13 UNK        -0.5000 
     79 N          -1.3442  -26.7654  -46.7783 N.am      14 UNK        -0.5000 
     80 CA         -0.3334  -27.6797  -47.3145 C.3       14 UNK         0.1400 
     81 CB          1.0576  -27.0399  -47.1881 C.3       14 UNK        -0.1800 
     82 C          -0.6128  -28.0937  -48.7709 C.2       14 UNK         0.5000 
     83 O          -0.4671  -29.2691  -49.1086 O.2       14 UNK        -0.5000 
     84 N          -1.0332  -27.1276  -49.5981 N.am      15 UNK        -0.5000 
     85 CA         -1.4319  -27.3377  -50.9908 C.3       15 UNK         0.1400 
     86 CB         -1.4389  -25.9793  -51.7116 C.3       15 UNK        -0.1800 
     87 C          -2.8087  -28.0153  -51.1368 C.2       15 UNK         0.5000 
     88 O          -3.1029  -28.5463  -52.2082 O.2       15 UNK        -0.5000 
     89 N          -3.6325  -27.9470  -50.0789 N.am      16 UNK        -0.5000 
     90 CA         -5.0516  -28.3195  -50.0209 C.3       16 UNK         0.1400 
     91 CB         -5.2368  -29.8401  -50.2017 C.3       16 UNK        -0.1800 
     92 C          -5.9126  -27.4771  -50.9893 C.2       16 UNK         0.5000 
     93 O          -6.8797  -27.9772  -51.5667 O.2       16 UNK        -0.5000 
     94 N          -5.5184  -26.2093  -51.1602 N.am      17 UNK        -0.5000 
     95 CA         -6.1128  -25.2555  -52.0933 C.3       17 UNK         0.1400 
     96 CB         -5.0091  -24.3055  -52.5883 C.3       17 UNK        -0.1800 
     97 C          -7.2575  -24.4482  -51.4593 C.2       17 UNK         0.5000 
     98 O          -8.1634  -24.0316  -52.1825 O.2       17 UNK        -0.5000 
     99 N          -7.1792  -24.2395  -50.1344 N.am      18 UNK        -0.5000 
    100 CA        -8.0054  -23.3483  -49.3068 C.3       18 UNK         0.1400 
    101 CB        -9.4976  -23.7325  -49.3785 C.3       18 UNK        -0.1800 
    102 C         -7.7835  -21.8497  -49.6184 C.2       18 UNK         0.5000 
    103 O         -7.1927  -21.4997  -50.6424 O.2       18 UNK        -0.5000 
    104 N         -8.2323  -20.9890  -48.6927 N.am      19 UNK        -0.5000 
    105 CA        -8.0672  -19.5301  -48.6878 C.3       19 UNK         0.1400 
    106 CB        -8.8830  -18.8757  -49.8260 C.3       19 UNK        -0.1800 
    107 C         -6.5784  -19.1202  -48.6681 C.2       19 UNK         0.5000 
    108 O         -5.9609  -19.1627  -47.6035 O.2       19 UNK        -0.5000 
    109 N         -6.0337  -18.7483  -49.8308 N.am      20 UNK        -0.5000 
    110 CA        -4.6334  -18.4178  -50.0542 C.3       20 UNK         0.1400 
    111 CB        -4.4634  -16.8893  -50.0458 C.3       20 UNK        -0.1800 
    112 C         -4.2373  -19.0233  -51.4073 C.2       20 UNK         0.5000 
    113 O         -4.8222  -18.6483  -52.4262 O.2       20 UNK        -0.5000 
    114 N         -3.2604  -19.9422  -51.4058 N.am      21 UNK        -0.5000 
    115 CA        -2.8168  -20.6908  -52.5920 C.3       21 UNK         0.1400 
    116 CB        -1.7999  -21.7607  -52.1676 C.3       21 UNK        -0.1800 
    117 C         -2.2171  -19.8169  -53.7110 C.2       21 UNK         0.5000 
    118 O         -2.2820  -20.1956  -54.8808 O.2       21 UNK        -0.5000 
    119 N         -1.6530  -18.6670  -53.3274 N.am      22 UNK        -0.5000 
    120 CA        -1.1103  -17.6436  -54.2289 C.3       22 UNK         0.1400 
    121 C         -2.1845  -16.7327  -54.8992 C.2       22 UNK         0.5000 
    122 N         -3.4662  -16.8442  -54.5643 N.am      22 UNK        -0.7600 
    123 O         -1.8492  -15.9193  -55.7559 O.2       22 UNK        -0.5000 
    124 C124        0.0334  -16.8448  -53.5468 C.3       23 UNK        -0.0398 
    125 S125       -0.4846  -15.7149  -52.2033 S.3       23 UNK        -0.2404 
    126 C126       -0.5846  -16.7858  -50.7342 C.3       23 UNK        -0.0205 
    127 H127        7.0752   -9.9727  -50.9715 H         1 UNK         0.0600 
    128 H128        7.7746  -11.2067  -49.9195 H         1 UNK         0.0600 
    129 H129        7.3348  -11.6108  -51.5809 H         1 UNK         0.0600 
    130 H130        6.3195  -11.9893  -48.4484 H         1 UNK         0.3000 
    131 H131        4.5319  -12.6623  -47.3913 H         1 UNK         0.0600 
    132 H132        3.4079  -13.3981  -50.1424 H         1 UNK         0.0800 
    133 H133        2.6566  -13.8435  -48.6422 H         1 UNK         0.0800 
    134 H134        4.3154  -16.8797  -47.4594 H         1 UNK         0.0800 
    135 H135        3.0490  -15.6942  -47.3104 H         1 UNK         0.0800 
    136 H136        1.2390  -15.5702  -49.1327 H         1 UNK         0.1150 
    137 H137        0.5551  -19.2070  -51.2938 H         1 UNK         0.1150 
    138 H138        4.1192  -18.7385  -48.9622 H         1 UNK         0.1150 
    139 H139        3.1116  -20.5421  -51.6049 H         1 UNK         0.0800 
    140 H140        3.7337  -20.8119  -49.9957 H         1 UNK         0.0800 
    141 H141        0.2794  -20.6611  -48.5936 H         1 UNK         0.0800 
    142 H142        1.8864  -21.0233  -48.0286 H         1 UNK         0.0800 
    143 H143        1.2899  -23.4410  -47.7924 H         1 UNK         0.0600 
    144 H144        0.4006  -21.3491  -46.1232 H         1 UNK         0.3000 
    145 H145       -0.9052  -23.3360  -43.4424 H         1 UNK         0.0600 
    146 H146        0.6917  -21.8696  -42.2461 H         1 UNK         0.0600 
    147 H147        1.5612  -23.1087  -43.1385 H         1 UNK         0.0600 
    148 H148        1.5003  -21.4635  -43.7580 H         1 UNK         0.0600 
    149 H149       -0.8264  -20.5208  -43.8010 H         1 UNK         0.3000 
    150 H150       -4.0182  -20.2012  -45.4500 H         1 UNK         0.0600 
    151 H151       -4.4235  -20.3721  -42.9850 H         1 UNK         0.0600 
    152 H152       -4.3593  -18.7004  -43.5219 H         1 UNK         0.0600 
    153 H153       -2.9835  -19.4072  -42.6772 H         1 UNK         0.0600 
    154 H154       -2.1295  -18.2306  -44.6881 H         1 UNK         0.3000 
    155 H155       -0.2620  -18.1930  -47.7605 H         1 UNK         0.0600 
    156 H156       -2.1483  -16.2442  -46.3284 H         1 UNK         0.0600 
    157 H157       -2.2906  -16.7519  -47.9999 H         1 UNK         0.0600 
    158 H158       -0.8995  -15.8008  -47.4871 H         1 UNK         0.0600 
    159 H159        0.1437  -16.7166  -45.3897 H         1 UNK         0.3000 
    160 H160        2.2369  -19.0489  -43.6555 H         1 UNK         0.0600 
    161 H161        3.7174  -17.8428  -45.2315 H         1 UNK         0.0600 
    162 H162        3.6888  -17.0254  -43.6765 H         1 UNK         0.0600 
    163 H163        2.7756  -16.3705  -45.0347 H         1 UNK         0.0600 
    164 H164        1.1959  -16.4079  -43.1026 H         1 UNK         0.3000 
    165 H165       -1.6285  -17.5191  -41.2197 H         1 UNK         0.0600 
    166 H166       -0.5142  -16.1266  -39.5007 H         1 UNK         0.0600 
    167 H167        0.3255  -17.6599  -39.6686 H         1 UNK         0.0600 
    168 H168        1.0127  -16.2047  -40.3801 H         1 UNK         0.0600 
    169 H169       -0.5755  -14.9194  -41.7963 H         1 UNK         0.3000 
    170 H170       -2.3570  -14.3796  -44.8330 H         1 UNK         0.0600 
    171 H171       -4.0648  -14.0146  -43.0418 H         1 UNK         0.0600 
    172 H172       -2.8453  -13.2533  -42.0262 H         1 UNK         0.0600 
    173 H173       -3.3248  -12.5044  -43.5490 H         1 UNK         0.0600 
    174 H174       -0.8443  -12.5286  -43.4071 H         1 UNK         0.3000 
    175 H175        1.6838  -12.5153  -43.3855 H         1 UNK         0.0600 
    176 H176        2.5831  -13.5538  -46.1160 H         1 UNK         0.0600 
    177 H177        3.5175  -12.4615  -45.0901 H         1 UNK         0.0600 
    178 H178        3.1601  -14.0887  -44.5418 H         1 UNK         0.0600 
    179 H179        1.2911  -11.4044  -46.0724 H         1 UNK         0.3000 
    180 H180       -1.0069   -9.5026  -45.8340 H         1 UNK         0.0600 
    181 H181        0.7365   -7.7680  -44.0093 H         1 UNK         0.0600 
    182 H182       -0.9771   -8.1047  -43.8165 H         1 UNK         0.0600 
    183 H183       -0.4265   -7.1499  -45.1818 H         1 UNK         0.0600 
    184 H184        0.4746   -9.2321  -47.4319 H         1 UNK         0.3000 
    185 H185        2.1776   -8.6749  -48.6197 H         1 UNK         0.0600 
    186 H186        3.2925   -6.6121  -47.7382 H         1 UNK         0.0600 
    187 H187        4.6553   -7.5791  -47.1874 H         1 UNK         0.0600 
    188 H188        4.2964   -7.4530  -48.9091 H         1 UNK         0.0600 
    189 H189        4.7067   -9.8450  -48.1511 H         1 UNK         0.3000 
    190 H190       -1.9024  -21.7628  -47.6821 H         1 UNK         0.3000 
    191 H191       -3.1861  -23.2566  -49.7022 H         1 UNK         0.0600 
    192 H192       -4.3276  -21.8262  -47.2525 H         1 UNK         0.0600 
    193 H193       -5.2751  -22.4241  -48.6011 H         1 UNK         0.0600 
    194 H194       -4.1011  -21.1496  -48.8614 H         1 UNK         0.0600 
    195 H195       -2.9424  -23.9380  -46.1975 H         1 UNK         0.3000 
    196 H196       -4.5814  -26.2741  -46.2248 H         1 UNK         0.0600 
    197 H197       -2.3592  -25.4220  -44.2932 H         1 UNK         0.0600 
    198 H198       -3.5403  -26.6914  -43.9927 H         1 UNK         0.0600 
    199 H199       -4.0690  -25.0229  -44.1522 H         1 UNK         0.0600 
    200 H200       -1.0235  -25.8339  -46.5275 H         1 UNK         0.3000 
    201 H201       -0.3458  -28.5854  -46.7046 H         1 UNK         0.0600 
    202 H202        1.2985  -26.8252  -46.1468 H         1 UNK         0.0600 
    203 H203        1.1229  -26.1047  -47.7451 H         1 UNK         0.0600 
    204 H204        1.8316  -27.7063  -47.5706 H         1 UNK         0.0600 
    205 H205       -1.0543  -26.1672  -49.2608 H         1 UNK         0.3000 
    206 H206       -0.6917  -27.9796  -51.4728 H         1 UNK         0.0600 
    207 H207       -0.4582  -25.5049  -51.6703 H         1 UNK         0.0600 
    208 H208       -1.7010  -26.0931  -52.7642 H         1 UNK         0.0600 
    209 H209       -2.1598  -25.2926  -51.2659 H         1 UNK         0.0600 
    210 H210       -3.2859  -27.4694  -49.2575 H         1 UNK         0.3000 
    211 H211       -5.3888  -28.0639  -49.0153 H         1 UNK         0.0600 
    212 H212       -4.9871  -30.1638  -51.2124 H         1 UNK         0.0600 
    213 H213       -6.2703  -30.1319  -50.0121 H         1 UNK         0.0600 
    214 H214       -4.6099  -30.3973  -49.5056 H         1 UNK         0.0600 
    215 H215       -4.7595  -25.8755  -50.5757 H         1 UNK         0.3000 
    216 H216       -6.5140  -25.7919  -52.9559 H         1 UNK         0.0600 
    217 H217       -5.4041  -23.5918  -53.3125 H         1 UNK         0.0600 
    218 H218       -4.2051  -24.8549  -53.0784 H         1 UNK         0.0600 
    219 H219       -4.5739  -23.7317  -51.7694 H         1 UNK         0.0600 
    220 H220       -6.3875  -24.6513  -49.6598 H         1 UNK         0.3000 
    221 H221       -7.6692  -23.5113  -48.2817 H         1 UNK         0.0600 
    222 H222       -9.9375  -23.4886  -50.3456 H         1 UNK         0.0600 
    223 H223       -9.6396  -24.7991  -49.2040 H         1 UNK         0.0600 
    224 H224      -10.0753  -23.2022  -48.6210 H         1 UNK         0.0600 
    225 H225       -8.6773  -21.3676  -47.8683 H         1 UNK         0.3000 
    226 H226       -8.4898  -19.1763  -47.7461 H         1 UNK         0.0600 
    227 H227       -9.9452  -19.0936  -49.7150 H         1 UNK         0.0600 
    228 H228       -8.7747  -17.7904  -49.8096 H         1 UNK         0.0600 
    229 H229       -8.5802  -19.2224  -50.8142 H         1 UNK         0.0600 
    230 H230       -6.5925  -18.8206  -50.6713 H         1 UNK         0.3000 
    231 H231       -4.0053  -18.8449  -49.2697 H         1 UNK         0.0600 
    232 H232       -3.4390  -16.6029  -50.2783 H         1 UNK         0.0600 
    233 H233       -4.7047  -16.4741  -49.0672 H         1 UNK         0.0600 
    234 H234       -5.1103  -16.4076  -50.7803 H         1 UNK         0.0600 
    235 H235       -2.8291  -20.1987  -50.5297 H         1 UNK         0.3000 
    236 H236       -3.6889  -21.1967  -53.0118 H         1 UNK         0.0600 
    237 H237       -1.3858  -22.2800  -53.0331 H         1 UNK         0.0600 
    238 H238       -0.9670  -21.3228  -51.6191 H         1 UNK         0.0600 
    239 H239       -2.2579  -22.5192  -51.5387 H         1 UNK         0.0600 
    240 H240       -1.6741  -18.4286  -52.3500 H         1 UNK         0.3000 
    241 H241       -0.6455  -18.1755  -55.0613 H         1 UNK         0.0600 
    242 H242       -4.1441  -16.2506  -55.0152 H         1 UNK         0.3800 
    243 H243       -3.7764  -17.5162  -53.8730 H         1 UNK         0.3800 
    244 H244        0.7973  -17.5272  -53.1753 H         1 UNK         0.0800 
    245 H245        0.5432  -16.2376  -54.2964 H         1 UNK         0.0800 
    246 H246       -1.0168  -16.1877  -49.9332 H         1 UNK         0.0800 
    247 H247       -1.2833  -17.6035  -50.8980 H         1 UNK         0.0800 
@<TRIPOS>BOND
     1    1    2 1    
     2    1  127 1    
     3    1  128 1    
     4    1  129 1    
     5    2    3 2    
     6    2    4 am   BACKBONE|DICT|INTERRES
     7    4    5 1    
     8    4  130 1    
     9    5    6 1    
    10    5   65 1    
    11    5  131 1    
    12    6    7 1    
    13    6  132 1    
    14    6  133 1    
    15    7    8 1    
    16    8    9 1    
    17    8  134 1    
    18    8  135 1    
    19    9   10 ar   
    20    9   14 ar   
    21   10   11 ar   
    22   10  136 1    
    23   11   12 ar   
    24   11  126 1    
    25   12   13 ar   
    26   12  137 1    
    27   13   14 ar   
    28   13   15 1    
    29   14  138 1    
    30   15   16 1    
    31   15  139 1    
    32   15  140 1    
    33   16   17 1    
    34   17   18 1    
    35   17  141 1    
    36   17  142 1    
    37   18   19 1    
    38   18   67 1    
    39   18  143 1    
    40   19   20 am   BACKBONE|DICT|INTERRES
    41   19  144 1    
    42   20   21 2    
    43   20   22 1    
    44   22   23 1    
    45   22   24 1    
    46   22  145 1    
    47   23  146 1    
    48   23  147 1    
    49   23  148 1    
    50   24   25 am   BACKBONE|DICT|INTERRES
    51   24  149 1    
    52   25   26 2    
    53   25   27 1    
    54   27   28 1    
    55   27   29 1    
    56   27  150 1    
    57   28  151 1    
    58   28  152 1    
    59   28  153 1    
    60   29   30 am   BACKBONE|DICT|INTERRES
    61   29  154 1    
    62   30   31 2    
    63   30   32 1    
    64   32   33 1    
    65   32   34 1    
    66   32  155 1    
    67   33  156 1    
    68   33  157 1    
    69   33  158 1    
    70   34   35 am   BACKBONE|DICT|INTERRES
    71   34  159 1    
    72   35   36 2    
    73   35   37 1    
    74   37   38 1    
    75   37   39 1    
    76   37  160 1    
    77   38  161 1    
    78   38  162 1    
    79   38  163 1    
    80   39   40 am   BACKBONE|DICT|INTERRES
    81   39  164 1    
    82   40   41 2    
    83   40   42 1    
    84   42   43 1    
    85   42   44 1    
    86   42  165 1    
    87   43  166 1    
    88   43  167 1    
    89   43  168 1    
    90   44   45 am   BACKBONE|DICT|INTERRES
    91   44  169 1    
    92   45   46 2    
    93   45   47 1    
    94   47   48 1    
    95   47   49 1    
    96   47  170 1    
    97   48  171 1    
    98   48  172 1    
    99   48  173 1    
   100   49   50 am   BACKBONE|DICT|INTERRES
   101   49  174 1    
   102   50   51 2    
   103   50   52 1    
   104   52   53 1    
   105   52   54 1    
   106   52  175 1    
   107   53  176 1    
   108   53  177 1    
   109   53  178 1    
   110   54   55 am   BACKBONE|DICT|INTERRES
   111   54  179 1    
   112   55   56 2    
   113   55   57 1    
   114   57   58 1    
   115   57   59 1    
   116   57  180 1    
   117   58  181 1    
   118   58  182 1    
   119   58  183 1    
   120   59   60 am   BACKBONE|DICT|INTERRES
   121   59  184 1    
   122   60   61 2    
   123   60   62 1    
   124   62   63 1    
   125   62   64 1    
   126   62  185 1    
   127   63  186 1    
   128   63  187 1    
   129   63  188 1    
   130   64   65 am   BACKBONE|DICT|INTERRES
   131   64  189 1    
   132   65   66 2    
   133   67   68 2    
   134   67   69 am   BACKBONE|DICT|INTERRES
   135   69   70 1    
   136   69  190 1    
   137   70   71 1    
   138   70   72 1    
   139   70  191 1    
   140   71  192 1    
   141   71  193 1    
   142   71  194 1    
   143   72   73 2    
   144   72   74 am   BACKBONE|DICT|INTERRES
   145   74   75 1    
   146   74  195 1    
   147   75   76 1    
   148   75   77 1    
   149   75  196 1    
   150   76  197 1    
   151   76  198 1    
   152   76  199 1    
   153   77   78 2    
   154   77   79 am   BACKBONE|DICT|INTERRES
   155   79   80 1    
   156   79  200 1    
   157   80   81 1    
   158   80   82 1    
   159   80  201 1    
   160   81  202 1    
   161   81  203 1    
   162   81  204 1    
   163   82   83 2    
   164   82   84 am   BACKBONE|DICT|INTERRES
   165   84   85 1    
   166   84  205 1    
   167   85   86 1    
   168   85   87 1    
   169   85  206 1    
   170   86  207 1    
   171   86  208 1    
   172   86  209 1    
   173   87   88 2    
   174   87   89 am   BACKBONE|DICT|INTERRES
   175   89   90 1    
   176   89  210 1    
   177   90   91 1    
   178   90   92 1    
   179   90  211 1    
   180   91  212 1    
   181   91  213 1    
   182   91  214 1    
   183   92   93 2    
   184   92   94 am   BACKBONE|DICT|INTERRES
   185   94   95 1    
   186   94  215 1    
   187   95   96 1    
   188   95   97 1    
   189   95  216 1    
   190   96  217 1    
   191   96  218 1    
   192   96  219 1    
   193   97   98 2    
   194   97   99 am   BACKBONE|DICT|INTERRES
   195   99  100 1    
   196   99  220 1    
   197  100  101 1    
   198  100  102 1    
   199  100  221 1    
   200  101  222 1    
   201  101  223 1    
   202  101  224 1    
   203  102  103 2    
   204  102  104 am   BACKBONE|DICT|INTERRES
   205  104  105 1    
   206  104  225 1    
   207  105  106 1    
   208  105  107 1    
   209  105  226 1    
   210  106  227 1    
   211  106  228 1    
   212  106  229 1    
   213  107  108 2    
   214  107  109 am   BACKBONE|DICT|INTERRES
   215  109  110 1    
   216  109  230 1    
   217  110  111 1    
   218  110  112 1    
   219  110  231 1    
   220  111  232 1    
   221  111  233 1    
   222  111  234 1    
   223  112  113 2    
   224  112  114 am   BACKBONE|DICT|INTERRES
   225  114  115 1    
   226  114  235 1    
   227  115  116 1    
   228  115  117 1    
   229  115  236 1    
   230  116  237 1    
   231  116  238 1    
   232  116  239 1    
   233  117  118 2    
   234  117  119 am   BACKBONE|DICT|INTERRES
   235  119  120 1    
   236  119  240 1    
   237  120  121 1    
   238  120  124 1    
   239  120  241 1    
   240  121  122 am   BACKBONE|DICT|INTERRES
   241  121  123 2    
   242  122  242 1    
   243  122  243 1    
   244  124  125 1    
   245  124  244 1    
   246  124  245 1    
   247  125  126 1    
   248  126  246 1    
   249  126  247 1    
@<TRIPOS>SUBSTRUCTURE
     1 UNK         1 GROUP             0       ****    0 ROOT    
