@<TRIPOS>MOLECULE
3R540
247   249    1
SMALL
USER_CHARGES


@<TRIPOS>ATOM
      1 CA          2.0014  -10.6724  -51.5395 C.3       0 UNK        -0.1800 
      2 C           1.5221  -11.5282  -50.3763 C.2       0 UNK         0.5000 
      3 O           1.3856  -11.0248  -49.2618 O.2       0 UNK        -0.5000 
      4 N           1.2497  -12.8150  -50.6340 N.am      1 UNK        -0.5000 
      5 CA          0.8233  -13.8228  -49.6496 C.3       1 UNK         0.1400 
      6 C6          0.7012  -15.2283  -50.2885 C.3       23 UNK        -0.0398 
      7 S7          2.3129  -15.8483  -50.8811 S.3       23 UNK        -0.2404 
      8 C8          2.8152  -16.9530  -49.5131 C.3       23 UNK        -0.0205 
      9 C9          2.9306  -18.4297  -49.8927 C.ar      23 UNK        -0.0193 
     10 C10         2.1162  -19.0187  -50.8690 C.ar      23 UNK        -0.1150 
     11 C11         2.2601  -20.3710  -51.1974 C.ar      23 UNK        -0.0193 
     12 C12         3.1879  -21.1509  -50.5048 C.ar      23 UNK        -0.1150 
     13 C13         3.9847  -20.5909  -49.5043 C.ar      23 UNK        -0.0193 
     14 C14         3.8659  -19.2251  -49.2222 C.ar      23 UNK        -0.1150 
     15 C15         4.9657  -21.4836  -48.7485 C.3       23 UNK        -0.0205 
     16 S16         5.0540  -21.1799  -46.9487 S.3       23 UNK        -0.2404 
     17 C17         3.3036  -21.1648  -46.4301 C.3       23 UNK        -0.0398 
     18 CA          2.7868  -22.5280  -45.9103 C.3       11 UNK         0.1400 
     19 N           1.7235  -22.3442  -44.9197 N.am      11 UNK        -0.5000 
     20 C           1.2245  -23.3026  -44.1299 C.2       10 UNK         0.5000 
     21 O           1.6451  -24.4587  -44.1175 O.2       10 UNK        -0.5000 
     22 CA          0.0542  -22.9062  -43.2102 C.3       10 UNK         0.1400 
     23 CB          0.5712  -22.3024  -41.8957 C.3       10 UNK        -0.1800 
     24 N          -0.8611  -21.9610  -43.8505 N.am      10 UNK        -0.5000 
     25 C          -1.7559  -22.2920  -44.7922 C.2       9 UNK         0.5000 
     26 O          -1.9464  -23.4418  -45.1855 O.2       9 UNK        -0.5000 
     27 CA         -2.5703  -21.1406  -45.4117 C.3       9 UNK         0.1400 
     28 CB         -3.7880  -20.8246  -44.5307 C.3       9 UNK        -0.1800 
     29 N          -1.7858  -19.9205  -45.6186 N.am      9 UNK        -0.5000 
     30 C          -0.7098  -19.8310  -46.4151 C.2       8 UNK         0.5000 
     31 O          -0.2848  -20.7621  -47.0955 O.2       8 UNK        -0.5000 
     32 CA          0.0639  -18.5012  -46.3968 C.3       8 UNK         0.1400 
     33 CB         -0.6025  -17.4741  -47.3193 C.3       8 UNK        -0.1800 
     34 N           0.1912  -17.9437  -45.0503 N.am      8 UNK        -0.5000 
     35 C           0.7945  -18.5557  -44.0210 C.2       7 UNK         0.5000 
     36 O           1.3586  -19.6439  -44.1088 O.2       7 UNK        -0.5000 
     37 CA          0.6865  -17.8739  -42.6495 C.3       7 UNK         0.1400 
     38 CB          1.7481  -16.7755  -42.4930 C.3       7 UNK        -0.1800 
     39 N          -0.6518  -17.3193  -42.4493 N.am      7 UNK        -0.5000 
     40 C          -1.7375  -18.0651  -42.1996 C.2       6 UNK         0.5000 
     41 O          -1.7010  -19.2853  -42.0391 O.2       6 UNK        -0.5000 
     42 CA         -3.0914  -17.3338  -42.1490 C.3       6 UNK         0.1400 
     43 CB         -3.3822  -16.8373  -40.7251 C.3       6 UNK        -0.1800 
     44 N          -3.1599  -16.2037  -43.0771 N.am      6 UNK        -0.5000 
     45 C          -3.2750  -16.3231  -44.4065 C.2       5 UNK         0.5000 
     46 O          -3.3651  -17.4008  -44.9965 O.2       5 UNK        -0.5000 
     47 CA         -3.2704  -15.0164  -45.2223 C.3       5 UNK         0.1400 
     48 CB         -4.6929  -14.4407  -45.3034 C.3       5 UNK        -0.1800 
     49 N          -2.3669  -13.9714  -44.7327 N.am      5 UNK        -0.5000 
     50 C          -1.0539  -14.1100  -44.5020 C.2       4 UNK         0.5000 
     51 O          -0.4603  -15.1874  -44.5526 O.2       4 UNK        -0.5000 
     52 CA         -0.2894  -12.8127  -44.2015 C.3       4 UNK         0.1400 
     53 CB          1.2194  -13.0275  -43.9838 C.3       4 UNK        -0.1800 
     54 N          -0.4941  -11.8920  -45.3147 N.am      4 UNK        -0.5000 
     55 C          -0.6888  -10.5714  -45.2061 C.2       3 UNK         0.5000 
     56 O          -0.6996   -9.9733  -44.1294 O.2       3 UNK        -0.5000 
     57 CA         -0.9116   -9.7730  -46.5084 C.3       3 UNK         0.1400 
     58 CB          0.3389   -8.9497  -46.8531 C.3       3 UNK        -0.1800 
     59 N          -1.2624  -10.6152  -47.6548 N.am      3 UNK        -0.5000 
     60 C          -2.4521  -11.2145  -47.8155 C.2       2 UNK         0.5000 
     61 O          -3.3976  -11.0599  -47.0423 O.2       2 UNK        -0.5000 
     62 CA         -2.6173  -12.1755  -49.0107 C.3       2 UNK         0.1400 
     63 CB         -3.4298  -11.5198  -50.1366 C.3       2 UNK        -0.1800 
     64 N          -1.3607  -12.6834  -49.5652 N.am      2 UNK        -0.5000 
     65 C          -0.4749  -13.4434  -48.9038 C.2       1 UNK         0.5000 
     66 O          -0.6237  -13.7902  -47.7327 O.2       1 UNK        -0.5000 
     67 C           2.3259  -23.4379  -47.0689 C.2       11 UNK         0.5000 
     68 O           3.0450  -24.3610  -47.4516 O.2       11 UNK        -0.5000 
     69 N           1.1132  -23.1821  -47.5752 N.am      12 UNK        -0.5000 
     70 CA          0.4752  -23.9017  -48.6752 C.3       12 UNK         0.1400 
     71 CB         -0.2850  -22.8836  -49.5452 C.3       12 UNK        -0.1800 
     72 C          -0.4648  -25.0176  -48.1775 C.2       12 UNK         0.5000 
     73 O          -1.4195  -25.3503  -48.8812 O.2       12 UNK        -0.5000 
     74 N          -0.2052  -25.5824  -46.9880 N.am      13 UNK        -0.5000 
     75 CA         -1.0650  -26.5427  -46.2775 C.3       13 UNK         0.1400 
     76 CB         -0.4535  -26.8577  -44.9045 C.3       13 UNK        -0.1800 
     77 C          -1.3985  -27.8490  -47.0278 C.2       13 UNK         0.5000 
     78 O          -2.3558  -28.5258  -46.6511 O.2       13 UNK        -0.5000 
     79 N          -0.6399  -28.1708  -48.0848 N.am      14 UNK        -0.5000 
     80 CA         -0.9442  -29.2475  -49.0308 C.3       14 UNK         0.1400 
     81 CB          0.2403  -29.4187  -49.9938 C.3       14 UNK        -0.1800 
     82 C          -2.2513  -29.0060  -49.8169 C.2       14 UNK         0.5000 
     83 O          -2.9341  -29.9708  -50.1634 O.2       14 UNK        -0.5000 
     84 N          -2.5795  -27.7300  -50.0608 N.am      15 UNK        -0.5000 
     85 CA         -3.8429  -27.2793  -50.6426 C.3       15 UNK         0.1400 
     86 CB         -3.5467  -26.2761  -51.7694 C.3       15 UNK        -0.1800 
     87 C          -4.7373  -26.6272  -49.5738 C.2       15 UNK         0.5000 
     88 O          -5.9525  -26.8227  -49.6039 O.2       15 UNK        -0.5000 
     89 N          -4.1175  -25.8596  -48.6616 N.am      16 UNK        -0.5000 
     90 CA         -4.7241  -25.0670  -47.5849 C.3       16 UNK         0.1400 
     91 CB         -5.3608  -25.9828  -46.5202 C.3       16 UNK        -0.1800 
     92 C          -5.6876  -23.9835  -48.1166 C.2       16 UNK         0.5000 
     93 O          -6.7175  -23.7069  -47.4999 O.2       16 UNK        -0.5000 
     94 N          -5.3349  -23.4068  -49.2749 N.am      17 UNK        -0.5000 
     95 CA         -6.1495  -22.4517  -50.0280 C.3       17 UNK         0.1400 
     96 CB         -5.5276  -22.2672  -51.4211 C.3       17 UNK        -0.1800 
     97 C          -6.3322  -21.0928  -49.3258 C.2       17 UNK         0.5000 
     98 O          -7.4028  -20.4963  -49.4497 O.2       17 UNK        -0.5000 
     99 N          -5.2912  -20.6540  -48.5997 N.am      18 UNK        -0.5000 
    100 CA        -5.1760  -19.3881  -47.8621 C.3       18 UNK         0.1400 
    101 CB        -6.2728  -19.2837  -46.7801 C.3       18 UNK        -0.1800 
    102 C         -5.1591  -18.1378  -48.7674 C.2       18 UNK         0.5000 
    103 O         -5.3460  -18.2312  -49.9833 O.2       18 UNK        -0.5000 
    104 N         -4.9102  -16.9774  -48.1432 N.am      19 UNK        -0.5000 
    105 CA        -4.7945  -15.6576  -48.7731 C.3       19 UNK         0.1400 
    106 CB        -6.1680  -15.1715  -49.2871 C.3       19 UNK        -0.1800 
    107 C         -3.6703  -15.6396  -49.8267 C.2       19 UNK         0.5000 
    108 O         -2.5317  -15.9519  -49.4822 O.2       19 UNK        -0.5000 
    109 N         -3.9952  -15.2975  -51.0808 N.am      20 UNK        -0.5000 
    110 CA        -3.0693  -15.3404  -52.2155 C.3       20 UNK         0.1400 
    111 CB        -3.7417  -14.6969  -53.4367 C.3       20 UNK        -0.1800 
    112 C         -2.5795  -16.7646  -52.5530 C.2       20 UNK         0.5000 
    113 O         -1.4929  -16.9062  -53.1153 O.2       20 UNK        -0.5000 
    114 N         -3.3790  -17.7781  -52.1843 N.am      21 UNK        -0.5000 
    115 CA        -3.1261  -19.2144  -52.2782 C.3       21 UNK         0.1400 
    116 CB        -2.1413  -19.6445  -51.1673 C.3       21 UNK        -0.1800 
    117 C         -2.7164  -19.6555  -53.6977 C.2       21 UNK         0.5000 
    118 O         -3.5766  -19.7504  -54.5740 O.2       21 UNK        -0.5000 
    119 N         -1.4194  -19.9093  -53.8931 N.am      22 UNK        -0.5000 
    120 CA        -0.7967  -20.2739  -55.1721 C.3       22 UNK         0.1400 
    121 C         -0.5545  -19.0805  -56.1446 C.2       22 UNK         0.5000 
    122 N         -0.7291  -17.8301  -55.7329 N.am      22 UNK        -0.7600 
    123 O         -0.2165  -19.2965  -57.3054 O.2       22 UNK        -0.5000 
    124 C124        0.4849  -21.1195  -54.9454 C.3       23 UNK        -0.0398 
    125 S125        1.7545  -20.2896  -53.9225 S.3       23 UNK        -0.2404 
    126 C126        1.4011  -20.9999  -52.2837 C.3       23 UNK        -0.0205 
    127 H127        2.9924  -10.2720  -51.3257 H         1 UNK         0.0600 
    128 H128        2.0572  -11.2426  -52.4671 H         1 UNK         0.0600 
    129 H129        1.3204   -9.8355  -51.6943 H         1 UNK         0.0600 
    130 H130        1.3998  -13.1668  -51.5690 H         1 UNK         0.3000 
    131 H131        1.6042  -13.8685  -48.8873 H         1 UNK         0.0600 
    132 H132        0.0162  -15.2028  -51.1366 H         1 UNK         0.0800 
    133 H133        0.2713  -15.9475  -49.5923 H         1 UNK         0.0800 
    134 H134        2.1316  -16.8628  -48.6690 H         1 UNK         0.0800 
    135 H135        3.7811  -16.5959  -49.1525 H         1 UNK         0.0800 
    136 H136        1.3800  -18.4258  -51.3929 H         1 UNK         0.1150 
    137 H137        3.2854  -22.2013  -50.7411 H         1 UNK         0.1150 
    138 H138        4.4917  -18.7833  -48.4595 H         1 UNK         0.1150 
    139 H139        4.7151  -22.5347  -48.9001 H         1 UNK         0.0800 
    140 H140        5.9599  -21.3433  -49.1742 H         1 UNK         0.0800 
    141 H141        2.6537  -20.7579  -47.2053 H         1 UNK         0.0800 
    142 H142        3.2679  -20.4323  -45.6242 H         1 UNK         0.0800 
    143 H143        3.6068  -23.0352  -45.3971 H         1 UNK         0.0600 
    144 H144        1.3743  -21.3969  -44.8020 H         1 UNK         0.3000 
    145 H145       -0.5019  -23.8140  -42.9669 H         1 UNK         0.0600 
    146 H146       -0.2521  -22.0595  -41.2235 H         1 UNK         0.0600 
    147 H147        1.2220  -23.0050  -41.3739 H         1 UNK         0.0600 
    148 H148        1.1431  -21.3898  -42.0651 H         1 UNK         0.0600 
    149 H149       -0.7820  -20.9912  -43.5749 H         1 UNK         0.3000 
    150 H150       -2.9276  -21.4711  -46.3890 H         1 UNK         0.0600 
    151 H151       -4.4807  -21.6667  -44.5094 H         1 UNK         0.0600 
    152 H152       -4.3349  -19.9587  -44.8975 H         1 UNK         0.0600 
    153 H153       -3.4989  -20.6135  -43.5012 H         1 UNK         0.0600 
    154 H154       -2.0960  -19.0897  -45.1276 H         1 UNK         0.3000 
    155 H155        1.0714  -18.6936  -46.7715 H         1 UNK         0.0600 
    156 H156       -1.6339  -17.2744  -47.0310 H         1 UNK         0.0600 
    157 H157       -0.6177  -17.8304  -48.3502 H         1 UNK         0.0600 
    158 H158       -0.0673  -16.5248  -47.3035 H         1 UNK         0.0600 
    159 H159       -0.2028  -17.0186  -44.8959 H         1 UNK         0.3000 
    160 H160        0.8676  -18.6281  -41.8805 H         1 UNK         0.0600 
    161 H161        1.6465  -16.2577  -41.5392 H         1 UNK         0.0600 
    162 H162        1.6867  -16.0340  -43.2887 H         1 UNK         0.0600 
    163 H163        2.7510  -17.2025  -42.5270 H         1 UNK         0.0600 
    164 H164       -0.7692  -16.3375  -42.6584 H         1 UNK         0.3000 
    165 H165       -3.8663  -18.0531  -42.4235 H         1 UNK         0.0600 
    166 H166       -4.3702  -16.3810  -40.6610 H         1 UNK         0.0600 
    167 H167       -3.3596  -17.6626  -40.0121 H         1 UNK         0.0600 
    168 H168       -2.6489  -16.0996  -40.3969 H         1 UNK         0.0600 
    169 H169       -3.0957  -15.2780  -42.6797 H         1 UNK         0.3000 
    170 H170       -2.9364  -15.2697  -46.2301 H         1 UNK         0.0600 
    171 H171       -5.4017  -15.1823  -45.6740 H         1 UNK         0.0600 
    172 H172       -5.0483  -14.1130  -44.3257 H         1 UNK         0.0600 
    173 H173       -4.7356  -13.5835  -45.9761 H         1 UNK         0.0600 
    174 H174       -2.7564  -13.0412  -44.6785 H         1 UNK         0.3000 
    175 H175       -0.7161  -12.4001  -43.2850 H         1 UNK         0.0600 
    176 H176        1.6886  -13.4933  -44.8514 H         1 UNK         0.0600 
    177 H177        1.7289  -12.0826  -43.7949 H         1 UNK         0.0600 
    178 H178        1.4005  -13.6692  -43.1215 H         1 UNK         0.0600 
    179 H179       -0.5326  -12.3267  -46.2316 H         1 UNK         0.3000 
    180 H180       -1.7346   -9.0779  -46.3297 H         1 UNK         0.0600 
    181 H181        1.2136   -9.5864  -46.9902 H         1 UNK         0.0600 
    182 H182        0.5722   -8.2425  -46.0561 H         1 UNK         0.0600 
    183 H183        0.1954   -8.3735  -47.7673 H         1 UNK         0.0600 
    184 H184       -0.5174  -10.8068  -48.3159 H         1 UNK         0.3000 
    185 H185       -3.1814  -13.0306  -48.6388 H         1 UNK         0.0600 
    186 H186       -4.3910  -11.1594  -49.7675 H         1 UNK         0.0600 
    187 H187       -2.9028  -10.6677  -50.5677 H         1 UNK         0.0600 
    188 H188       -3.6374  -12.2287  -50.9384 H         1 UNK         0.0600 
    189 H189       -1.1375  -12.4056  -50.5094 H         1 UNK         0.3000 
    190 H190        0.5881  -22.3879  -47.2136 H         1 UNK         0.3000 
    191 H191        1.2389  -24.3714  -49.2978 H         1 UNK         0.0600 
    192 H192       -1.1668  -22.4965  -49.0330 H         1 UNK         0.0600 
    193 H193       -0.6183  -23.3338  -50.4810 H         1 UNK         0.0600 
    194 H194        0.3458  -22.0327  -49.7968 H         1 UNK         0.0600 
    195 H195        0.5991  -25.2478  -46.4764 H         1 UNK         0.3000 
    196 H196       -2.0208  -26.0445  -46.1062 H         1 UNK         0.0600 
    197 H197       -1.0114  -27.6398  -44.3878 H         1 UNK         0.0600 
    198 H198       -0.4776  -25.9801  -44.2607 H         1 UNK         0.0600 
    199 H199        0.5812  -27.1915  -44.9896 H         1 UNK         0.0600 
    200 H200        0.1341  -27.5658  -48.3156 H         1 UNK         0.3000 
    201 H201       -1.0634  -30.1729  -48.4635 H         1 UNK         0.0600 
    202 H202        1.1562  -29.6603  -49.4542 H         1 UNK         0.0600 
    203 H203        0.4205  -28.5136  -50.5753 H         1 UNK         0.0600 
    204 H204        0.0557  -30.2306  -50.6986 H         1 UNK         0.0600 
    205 H205       -1.9652  -27.0005  -49.7134 H         1 UNK         0.3000 
    206 H206       -4.3918  -28.1205  -51.0710 H         1 UNK         0.0600 
    207 H207       -2.9646  -26.7417  -52.5648 H         1 UNK         0.0600 
    208 H208       -4.4701  -25.9053  -52.2164 H         1 UNK         0.0600 
    209 H209       -2.9858  -25.4132  -51.4075 H         1 UNK         0.0600 
    210 H210       -3.1111  -25.7348  -48.7587 H         1 UNK         0.3000 
    211 H211       -3.9040  -24.5302  -47.1055 H         1 UNK         0.0600 
    212 H212       -6.2319  -26.5111  -46.9083 H         1 UNK         0.0600 
    213 H213       -5.6861  -25.4065  -45.6534 H         1 UNK         0.0600 
    214 H214       -4.6481  -26.7271  -46.1648 H         1 UNK         0.0600 
    215 H215       -4.4779  -23.7114  -49.7117 H         1 UNK         0.3000 
    216 H216       -7.1427  -22.8878  -50.1555 H         1 UNK         0.0600 
    217 H217       -6.0780  -21.5272  -52.0038 H         1 UNK         0.0600 
    218 H218       -5.5433  -23.2003  -51.9848 H         1 UNK         0.0600 
    219 H219       -4.4915  -21.9345  -51.3568 H         1 UNK         0.0600 
    220 H220       -4.4652  -21.2328  -48.5976 H         1 UNK         0.3000 
    221 H221       -4.2073  -19.4222  -47.3620 H         1 UNK         0.0600 
    222 H222       -7.2502  -19.0666  -47.2119 H         1 UNK         0.0600 
    223 H223       -6.3605  -20.2106  -46.2132 H         1 UNK         0.0600 
    224 H224       -6.0502  -18.4888  -46.0674 H         1 UNK         0.0600 
    225 H225       -4.7126  -17.0100  -47.1529 H         1 UNK         0.3000 
    226 H226       -4.4777  -14.9632  -47.9985 H         1 UNK         0.0600 
    227 H227       -6.9000  -15.1614  -48.4794 H         1 UNK         0.0600 
    228 H228       -6.1077  -14.1529  -49.6726 H         1 UNK         0.0600 
    229 H229       -6.5644  -15.8080  -50.0790 H         1 UNK         0.0600 
    230 H230       -4.9563  -15.0684  -51.2880 H         1 UNK         0.3000 
    231 H231       -2.1937  -14.7430  -51.9558 H         1 UNK         0.0600 
    232 H232       -4.0219  -13.6629  -53.2345 H         1 UNK         0.0600 
    233 H233       -3.0668  -14.6878  -54.2938 H         1 UNK         0.0600 
    234 H234       -4.6409  -15.2384  -53.7329 H         1 UNK         0.0600 
    235 H235       -4.2372  -17.5443  -51.6991 H         1 UNK         0.3000 
    236 H236       -4.0809  -19.6995  -52.0742 H         1 UNK         0.0600 
    237 H237       -1.9460  -20.7168  -51.2049 H         1 UNK         0.0600 
    238 H238       -1.1876  -19.1202  -51.2343 H         1 UNK         0.0600 
    239 H239       -2.5556  -19.4316  -50.1816 H         1 UNK         0.0600 
    240 H240       -0.7769  -19.7213  -53.1391 H         1 UNK         0.3000 
    241 H241       -1.5022  -20.9212  -55.6966 H         1 UNK         0.0600 
    242 H242       -0.9919  -17.6230  -54.7721 H         1 UNK         0.3800 
    243 H243       -0.5716  -17.0727  -56.3777 H         1 UNK         0.3800 
    244 H244        0.2166  -22.0679  -54.4782 H         1 UNK         0.0800 
    245 H245        0.9377  -21.3898  -55.9009 H         1 UNK         0.0800 
    246 H246        0.3533  -20.8591  -52.0285 H         1 UNK         0.0800 
    247 H247        1.5616  -22.0785  -52.3259 H         1 UNK         0.0800 
@<TRIPOS>BOND
     1    1    2 1    
     2    1  127 1    
     3    1  128 1    
     4    1  129 1    
     5    2    3 2    
     6    2    4 am   BACKBONE|DICT|INTERRES
     7    4    5 1    
     8    4  130 1    
     9    5    6 1    
    10    5   65 1    
    11    5  131 1    
    12    6    7 1    
    13    6  132 1    
    14    6  133 1    
    15    7    8 1    
    16    8    9 1    
    17    8  134 1    
    18    8  135 1    
    19    9   10 ar   
    20    9   14 ar   
    21   10   11 ar   
    22   10  136 1    
    23   11   12 ar   
    24   11  126 1    
    25   12   13 ar   
    26   12  137 1    
    27   13   14 ar   
    28   13   15 1    
    29   14  138 1    
    30   15   16 1    
    31   15  139 1    
    32   15  140 1    
    33   16   17 1    
    34   17   18 1    
    35   17  141 1    
    36   17  142 1    
    37   18   19 1    
    38   18   67 1    
    39   18  143 1    
    40   19   20 am   BACKBONE|DICT|INTERRES
    41   19  144 1    
    42   20   21 2    
    43   20   22 1    
    44   22   23 1    
    45   22   24 1    
    46   22  145 1    
    47   23  146 1    
    48   23  147 1    
    49   23  148 1    
    50   24   25 am   BACKBONE|DICT|INTERRES
    51   24  149 1    
    52   25   26 2    
    53   25   27 1    
    54   27   28 1    
    55   27   29 1    
    56   27  150 1    
    57   28  151 1    
    58   28  152 1    
    59   28  153 1    
    60   29   30 am   BACKBONE|DICT|INTERRES
    61   29  154 1    
    62   30   31 2    
    63   30   32 1    
    64   32   33 1    
    65   32   34 1    
    66   32  155 1    
    67   33  156 1    
    68   33  157 1    
    69   33  158 1    
    70   34   35 am   BACKBONE|DICT|INTERRES
    71   34  159 1    
    72   35   36 2    
    73   35   37 1    
    74   37   38 1    
    75   37   39 1    
    76   37  160 1    
    77   38  161 1    
    78   38  162 1    
    79   38  163 1    
    80   39   40 am   BACKBONE|DICT|INTERRES
    81   39  164 1    
    82   40   41 2    
    83   40   42 1    
    84   42   43 1    
    85   42   44 1    
    86   42  165 1    
    87   43  166 1    
    88   43  167 1    
    89   43  168 1    
    90   44   45 am   BACKBONE|DICT|INTERRES
    91   44  169 1    
    92   45   46 2    
    93   45   47 1    
    94   47   48 1    
    95   47   49 1    
    96   47  170 1    
    97   48  171 1    
    98   48  172 1    
    99   48  173 1    
   100   49   50 am   BACKBONE|DICT|INTERRES
   101   49  174 1    
   102   50   51 2    
   103   50   52 1    
   104   52   53 1    
   105   52   54 1    
   106   52  175 1    
   107   53  176 1    
   108   53  177 1    
   109   53  178 1    
   110   54   55 am   BACKBONE|DICT|INTERRES
   111   54  179 1    
   112   55   56 2    
   113   55   57 1    
   114   57   58 1    
   115   57   59 1    
   116   57  180 1    
   117   58  181 1    
   118   58  182 1    
   119   58  183 1    
   120   59   60 am   BACKBONE|DICT|INTERRES
   121   59  184 1    
   122   60   61 2    
   123   60   62 1    
   124   62   63 1    
   125   62   64 1    
   126   62  185 1    
   127   63  186 1    
   128   63  187 1    
   129   63  188 1    
   130   64   65 am   BACKBONE|DICT|INTERRES
   131   64  189 1    
   132   65   66 2    
   133   67   68 2    
   134   67   69 am   BACKBONE|DICT|INTERRES
   135   69   70 1    
   136   69  190 1    
   137   70   71 1    
   138   70   72 1    
   139   70  191 1    
   140   71  192 1    
   141   71  193 1    
   142   71  194 1    
   143   72   73 2    
   144   72   74 am   BACKBONE|DICT|INTERRES
   145   74   75 1    
   146   74  195 1    
   147   75   76 1    
   148   75   77 1    
   149   75  196 1    
   150   76  197 1    
   151   76  198 1    
   152   76  199 1    
   153   77   78 2    
   154   77   79 am   BACKBONE|DICT|INTERRES
   155   79   80 1    
   156   79  200 1    
   157   80   81 1    
   158   80   82 1    
   159   80  201 1    
   160   81  202 1    
   161   81  203 1    
   162   81  204 1    
   163   82   83 2    
   164   82   84 am   BACKBONE|DICT|INTERRES
   165   84   85 1    
   166   84  205 1    
   167   85   86 1    
   168   85   87 1    
   169   85  206 1    
   170   86  207 1    
   171   86  208 1    
   172   86  209 1    
   173   87   88 2    
   174   87   89 am   BACKBONE|DICT|INTERRES
   175   89   90 1    
   176   89  210 1    
   177   90   91 1    
   178   90   92 1    
   179   90  211 1    
   180   91  212 1    
   181   91  213 1    
   182   91  214 1    
   183   92   93 2    
   184   92   94 am   BACKBONE|DICT|INTERRES
   185   94   95 1    
   186   94  215 1    
   187   95   96 1    
   188   95   97 1    
   189   95  216 1    
   190   96  217 1    
   191   96  218 1    
   192   96  219 1    
   193   97   98 2    
   194   97   99 am   BACKBONE|DICT|INTERRES
   195   99  100 1    
   196   99  220 1    
   197  100  101 1    
   198  100  102 1    
   199  100  221 1    
   200  101  222 1    
   201  101  223 1    
   202  101  224 1    
   203  102  103 2    
   204  102  104 am   BACKBONE|DICT|INTERRES
   205  104  105 1    
   206  104  225 1    
   207  105  106 1    
   208  105  107 1    
   209  105  226 1    
   210  106  227 1    
   211  106  228 1    
   212  106  229 1    
   213  107  108 2    
   214  107  109 am   BACKBONE|DICT|INTERRES
   215  109  110 1    
   216  109  230 1    
   217  110  111 1    
   218  110  112 1    
   219  110  231 1    
   220  111  232 1    
   221  111  233 1    
   222  111  234 1    
   223  112  113 2    
   224  112  114 am   BACKBONE|DICT|INTERRES
   225  114  115 1    
   226  114  235 1    
   227  115  116 1    
   228  115  117 1    
   229  115  236 1    
   230  116  237 1    
   231  116  238 1    
   232  116  239 1    
   233  117  118 2    
   234  117  119 am   BACKBONE|DICT|INTERRES
   235  119  120 1    
   236  119  240 1    
   237  120  121 1    
   238  120  124 1    
   239  120  241 1    
   240  121  122 am   BACKBONE|DICT|INTERRES
   241  121  123 2    
   242  122  242 1    
   243  122  243 1    
   244  124  125 1    
   245  124  244 1    
   246  124  245 1    
   247  125  126 1    
   248  126  246 1    
   249  126  247 1    
@<TRIPOS>SUBSTRUCTURE
     1 UNK         1 GROUP             0       ****    0 ROOT    
