@<TRIPOS>MOLECULE
3R540
247   249    1
SMALL
USER_CHARGES


@<TRIPOS>ATOM
      1 CA         -2.6063  -19.1201  -46.3959 C.3       0 UNK        -0.1800 
      2 C          -1.9952  -17.7460  -46.6210 C.2       0 UNK         0.5000 
      3 O          -2.6683  -16.8567  -47.1401 O.2       0 UNK        -0.5000 
      4 N          -0.7281  -17.5661  -46.2277 N.am      1 UNK        -0.5000 
      5 CA          0.0398  -16.3327  -46.4424 C.3       1 UNK         0.1400 
      6 C6          1.5255  -16.6423  -46.7480 C.3       23 UNK        -0.0398 
      7 S7          2.2591  -15.4739  -47.9457 S.3       23 UNK        -0.2404 
      8 C8          3.5403  -16.4880  -48.7571 C.3       23 UNK        -0.0205 
      9 C9          2.9464  -17.7062  -49.4480 C.ar      23 UNK        -0.0193 
     10 C10         2.1253  -17.5516  -50.5661 C.ar      23 UNK        -0.1150 
     11 C11         1.4968  -18.6570  -51.1466 C.ar      23 UNK        -0.0193 
     12 C12         1.7105  -19.9321  -50.6104 C.ar      23 UNK        -0.1150 
     13 C13         2.5529  -20.1002  -49.5055 C.ar      23 UNK        -0.0193 
     14 C14         3.1780  -18.9861  -48.9405 C.ar      23 UNK        -0.1150 
     15 C15         2.7889  -21.4749  -48.8990 C.3       23 UNK        -0.0205 
     16 S16         2.0326  -21.6128  -47.2466 S.3       23 UNK        -0.2404 
     17 C17         0.2619  -21.7473  -47.6594 C.3       23 UNK        -0.0398 
     18 CA         -0.3881  -22.9666  -46.9651 C.3       11 UNK         0.1400 
     19 N          -0.3729  -22.8493  -45.5028 N.am      11 UNK        -0.5000 
     20 C          -0.7581  -23.8113  -44.6527 C.2       10 UNK         0.5000 
     21 O          -1.1205  -24.9285  -45.0162 O.2       10 UNK        -0.5000 
     22 CA         -0.8022  -23.4665  -43.1524 C.3       10 UNK         0.1400 
     23 CB          0.4604  -23.9892  -42.4517 C.3       10 UNK        -0.1800 
     24 N          -0.9578  -22.0418  -42.8466 N.am      10 UNK        -0.5000 
     25 C          -1.9349  -21.2267  -43.2733 C.2       9 UNK         0.5000 
     26 O          -2.8269  -21.5790  -44.0456 O.2       9 UNK        -0.5000 
     27 CA         -1.8976  -19.7676  -42.7692 C.3       9 UNK         0.1400 
     28 CB         -2.9962  -19.5445  -41.7191 C.3       9 UNK        -0.1800 
     29 N          -0.6024  -19.3863  -42.1965 N.am      9 UNK        -0.5000 
     30 C           0.5259  -19.1999  -42.8954 C.2       8 UNK         0.5000 
     31 O           0.5758  -19.2219  -44.1293 O.2       8 UNK        -0.5000 
     32 CA          1.8019  -19.0355  -42.0441 C.3       8 UNK         0.1400 
     33 CB          2.1391  -20.3530  -41.3234 C.3       8 UNK        -0.1800 
     34 N           2.9728  -18.6374  -42.8220 N.am      8 UNK        -0.5000 
     35 C           3.1911  -17.4117  -43.3054 C.2       7 UNK         0.5000 
     36 O           2.4168  -16.4625  -43.1453 O.2       7 UNK        -0.5000 
     37 CA          4.5017  -17.2123  -44.0877 C.3       7 UNK         0.1400 
     38 CB          4.6513  -18.2063  -45.2580 C.3       7 UNK        -0.1800 
     39 N           4.5323  -15.8368  -44.5680 N.am      7 UNK        -0.5000 
     40 C           5.6121  -15.1291  -44.9159 C.2       6 UNK         0.5000 
     41 O           6.7485  -15.5996  -44.9770 O.2       6 UNK        -0.5000 
     42 CA          5.3899  -13.6341  -45.2257 C.3       6 UNK         0.1400 
     43 CB          5.4066  -13.3770  -46.7400 C.3       6 UNK        -0.1800 
     44 N           4.1340  -13.1249  -44.6676 N.am      6 UNK        -0.5000 
     45 C           3.9481  -12.8037  -43.3788 C.2       5 UNK         0.5000 
     46 O           4.8464  -12.8420  -42.5365 O.2       5 UNK        -0.5000 
     47 CA          2.5167  -12.4146  -42.9542 C.3       5 UNK         0.1400 
     48 CB          2.4821  -11.3689  -41.8209 C.3       5 UNK        -0.1800 
     49 N           1.6599  -12.0222  -44.0769 N.am      5 UNK        -0.5000 
     50 C           1.7268  -10.9192  -44.8372 C.2       4 UNK         0.5000 
     51 O           2.5491  -10.0166  -44.6814 O.2       4 UNK        -0.5000 
     52 CA          0.6977  -10.8197  -45.9785 C.3       4 UNK         0.1400 
     53 CB          1.2814  -11.4089  -47.2728 C.3       4 UNK        -0.1800 
     54 N          -0.5401  -11.5291  -45.6477 N.am      4 UNK        -0.5000 
     55 C          -1.5932  -10.9785  -45.0278 C.2       3 UNK         0.5000 
     56 O          -1.6783   -9.7802  -44.7561 O.2       3 UNK        -0.5000 
     57 CA         -2.7420  -11.9283  -44.6293 C.3       3 UNK         0.1400 
     58 CB         -3.7500  -12.0685  -45.7800 C.3       3 UNK        -0.1800 
     59 N          -2.2729  -13.2595  -44.2386 N.am      3 UNK        -0.5000 
     60 C          -1.5646  -13.5243  -43.1314 C.2       2 UNK         0.5000 
     61 O          -1.3134  -12.6850  -42.2667 O.2       2 UNK        -0.5000 
     62 CA         -1.0124  -14.9564  -42.9708 C.3       2 UNK         0.1400 
     63 CB         -1.8888  -15.7692  -42.0076 C.3       2 UNK        -0.1800 
     64 N          -0.8551  -15.7085  -44.2210 N.am      2 UNK        -0.5000 
     65 C          -0.0921  -15.3455  -45.2628 C.2       1 UNK         0.5000 
     66 O           0.4982  -14.2668  -45.3137 O.2       1 UNK        -0.5000 
     67 C          -1.8015  -23.2238  -47.5300 C.2       11 UNK         0.5000 
     68 O          -1.9174  -23.8968  -48.5546 O.2       11 UNK        -0.5000 
     69 N          -2.8511  -22.7221  -46.8609 N.am      12 UNK        -0.5000 
     70 CA         -4.2414  -22.9915  -47.2322 C.3       12 UNK         0.1400 
     71 CB         -5.1726  -21.9871  -46.5382 C.3       12 UNK        -0.1800 
     72 C          -4.6500  -24.4382  -46.9016 C.2       12 UNK         0.5000 
     73 O          -5.3035  -25.0860  -47.7187 O.2       12 UNK        -0.5000 
     74 N          -4.2210  -24.9299  -45.7300 N.am      13 UNK        -0.5000 
     75 CA         -4.4580  -26.2971  -45.2582 C.3       13 UNK         0.1400 
     76 CB         -4.1185  -26.3868  -43.7624 C.3       13 UNK        -0.1800 
     77 C          -3.6682  -27.3454  -46.0642 C.2       13 UNK         0.5000 
     78 O          -4.1958  -28.4197  -46.3522 O.2       13 UNK        -0.5000 
     79 N          -2.4330  -26.9948  -46.4470 N.am      14 UNK        -0.5000 
     80 CA         -1.5535  -27.7824  -47.3146 C.3       14 UNK         0.1400 
     81 CB         -0.1210  -27.2424  -47.1778 C.3       14 UNK        -0.1800 
     82 C          -1.9839  -27.7796  -48.7968 C.2       14 UNK         0.5000 
     83 O          -1.4297  -28.5485  -49.5826 O.2       14 UNK        -0.5000 
     84 N          -2.9403  -26.9081  -49.1507 N.am      15 UNK        -0.5000 
     85 CA         -3.5068  -26.6774  -50.4827 C.3       15 UNK         0.1400 
     86 CB         -4.1838  -27.9495  -51.0351 C.3       15 UNK        -0.1800 
     87 C          -2.5185  -26.0380  -51.4817 C.2       15 UNK         0.5000 
     88 O          -2.7466  -26.0920  -52.6908 O.2       15 UNK        -0.5000 
     89 N          -1.4636  -25.3982  -50.9617 N.am      16 UNK        -0.5000 
     90 CA         -0.5210  -24.5779  -51.7223 C.3       16 UNK         0.1400 
     91 CB          0.7737  -24.4223  -50.9101 C.3       16 UNK        -0.1800 
     92 C          -1.1186  -23.1999  -52.0641 C.2       16 UNK         0.5000 
     93 O          -0.7930  -22.6373  -53.1081 O.2       16 UNK        -0.5000 
     94 N          -1.9997  -22.7050  -51.1863 N.am      17 UNK        -0.5000 
     95 CA         -2.7644  -21.4700  -51.3313 C.3       17 UNK         0.1400 
     96 CB         -2.3513  -20.4954  -50.2139 C.3       17 UNK        -0.1800 
     97 C          -4.2720  -21.7900  -51.3158 C.2       17 UNK         0.5000 
     98 O          -5.0372  -21.1210  -50.6208 O.2       17 UNK        -0.5000 
     99 N          -4.6696  -22.8433  -52.0466 N.am      18 UNK        -0.5000 
    100 CA        -6.0533  -23.3215  -52.1277 C.3       18 UNK         0.1400 
    101 CB        -6.0868  -24.7026  -52.8013 C.3       18 UNK        -0.1800 
    102 C         -6.9833  -22.3452  -52.8694 C.2       18 UNK         0.5000 
    103 O         -8.0613  -22.0250  -52.3666 O.2       18 UNK        -0.5000 
    104 N         -6.5486  -21.8987  -54.0550 N.am      19 UNK        -0.5000 
    105 CA        -7.2559  -20.9133  -54.8720 C.3       19 UNK         0.1400 
    106 CB        -6.7630  -21.0179  -56.3239 C.3       19 UNK        -0.1800 
    107 C         -7.0291  -19.4929  -54.3303 C.2       19 UNK         0.5000 
    108 O         -5.9578  -19.2172  -53.7833 O.2       19 UNK        -0.5000 
    109 N         -8.0103  -18.6067  -54.5491 N.am      20 UNK        -0.5000 
    110 CA        -8.0260  -17.2101  -54.0917 C.3       20 UNK         0.1400 
    111 CB        -9.3958  -16.5961  -54.4197 C.3       20 UNK        -0.1800 
    112 C         -6.8928  -16.3285  -54.6582 C.2       20 UNK         0.5000 
    113 O         -6.5511  -15.3147  -54.0494 O.2       20 UNK        -0.5000 
    114 N         -6.3053  -16.7477  -55.7866 N.am      21 UNK        -0.5000 
    115 CA        -5.1125  -16.1574  -56.4008 C.3       21 UNK         0.1400 
    116 CB        -5.1103  -16.5255  -57.8945 C.3       21 UNK        -0.1800 
    117 C         -3.7919  -16.5922  -55.7205 C.2       21 UNK         0.5000 
    118 O         -2.7186  -16.2671  -56.2299 O.2       21 UNK        -0.5000 
    119 N         -3.8875  -17.3274  -54.6048 N.am      22 UNK        -0.5000 
    120 CA        -2.8034  -18.0226  -53.9014 C.3       22 UNK         0.1400 
    121 C         -2.3937  -19.3152  -54.6577 C.2       22 UNK         0.5000 
    122 N         -3.3449  -20.2143  -54.8778 N.am      22 UNK        -0.7600 
    123 O         -1.2499  -19.5030  -55.0618 O.2       22 UNK        -0.5000 
    124 C124       -1.6235  -17.1008  -53.4834 C.3       23 UNK        -0.0398 
    125 S125       -0.9297  -17.5597  -51.8609 S.3       23 UNK        -0.2404 
    126 C126        0.5806  -18.4533  -52.3429 C.3       23 UNK        -0.0205 
    127 H127       -3.4412  -19.0549  -45.6984 H         1 UNK         0.0600 
    128 H128       -1.8779  -19.8245  -45.9972 H         1 UNK         0.0600 
    129 H129       -2.9822  -19.5179  -47.3374 H         1 UNK         0.0600 
    130 H130       -0.2355  -18.3046  -45.7323 H         1 UNK         0.3000 
    131 H131       -0.3796  -15.8226  -47.3124 H         1 UNK         0.0600 
    132 H132        2.1261  -16.6385  -45.8423 H         1 UNK         0.0800 
    133 H133        1.6095  -17.6509  -47.1494 H         1 UNK         0.0800 
    134 H134        4.0630  -15.8761  -49.4934 H         1 UNK         0.0800 
    135 H135        4.2857  -16.7812  -48.0164 H         1 UNK         0.0800 
    136 H136        1.9423  -16.5622  -50.9617 H         1 UNK         0.1150 
    137 H137        1.2193  -20.7892  -51.0499 H         1 UNK         0.1150 
    138 H138        3.8161  -19.1177  -48.0786 H         1 UNK         0.1150 
    139 H139        2.4133  -22.2649  -49.5497 H         1 UNK         0.0800 
    140 H140        3.8631  -21.6415  -48.8075 H         1 UNK         0.0800 
    141 H141        0.1552  -21.8215  -48.7429 H         1 UNK         0.0800 
    142 H142       -0.2317  -20.8188  -47.3718 H         1 UNK         0.0800 
    143 H143        0.2056  -23.8469  -47.2190 H         1 UNK         0.0600 
    144 H144       -0.0650  -21.9653  -45.1240 H         1 UNK         0.3000 
    145 H145       -1.6668  -23.9832  -42.7314 H         1 UNK         0.0600 
    146 H146        0.4048  -23.8424  -41.3729 H         1 UNK         0.0600 
    147 H147        0.5899  -25.0585  -42.6255 H         1 UNK         0.0600 
    148 H148        1.3581  -23.4870  -42.8145 H         1 UNK         0.0600 
    149 H149       -0.2756  -21.6524  -42.2150 H         1 UNK         0.3000 
    150 H150       -2.1019  -19.1137  -43.6169 H         1 UNK         0.0600 
    151 H151       -2.8419  -20.1665  -40.8364 H         1 UNK         0.0600 
    152 H152       -3.9790  -19.7894  -42.1244 H         1 UNK         0.0600 
    153 H153       -3.0335  -18.5053  -41.3942 H         1 UNK         0.0600 
    154 H154       -0.5618  -19.3444  -41.1879 H         1 UNK         0.3000 
    155 H155        1.6085  -18.2657  -41.2937 H         1 UNK         0.0600 
    156 H156        2.3186  -21.1639  -42.0307 H         1 UNK         0.0600 
    157 H157        1.3333  -20.6669  -40.6591 H         1 UNK         0.0600 
    158 H158        3.0321  -20.2459  -40.7071 H         1 UNK         0.0600 
    159 H159        3.6370  -19.3681  -43.0295 H         1 UNK         0.3000 
    160 H160        5.3281  -17.3530  -43.3881 H         1 UNK         0.0600 
    161 H161        3.7797  -18.2034  -45.9092 H         1 UNK         0.0600 
    162 H162        4.7772  -19.2262  -44.8943 H         1 UNK         0.0600 
    163 H163        5.5246  -17.9787  -45.8691 H         1 UNK         0.0600 
    164 H164        3.6459  -15.3573  -44.4726 H         1 UNK         0.3000 
    165 H165        6.2207  -13.0813  -44.7821 H         1 UNK         0.0600 
    166 H166        5.3166  -12.3130  -46.9597 H         1 UNK         0.0600 
    167 H167        6.3404  -13.7228  -47.1850 H         1 UNK         0.0600 
    168 H168        4.5923  -13.8927  -47.2463 H         1 UNK         0.0600 
    169 H169        3.3432  -13.0725  -45.2931 H         1 UNK         0.3000 
    170 H170        2.0736  -13.3302  -42.5596 H         1 UNK         0.0600 
    171 H171        2.9715  -11.7492  -40.9236 H         1 UNK         0.0600 
    172 H172        2.9909  -10.4465  -42.1014 H         1 UNK         0.0600 
    173 H173        1.4565  -11.1194  -41.5481 H         1 UNK         0.0600 
    174 H174        1.0041  -12.7389  -44.3751 H         1 UNK         0.3000 
    175 H175        0.4857   -9.7624  -46.1510 H         1 UNK         0.0600 
    176 H176        2.2008  -10.8950  -47.5565 H         1 UNK         0.0600 
    177 H177        1.5177  -12.4682  -47.1662 H         1 UNK         0.0600 
    178 H178        0.5820  -11.3051  -48.1024 H         1 UNK         0.0600 
    179 H179       -0.5281  -12.5319  -45.7890 H         1 UNK         0.3000 
    180 H180       -3.2586  -11.4850  -43.7752 H         1 UNK         0.0600 
    181 H181       -3.2973  -12.5294  -46.6589 H         1 UNK         0.0600 
    182 H182       -4.1354  -11.0937  -46.0820 H         1 UNK         0.0600 
    183 H183       -4.6047  -12.6770  -45.4839 H         1 UNK         0.0600 
    184 H184       -2.4423  -14.0126  -44.8890 H         1 UNK         0.3000 
    185 H185       -0.0196  -14.8634  -42.5257 H         1 UNK         0.0600 
    186 H186       -2.0501  -15.2315  -41.0723 H         1 UNK         0.0600 
    187 H187       -2.8679  -15.9848  -42.4369 H         1 UNK         0.0600 
    188 H188       -1.4126  -16.7150  -41.7535 H         1 UNK         0.0600 
    189 H189       -1.3088  -16.6078  -44.2676 H         1 UNK         0.3000 
    190 H190       -2.7016  -22.2174  -45.9932 H         1 UNK         0.3000 
    191 H191       -4.3463  -22.8534  -48.3105 H         1 UNK         0.0600 
    192 H192       -4.9381  -20.9647  -46.8324 H         1 UNK         0.0600 
    193 H193       -6.2130  -22.1696  -46.8103 H         1 UNK         0.0600 
    194 H194       -5.1017  -22.0501  -45.4520 H         1 UNK         0.0600 
    195 H195       -3.6572  -24.3381  -45.1377 H         1 UNK         0.3000 
    196 H196       -5.5209  -26.5171  -45.3786 H         1 UNK         0.0600 
    197 H197       -4.3262  -27.3854  -43.3760 H         1 UNK         0.0600 
    198 H198       -4.7134  -25.6832  -43.1798 H         1 UNK         0.0600 
    199 H199       -3.0660  -26.1752  -43.5716 H         1 UNK         0.0600 
    200 H200       -2.0459  -26.1265  -46.0840 H         1 UNK         0.3000 
    201 H201       -1.5663  -28.8183  -46.9700 H         1 UNK         0.0600 
    202 H202        0.5822  -27.8415  -47.7576 H         1 UNK         0.0600 
    203 H203        0.2127  -27.2642  -46.1402 H         1 UNK         0.0600 
    204 H204       -0.0463  -26.2144  -47.5326 H         1 UNK         0.0600 
    205 H205       -3.3159  -26.3182  -48.4206 H         1 UNK         0.3000 
    206 H206       -4.2885  -25.9332  -50.3282 H         1 UNK         0.0600 
    207 H207       -4.8870  -28.3656  -50.3135 H         1 UNK         0.0600 
    208 H208       -4.7448  -27.7346  -51.9449 H         1 UNK         0.0600 
    209 H209       -3.4566  -28.7234  -51.2811 H         1 UNK         0.0600 
    210 H210       -1.4047  -25.3322  -49.9526 H         1 UNK         0.3000 
    211 H211       -0.2818  -25.0854  -52.6592 H         1 UNK         0.0600 
    212 H212        0.5897  -23.9521  -49.9443 H         1 UNK         0.0600 
    213 H213        1.4993  -23.8081  -51.4449 H         1 UNK         0.0600 
    214 H214        1.2398  -25.3903  -50.7255 H         1 UNK         0.0600 
    215 H215       -2.1801  -23.2423  -50.3432 H         1 UNK         0.3000 
    216 H216       -2.5477  -20.9975  -52.2889 H         1 UNK         0.0600 
    217 H217       -2.8698  -19.5411  -50.3130 H         1 UNK         0.0600 
    218 H218       -1.2825  -20.2862  -50.2473 H         1 UNK         0.0600 
    219 H219       -2.5852  -20.8960  -49.2286 H         1 UNK         0.0600 
    220 H220       -3.9780  -23.3506  -52.5795 H         1 UNK         0.3000 
    221 H221       -6.4333  -23.4336  -51.1097 H         1 UNK         0.0600 
    222 H222       -5.6377  -24.6826  -53.7950 H         1 UNK         0.0600 
    223 H223       -5.5538  -25.4435  -52.2108 H         1 UNK         0.0600 
    224 H224       -7.1116  -25.0599  -52.9112 H         1 UNK         0.0600 
    225 H225       -5.6448  -22.2017  -54.3836 H         1 UNK         0.3000 
    226 H226       -8.3251  -21.1352  -54.8507 H         1 UNK         0.0600 
    227 H227       -7.3016  -20.3245  -56.9711 H         1 UNK         0.0600 
    228 H228       -5.7008  -20.7891  -56.4130 H         1 UNK         0.0600 
    229 H229       -6.9234  -22.0201  -56.7221 H         1 UNK         0.0600 
    230 H230       -8.8415  -18.9185  -55.0310 H         1 UNK         0.3000 
    231 H231       -7.9085  -17.2211  -53.0061 H         1 UNK         0.0600 
    232 H232       -9.5848  -16.5864  -55.4939 H         1 UNK         0.0600 
    233 H233       -9.4586  -15.5659  -54.0662 H         1 UNK         0.0600 
    234 H234      -10.2027  -17.1507  -53.9404 H         1 UNK         0.0600 
    235 H235       -6.6573  -17.5908  -56.2151 H         1 UNK         0.3000 
    236 H236       -5.1748  -15.0704  -56.3185 H         1 UNK         0.0600 
    237 H237       -6.0261  -16.1937  -58.3842 H         1 UNK         0.0600 
    238 H238       -4.2778  -16.0521  -58.4166 H         1 UNK         0.0600 
    239 H239       -5.0208  -17.6026  -58.0421 H         1 UNK         0.0600 
    240 H240       -4.8156  -17.5904  -54.2956 H         1 UNK         0.3000 
    241 H241       -3.2764  -18.3716  -52.9820 H         1 UNK         0.0600 
    242 H242       -4.2885  -20.0315  -54.5581 H         1 UNK         0.3800 
    243 H243       -3.1183  -21.0554  -55.3837 H         1 UNK         0.3800 
    244 H244       -0.8454  -17.0584  -54.2469 H         1 UNK         0.0800 
    245 H245       -1.9779  -16.0749  -53.3765 H         1 UNK         0.0800 
    246 H246        0.3065  -19.4106  -52.7893 H         1 UNK         0.0800 
    247 H247        1.1165  -17.8907  -53.1086 H         1 UNK         0.0800 
@<TRIPOS>BOND
     1    1    2 1    
     2    1  127 1    
     3    1  128 1    
     4    1  129 1    
     5    2    3 2    
     6    2    4 am   BACKBONE|DICT|INTERRES
     7    4    5 1    
     8    4  130 1    
     9    5    6 1    
    10    5   65 1    
    11    5  131 1    
    12    6    7 1    
    13    6  132 1    
    14    6  133 1    
    15    7    8 1    
    16    8    9 1    
    17    8  134 1    
    18    8  135 1    
    19    9   10 ar   
    20    9   14 ar   
    21   10   11 ar   
    22   10  136 1    
    23   11   12 ar   
    24   11  126 1    
    25   12   13 ar   
    26   12  137 1    
    27   13   14 ar   
    28   13   15 1    
    29   14  138 1    
    30   15   16 1    
    31   15  139 1    
    32   15  140 1    
    33   16   17 1    
    34   17   18 1    
    35   17  141 1    
    36   17  142 1    
    37   18   19 1    
    38   18   67 1    
    39   18  143 1    
    40   19   20 am   BACKBONE|DICT|INTERRES
    41   19  144 1    
    42   20   21 2    
    43   20   22 1    
    44   22   23 1    
    45   22   24 1    
    46   22  145 1    
    47   23  146 1    
    48   23  147 1    
    49   23  148 1    
    50   24   25 am   BACKBONE|DICT|INTERRES
    51   24  149 1    
    52   25   26 2    
    53   25   27 1    
    54   27   28 1    
    55   27   29 1    
    56   27  150 1    
    57   28  151 1    
    58   28  152 1    
    59   28  153 1    
    60   29   30 am   BACKBONE|DICT|INTERRES
    61   29  154 1    
    62   30   31 2    
    63   30   32 1    
    64   32   33 1    
    65   32   34 1    
    66   32  155 1    
    67   33  156 1    
    68   33  157 1    
    69   33  158 1    
    70   34   35 am   BACKBONE|DICT|INTERRES
    71   34  159 1    
    72   35   36 2    
    73   35   37 1    
    74   37   38 1    
    75   37   39 1    
    76   37  160 1    
    77   38  161 1    
    78   38  162 1    
    79   38  163 1    
    80   39   40 am   BACKBONE|DICT|INTERRES
    81   39  164 1    
    82   40   41 2    
    83   40   42 1    
    84   42   43 1    
    85   42   44 1    
    86   42  165 1    
    87   43  166 1    
    88   43  167 1    
    89   43  168 1    
    90   44   45 am   BACKBONE|DICT|INTERRES
    91   44  169 1    
    92   45   46 2    
    93   45   47 1    
    94   47   48 1    
    95   47   49 1    
    96   47  170 1    
    97   48  171 1    
    98   48  172 1    
    99   48  173 1    
   100   49   50 am   BACKBONE|DICT|INTERRES
   101   49  174 1    
   102   50   51 2    
   103   50   52 1    
   104   52   53 1    
   105   52   54 1    
   106   52  175 1    
   107   53  176 1    
   108   53  177 1    
   109   53  178 1    
   110   54   55 am   BACKBONE|DICT|INTERRES
   111   54  179 1    
   112   55   56 2    
   113   55   57 1    
   114   57   58 1    
   115   57   59 1    
   116   57  180 1    
   117   58  181 1    
   118   58  182 1    
   119   58  183 1    
   120   59   60 am   BACKBONE|DICT|INTERRES
   121   59  184 1    
   122   60   61 2    
   123   60   62 1    
   124   62   63 1    
   125   62   64 1    
   126   62  185 1    
   127   63  186 1    
   128   63  187 1    
   129   63  188 1    
   130   64   65 am   BACKBONE|DICT|INTERRES
   131   64  189 1    
   132   65   66 2    
   133   67   68 2    
   134   67   69 am   BACKBONE|DICT|INTERRES
   135   69   70 1    
   136   69  190 1    
   137   70   71 1    
   138   70   72 1    
   139   70  191 1    
   140   71  192 1    
   141   71  193 1    
   142   71  194 1    
   143   72   73 2    
   144   72   74 am   BACKBONE|DICT|INTERRES
   145   74   75 1    
   146   74  195 1    
   147   75   76 1    
   148   75   77 1    
   149   75  196 1    
   150   76  197 1    
   151   76  198 1    
   152   76  199 1    
   153   77   78 2    
   154   77   79 am   BACKBONE|DICT|INTERRES
   155   79   80 1    
   156   79  200 1    
   157   80   81 1    
   158   80   82 1    
   159   80  201 1    
   160   81  202 1    
   161   81  203 1    
   162   81  204 1    
   163   82   83 2    
   164   82   84 am   BACKBONE|DICT|INTERRES
   165   84   85 1    
   166   84  205 1    
   167   85   86 1    
   168   85   87 1    
   169   85  206 1    
   170   86  207 1    
   171   86  208 1    
   172   86  209 1    
   173   87   88 2    
   174   87   89 am   BACKBONE|DICT|INTERRES
   175   89   90 1    
   176   89  210 1    
   177   90   91 1    
   178   90   92 1    
   179   90  211 1    
   180   91  212 1    
   181   91  213 1    
   182   91  214 1    
   183   92   93 2    
   184   92   94 am   BACKBONE|DICT|INTERRES
   185   94   95 1    
   186   94  215 1    
   187   95   96 1    
   188   95   97 1    
   189   95  216 1    
   190   96  217 1    
   191   96  218 1    
   192   96  219 1    
   193   97   98 2    
   194   97   99 am   BACKBONE|DICT|INTERRES
   195   99  100 1    
   196   99  220 1    
   197  100  101 1    
   198  100  102 1    
   199  100  221 1    
   200  101  222 1    
   201  101  223 1    
   202  101  224 1    
   203  102  103 2    
   204  102  104 am   BACKBONE|DICT|INTERRES
   205  104  105 1    
   206  104  225 1    
   207  105  106 1    
   208  105  107 1    
   209  105  226 1    
   210  106  227 1    
   211  106  228 1    
   212  106  229 1    
   213  107  108 2    
   214  107  109 am   BACKBONE|DICT|INTERRES
   215  109  110 1    
   216  109  230 1    
   217  110  111 1    
   218  110  112 1    
   219  110  231 1    
   220  111  232 1    
   221  111  233 1    
   222  111  234 1    
   223  112  113 2    
   224  112  114 am   BACKBONE|DICT|INTERRES
   225  114  115 1    
   226  114  235 1    
   227  115  116 1    
   228  115  117 1    
   229  115  236 1    
   230  116  237 1    
   231  116  238 1    
   232  116  239 1    
   233  117  118 2    
   234  117  119 am   BACKBONE|DICT|INTERRES
   235  119  120 1    
   236  119  240 1    
   237  120  121 1    
   238  120  124 1    
   239  120  241 1    
   240  121  122 am   BACKBONE|DICT|INTERRES
   241  121  123 2    
   242  122  242 1    
   243  122  243 1    
   244  124  125 1    
   245  124  244 1    
   246  124  245 1    
   247  125  126 1    
   248  126  246 1    
   249  126  247 1    
@<TRIPOS>SUBSTRUCTURE
     1 UNK         1 GROUP             0       ****    0 ROOT    
