@<TRIPOS>MOLECULE
3R540
247   249    1
SMALL
USER_CHARGES


@<TRIPOS>ATOM
      1 CA          1.1114   -7.0126  -45.7476 C.3       0 UNK        -0.1800 
      2 C           1.4433   -8.4710  -46.0304 C.2       0 UNK         0.5000 
      3 O           2.4699   -8.7563  -46.6449 O.2       0 UNK        -0.5000 
      4 N           0.5762   -9.3914  -45.5882 N.am      1 UNK        -0.5000 
      5 CA          0.7440  -10.8427  -45.7344 C.3       1 UNK         0.1400 
      6 C6         -0.5990  -11.5778  -45.5000 C.3       23 UNK        -0.0398 
      7 S7         -0.6152  -13.2923  -46.1275 S.3       23 UNK        -0.2404 
      8 C8         -1.6892  -13.1285  -47.5831 C.3       23 UNK        -0.0205 
      9 C9         -2.0660  -14.4863  -48.1530 C.ar      23 UNK        -0.0193 
     10 C10        -1.2950  -15.0718  -49.1600 C.ar      23 UNK        -0.1150 
     11 C11        -1.6771  -16.2919  -49.7265 C.ar      23 UNK        -0.0193 
     12 C12        -2.8188  -16.9463  -49.2515 C.ar      23 UNK        -0.1150 
     13 C13        -3.5970  -16.3718  -48.2429 C.ar      23 UNK        -0.0193 
     14 C14        -3.2150  -15.1404  -47.7005 C.ar      23 UNK        -0.1150 
     15 C15        -4.8739  -17.0516  -47.7683 C.3       23 UNK        -0.0205 
     16 S16        -4.7820  -17.4666  -46.0003 S.3       23 UNK        -0.2404 
     17 C17        -5.0604  -19.2698  -45.9527 C.3       23 UNK        -0.0398 
     18 CA         -4.0185  -20.1343  -46.7082 C.3       11 UNK         0.1400 
     19 N          -2.6258  -19.7807  -46.4122 N.am      11 UNK        -0.5000 
     20 C          -1.5910  -20.1868  -47.1623 C.2       10 UNK         0.5000 
     21 O          -1.7089  -20.9170  -48.1468 O.2       10 UNK        -0.5000 
     22 CA         -0.1862  -19.7364  -46.7360 C.3       10 UNK         0.1400 
     23 CB          0.0652  -18.2824  -47.1553 C.3       10 UNK        -0.1800 
     24 N           0.0904  -19.8999  -45.3087 N.am      10 UNK        -0.5000 
     25 C           0.1190  -21.0754  -44.6647 C.2       9 UNK         0.5000 
     26 O          -0.2234  -22.1409  -45.1743 O.2       9 UNK        -0.5000 
     27 CA          0.6159  -21.0648  -43.2111 C.3       9 UNK         0.1400 
     28 CB          2.1414  -20.8840  -43.1608 C.3       9 UNK        -0.1800 
     29 N          -0.0227  -19.9908  -42.4594 N.am      9 UNK        -0.5000 
     30 C          -1.0726  -20.1509  -41.6440 C.2       8 UNK         0.5000 
     31 O          -1.5490  -21.2465  -41.3448 O.2       8 UNK        -0.5000 
     32 CA         -1.7200  -18.8695  -41.0778 C.3       8 UNK         0.1400 
     33 CB         -1.1401  -18.5419  -39.6934 C.3       8 UNK        -0.1800 
     34 N          -1.5802  -17.6940  -41.9420 N.am      8 UNK        -0.5000 
     35 C          -2.0337  -17.6054  -43.2003 C.2       7 UNK         0.5000 
     36 O          -2.6263  -18.5157  -43.7783 O.2       7 UNK        -0.5000 
     37 CA         -1.7183  -16.3029  -43.9601 C.3       7 UNK         0.1400 
     38 CB         -2.7748  -15.2356  -43.6325 C.3       7 UNK        -0.1800 
     39 N          -0.3806  -15.7408  -43.7224 N.am      7 UNK        -0.5000 
     40 C           0.7906  -16.3944  -43.7393 C.2       6 UNK         0.5000 
     41 O           0.8940  -17.6155  -43.8604 O.2       6 UNK        -0.5000 
     42 CA          2.0530  -15.5233  -43.6000 C.3       6 UNK         0.1400 
     43 CB          3.1276  -16.1818  -42.7113 C.3       6 UNK        -0.1800 
     44 N           2.5933  -15.1453  -44.9089 N.am      6 UNK        -0.5000 
     45 C           3.1042  -15.9437  -45.8608 C.2       5 UNK         0.5000 
     46 O           3.2900  -17.1531  -45.7321 O.2       5 UNK        -0.5000 
     47 CA          3.5157  -15.2725  -47.1798 C.3       5 UNK         0.1400 
     48 CB          2.3110  -15.0847  -48.1177 C.3       5 UNK        -0.1800 
     49 N           4.1701  -13.9878  -46.9422 N.am      5 UNK        -0.5000 
     50 C           5.1738  -13.4941  -47.6763 C.2       4 UNK         0.5000 
     51 O           5.6398  -14.0519  -48.6710 O.2       4 UNK        -0.5000 
     52 CA          5.7709  -12.1536  -47.2113 C.3       4 UNK         0.1400 
     53 CB          4.9472  -10.9804  -47.7620 C.3       4 UNK        -0.1800 
     54 N           5.8499  -12.0416  -45.7548 N.am      4 UNK        -0.5000 
     55 C           6.6519  -12.7610  -44.9596 C.2       3 UNK         0.5000 
     56 O           7.4549  -13.5928  -45.3838 O.2       3 UNK        -0.5000 
     57 CA          6.5402  -12.5413  -43.4346 C.3       3 UNK         0.1400 
     58 CB          7.5778  -11.5134  -42.9435 C.3       3 UNK        -0.1800 
     59 N           5.1884  -12.2183  -42.9515 N.am      3 UNK        -0.5000 
     60 C           4.4579  -11.1172  -43.1725 C.2       2 UNK         0.5000 
     61 O           4.8488  -10.1411  -43.8154 O.2       2 UNK        -0.5000 
     62 CA          3.0214  -11.1353  -42.6207 C.3       2 UNK         0.1400 
     63 CB          2.8868  -10.1846  -41.4219 C.3       2 UNK        -0.1800 
     64 N           2.0364  -10.7676  -43.6393 N.am      2 UNK        -0.5000 
     65 C           1.8533  -11.3946  -44.8116 C.2       1 UNK         0.5000 
     66 O           2.5103  -12.3736  -45.1715 O.2       1 UNK        -0.5000 
     67 C          -4.2797  -21.6292  -46.4387 C.2       11 UNK         0.5000 
     68 O          -5.0298  -22.2632  -47.1819 O.2       11 UNK        -0.5000 
     69 N          -3.6297  -22.1671  -45.3958 N.am      12 UNK        -0.5000 
     70 CA         -3.6690  -23.5812  -45.0344 C.3       12 UNK         0.1400 
     71 CB         -3.0179  -23.7869  -43.6582 C.3       12 UNK        -0.1800 
     72 C          -3.0051  -24.4585  -46.1072 C.2       12 UNK         0.5000 
     73 O          -3.6111  -25.4362  -46.5407 O.2       12 UNK        -0.5000 
     74 N          -1.8038  -24.0651  -46.5542 N.am      13 UNK        -0.5000 
     75 CA         -1.0533  -24.7212  -47.6254 C.3       13 UNK         0.1400 
     76 CB          0.3322  -24.0721  -47.7599 C.3       13 UNK        -0.1800 
     77 C          -1.7966  -24.7019  -48.9715 C.2       13 UNK         0.5000 
     78 O          -1.8643  -25.7364  -49.6356 O.2       13 UNK        -0.5000 
     79 N          -2.3781  -23.5446  -49.3229 N.am      14 UNK        -0.5000 
     80 CA         -3.1939  -23.3430  -50.5224 C.3       14 UNK         0.1400 
     81 CB         -3.6530  -21.8783  -50.5871 C.3       14 UNK        -0.1800 
     82 C          -4.4114  -24.2813  -50.5933 C.2       14 UNK         0.5000 
     83 O          -4.7087  -24.8067  -51.6689 O.2       14 UNK        -0.5000 
     84 N          -5.0720  -24.4786  -49.4447 N.am      15 UNK        -0.5000 
     85 CA         -6.1993  -25.3900  -49.2797 C.3       15 UNK         0.1400 
     86 CB         -6.9646  -25.0277  -47.9978 C.3       15 UNK        -0.1800 
     87 C          -5.7590  -26.8637  -49.2588 C.2       15 UNK         0.5000 
     88 O          -6.3568  -27.6780  -49.9615 O.2       15 UNK        -0.5000 
     89 N          -4.7214  -27.1817  -48.4705 N.am      16 UNK        -0.5000 
     90 CA         -4.2049  -28.5388  -48.2664 C.3       16 UNK         0.1400 
     91 CB         -3.1563  -28.5319  -47.1439 C.3       16 UNK        -0.1800 
     92 C          -3.6219  -29.1746  -49.5393 C.2       16 UNK         0.5000 
     93 O          -3.8473  -30.3608  -49.7824 O.2       16 UNK        -0.5000 
     94 N          -2.9097  -28.3730  -50.3421 N.am      17 UNK        -0.5000 
     95 CA         -2.3808  -28.7791  -51.6455 C.3       17 UNK         0.1400 
     96 CB         -1.2413  -27.8244  -52.0371 C.3       17 UNK        -0.1800 
     97 C          -3.4555  -28.7988  -52.7506 C.2       17 UNK         0.5000 
     98 O          -3.1961  -29.3398  -53.8260 O.2       17 UNK        -0.5000 
     99 N          -4.6143  -28.1728  -52.4847 N.am      18 UNK        -0.5000 
    100 CA        -5.7161  -27.8892  -53.4131 C.3       18 UNK         0.1400 
    101 CB        -6.4074  -29.1917  -53.8652 C.3       18 UNK        -0.1800 
    102 C         -5.2797  -26.9927  -54.5931 C.2       18 UNK         0.5000 
    103 O         -5.8449  -27.0774  -55.6849 O.2       18 UNK        -0.5000 
    104 N         -4.2629  -26.1575  -54.3465 N.am      19 UNK        -0.5000 
    105 CA        -3.6448  -25.2688  -55.3238 C.3       19 UNK         0.1400 
    106 CB        -2.1983  -24.9876  -54.8859 C.3       19 UNK        -0.1800 
    107 C         -4.4185  -23.9517  -55.4801 C.2       19 UNK         0.5000 
    108 O         -4.3901  -23.3670  -56.5634 O.2       19 UNK        -0.5000 
    109 N         -5.0706  -23.5043  -54.3933 N.am      20 UNK        -0.5000 
    110 CA        -5.7967  -22.2336  -54.2678 C.3       20 UNK         0.1400 
    111 CB        -7.0756  -22.2475  -55.1304 C.3       20 UNK        -0.1800 
    112 C         -4.8982  -21.0036  -54.5342 C.2       20 UNK         0.5000 
    113 O         -5.3413  -20.0237  -55.1393 O.2       20 UNK        -0.5000 
    114 N         -3.6364  -21.0940  -54.0855 N.am      21 UNK        -0.5000 
    115 CA        -2.6064  -20.0632  -54.2090 C.3       21 UNK         0.1400 
    116 CB        -1.3051  -20.5646  -53.5638 C.3       21 UNK        -0.1800 
    117 C         -3.0450  -18.7242  -53.5898 C.2       21 UNK         0.5000 
    118 O         -3.6199  -18.7133  -52.4993 O.2       21 UNK        -0.5000 
    119 N         -2.7791  -17.6376  -54.3221 N.am      22 UNK        -0.5000 
    120 CA        -3.2252  -16.2605  -54.0451 C.3       22 UNK         0.1400 
    121 C         -4.7483  -16.0094  -54.2796 C.2       22 UNK         0.5000 
    122 N         -5.5320  -16.9703  -54.7570 N.am      22 UNK        -0.7600 
    123 O         -5.2291  -14.9010  -54.0588 O.2       22 UNK        -0.5000 
    124 C124       -2.7612  -15.7065  -52.6689 C.3       23 UNK        -0.0398 
    125 S125       -0.9592  -15.8412  -52.3788 S.3       23 UNK        -0.2404 
    126 C126       -0.8815  -16.8843  -50.8820 C.3       23 UNK        -0.0205 
    127 H127        1.9020   -6.5577  -45.1508 H         1 UNK         0.0600 
    128 H128        0.1719   -6.9074  -45.2046 H         1 UNK         0.0600 
    129 H129        1.0274   -6.4590  -46.6828 H         1 UNK         0.0600 
    130 H130       -0.2561   -9.0879  -45.1025 H         1 UNK         0.3000 
    131 H131        1.0568  -11.0319  -46.7639 H         1 UNK         0.0600 
    132 H132       -0.8559  -11.5941  -44.4392 H         1 UNK         0.0800 
    133 H133       -1.4068  -11.0277  -45.9843 H         1 UNK         0.0800 
    134 H134       -1.1831  -12.5272  -48.3400 H         1 UNK         0.0800 
    135 H135       -2.5960  -12.5858  -47.3115 H         1 UNK         0.0800 
    136 H136       -0.4148  -14.5634  -49.5277 H         1 UNK         0.1150 
    137 H137       -3.1185  -17.8879  -49.6911 H         1 UNK         0.1150 
    138 H138       -3.8194  -14.6876  -46.9269 H         1 UNK         0.1150 
    139 H139       -5.7129  -16.3723  -47.9240 H         1 UNK         0.0800 
    140 H140       -5.0907  -17.9386  -48.3636 H         1 UNK         0.0800 
    141 H141       -6.0623  -19.4679  -46.3376 H         1 UNK         0.0800 
    142 H142       -5.0840  -19.5481  -44.8973 H         1 UNK         0.0800 
    143 H143       -4.1714  -19.9768  -47.7773 H         1 UNK         0.0600 
    144 H144       -2.4704  -19.2150  -45.5825 H         1 UNK         0.3000 
    145 H145        0.5306  -20.3622  -47.2717 H         1 UNK         0.0600 
    146 H146        1.0771  -17.9730  -46.9026 H         1 UNK         0.0600 
    147 H147       -0.0483  -18.1663  -48.2329 H         1 UNK         0.0600 
    148 H148       -0.6276  -17.5916  -46.6766 H         1 UNK         0.0600 
    149 H149        0.3943  -19.0656  -44.8106 H         1 UNK         0.3000 
    150 H150        0.3793  -22.0346  -42.7682 H         1 UNK         0.0600 
    151 H151        2.6460  -21.6726  -43.7202 H         1 UNK         0.0600 
    152 H152        2.5074  -20.9270  -42.1350 H         1 UNK         0.0600 
    153 H153        2.4526  -19.9285  -43.5858 H         1 UNK         0.0600 
    154 H154        0.2710  -19.0483  -42.6968 H         1 UNK         0.3000 
    155 H155       -2.7876  -19.0682  -40.9646 H         1 UNK         0.0600 
    156 H156       -0.0775  -18.3022  -39.7499 H         1 UNK         0.0600 
    157 H157       -1.2503  -19.3877  -39.0133 H         1 UNK         0.0600 
    158 H158       -1.6535  -17.6937  -39.2402 H         1 UNK         0.0600 
    159 H159       -1.0832  -16.9046  -41.5571 H         1 UNK         0.3000 
    160 H160       -1.7908  -16.5240  -45.0256 H         1 UNK         0.0600 
    161 H161       -2.6789  -14.3674  -44.2833 H         1 UNK         0.0600 
    162 H162       -2.6948  -14.8932  -42.6003 H         1 UNK         0.0600 
    163 H163       -3.7840  -15.6257  -43.7699 H         1 UNK         0.0600 
    164 H164       -0.3536  -14.7352  -43.6412 H         1 UNK         0.3000 
    165 H165        1.7625  -14.5911  -43.1130 H         1 UNK         0.0600 
    166 H166        4.0035  -15.5409  -42.6124 H         1 UNK         0.0600 
    167 H167        2.7403  -16.3636  -41.7083 H         1 UNK         0.0600 
    168 H168        3.4598  -17.1420  -43.1066 H         1 UNK         0.0600 
    169 H169        2.4765  -14.1593  -45.1326 H         1 UNK         0.3000 
    170 H170        4.2216  -15.9506  -47.6646 H         1 UNK         0.0600 
    171 H171        1.7812  -16.0245  -48.2749 H         1 UNK         0.0600 
    172 H172        1.5978  -14.3675  -47.7132 H         1 UNK         0.0600 
    173 H173        2.6265  -14.7230  -49.0962 H         1 UNK         0.0600 
    174 H174        3.8327  -13.4412  -46.1566 H         1 UNK         0.3000 
    175 H175        6.7841  -12.0797  -47.6118 H         1 UNK         0.0600 
    176 H176        4.9027  -11.0106  -48.8513 H         1 UNK         0.0600 
    177 H177        5.3837  -10.0222  -47.4796 H         1 UNK         0.0600 
    178 H178        3.9218  -11.0022  -47.3908 H         1 UNK         0.0600 
    179 H179        5.2555  -11.3478  -45.3131 H         1 UNK         0.3000 
    180 H180        6.7899  -13.4975  -42.9718 H         1 UNK         0.0600 
    181 H181        7.4289  -10.5326  -43.3954 H         1 UNK         0.0600 
    182 H182        8.5894  -11.8342  -43.1952 H         1 UNK         0.0600 
    183 H183        7.5346  -11.3953  -41.8608 H         1 UNK         0.0600 
    184 H184        4.7508  -12.9644  -42.4297 H         1 UNK         0.3000 
    185 H185        2.7827  -12.1466  -42.2853 H         1 UNK         0.0600 
    186 H186        3.5966  -10.4449  -40.6355 H         1 UNK         0.0600 
    187 H187        3.0778   -9.1491  -41.7068 H         1 UNK         0.0600 
    188 H188        1.8884  -10.2351  -40.9870 H         1 UNK         0.0600 
    189 H189        1.4827   -9.9460  -43.4495 H         1 UNK         0.3000 
    190 H190       -3.0054  -21.5775  -44.8645 H         1 UNK         0.3000 
    191 H191       -4.7167  -23.8807  -44.9608 H         1 UNK         0.0600 
    192 H192       -1.9698  -23.4876  -43.6522 H         1 UNK         0.0600 
    193 H193       -3.0605  -24.8355  -43.3611 H         1 UNK         0.0600 
    194 H194       -3.5317  -23.2100  -42.8889 H         1 UNK         0.0600 
    195 H195       -1.3543  -23.2633  -46.1172 H         1 UNK         0.3000 
    196 H196       -0.9125  -25.7653  -47.3396 H         1 UNK         0.0600 
    197 H197        0.9120  -24.5467  -48.5525 H         1 UNK         0.0600 
    198 H198        0.9030  -24.1694  -46.8363 H         1 UNK         0.0600 
    199 H199        0.2580  -23.0097  -47.9955 H         1 UNK         0.0600 
    200 H200       -2.2343  -22.7283  -48.7351 H         1 UNK         0.3000 
    201 H201       -2.5647  -23.5485  -51.3904 H         1 UNK         0.0600 
    202 H202       -2.8054  -21.1969  -50.6510 H         1 UNK         0.0600 
    203 H203       -4.2321  -21.6001  -49.7070 H         1 UNK         0.0600 
    204 H204       -4.2845  -21.6966  -51.4557 H         1 UNK         0.0600 
    205 H205       -4.7686  -23.9782  -48.6178 H         1 UNK         0.3000 
    206 H206       -6.8769  -25.2550  -50.1256 H         1 UNK         0.0600 
    207 H207       -7.3437  -24.0065  -48.0426 H         1 UNK         0.0600 
    208 H208       -7.8209  -25.6876  -47.8533 H         1 UNK         0.0600 
    209 H209       -6.3330  -25.1081  -47.1123 H         1 UNK         0.0600 
    210 H210       -4.2957  -26.4534  -47.9001 H         1 UNK         0.3000 
    211 H211       -5.0406  -29.1624  -47.9425 H         1 UNK         0.0600 
    212 H212       -2.3151  -27.8814  -47.3855 H         1 UNK         0.0600 
    213 H213       -2.7598  -29.5331  -46.9706 H         1 UNK         0.0600 
    214 H214       -3.5877  -28.1874  -46.2040 H         1 UNK         0.0600 
    215 H215       -2.7227  -27.4155  -50.0528 H         1 UNK         0.3000 
    216 H216       -1.9692  -29.7872  -51.5634 H         1 UNK         0.0600 
    217 H217       -0.7800  -28.1281  -52.9776 H         1 UNK         0.0600 
    218 H218       -0.4576  -27.8132  -51.2794 H         1 UNK         0.0600 
    219 H219       -1.5992  -26.8018  -52.1632 H         1 UNK         0.0600 
    220 H220       -4.7386  -27.7990  -51.5529 H         1 UNK         0.3000 
    221 H221       -6.4451  -27.3074  -52.8472 H         1 UNK         0.0600 
    222 H222       -7.3139  -28.9764  -54.4320 H         1 UNK         0.0600 
    223 H223       -6.6987  -29.7992  -53.0083 H         1 UNK         0.0600 
    224 H224       -5.7605  -29.7959  -54.5016 H         1 UNK         0.0600 
    225 H225       -3.9120  -26.1120  -53.3996 H         1 UNK         0.3000 
    226 H226       -3.6198  -25.7654  -56.2963 H         1 UNK         0.0600 
    227 H227       -1.6188  -25.9094  -54.8296 H         1 UNK         0.0600 
    228 H228       -1.6949  -24.3307  -55.5966 H         1 UNK         0.0600 
    229 H229       -2.1574  -24.5067  -53.9076 H         1 UNK         0.0600 
    230 H230       -5.0289  -24.0709  -53.5517 H         1 UNK         0.3000 
    231 H231       -6.1069  -22.1611  -53.2245 H         1 UNK         0.0600 
    232 H232       -7.6899  -23.1203  -54.9094 H         1 UNK         0.0600 
    233 H233       -6.8464  -22.2597  -56.1963 H         1 UNK         0.0600 
    234 H234       -7.6862  -21.3646  -54.9379 H         1 UNK         0.0600 
    235 H235       -3.3655  -21.9385  -53.6080 H         1 UNK         0.3000 
    236 H236       -2.4259  -19.9173  -55.2761 H         1 UNK         0.0600 
    237 H237       -0.9655  -21.4922  -54.0251 H         1 UNK         0.0600 
    238 H238       -0.5059  -19.8317  -53.6817 H         1 UNK         0.0600 
    239 H239       -1.4256  -20.7441  -52.4957 H         1 UNK         0.0600 
    240 H240       -2.3030  -17.7576  -55.2046 H         1 UNK         0.3000 
    241 H241       -2.7337  -15.6548  -54.8072 H         1 UNK         0.0600 
    242 H242       -6.5075  -16.7722  -54.9126 H         1 UNK         0.3800 
    243 H243       -5.1866  -17.9077  -54.9234 H         1 UNK         0.3800 
    244 H244       -3.3132  -16.1993  -51.8699 H         1 UNK         0.0800 
    245 H245       -3.0137  -14.6483  -52.5855 H         1 UNK         0.0800 
    246 H246        0.1607  -16.9943  -50.5799 H         1 UNK         0.0800 
    247 H247       -1.2391  -17.8857  -51.1265 H         1 UNK         0.0800 
@<TRIPOS>BOND
     1    1    2 1    
     2    1  127 1    
     3    1  128 1    
     4    1  129 1    
     5    2    3 2    
     6    2    4 am   BACKBONE|DICT|INTERRES
     7    4    5 1    
     8    4  130 1    
     9    5    6 1    
    10    5   65 1    
    11    5  131 1    
    12    6    7 1    
    13    6  132 1    
    14    6  133 1    
    15    7    8 1    
    16    8    9 1    
    17    8  134 1    
    18    8  135 1    
    19    9   10 ar   
    20    9   14 ar   
    21   10   11 ar   
    22   10  136 1    
    23   11   12 ar   
    24   11  126 1    
    25   12   13 ar   
    26   12  137 1    
    27   13   14 ar   
    28   13   15 1    
    29   14  138 1    
    30   15   16 1    
    31   15  139 1    
    32   15  140 1    
    33   16   17 1    
    34   17   18 1    
    35   17  141 1    
    36   17  142 1    
    37   18   19 1    
    38   18   67 1    
    39   18  143 1    
    40   19   20 am   BACKBONE|DICT|INTERRES
    41   19  144 1    
    42   20   21 2    
    43   20   22 1    
    44   22   23 1    
    45   22   24 1    
    46   22  145 1    
    47   23  146 1    
    48   23  147 1    
    49   23  148 1    
    50   24   25 am   BACKBONE|DICT|INTERRES
    51   24  149 1    
    52   25   26 2    
    53   25   27 1    
    54   27   28 1    
    55   27   29 1    
    56   27  150 1    
    57   28  151 1    
    58   28  152 1    
    59   28  153 1    
    60   29   30 am   BACKBONE|DICT|INTERRES
    61   29  154 1    
    62   30   31 2    
    63   30   32 1    
    64   32   33 1    
    65   32   34 1    
    66   32  155 1    
    67   33  156 1    
    68   33  157 1    
    69   33  158 1    
    70   34   35 am   BACKBONE|DICT|INTERRES
    71   34  159 1    
    72   35   36 2    
    73   35   37 1    
    74   37   38 1    
    75   37   39 1    
    76   37  160 1    
    77   38  161 1    
    78   38  162 1    
    79   38  163 1    
    80   39   40 am   BACKBONE|DICT|INTERRES
    81   39  164 1    
    82   40   41 2    
    83   40   42 1    
    84   42   43 1    
    85   42   44 1    
    86   42  165 1    
    87   43  166 1    
    88   43  167 1    
    89   43  168 1    
    90   44   45 am   BACKBONE|DICT|INTERRES
    91   44  169 1    
    92   45   46 2    
    93   45   47 1    
    94   47   48 1    
    95   47   49 1    
    96   47  170 1    
    97   48  171 1    
    98   48  172 1    
    99   48  173 1    
   100   49   50 am   BACKBONE|DICT|INTERRES
   101   49  174 1    
   102   50   51 2    
   103   50   52 1    
   104   52   53 1    
   105   52   54 1    
   106   52  175 1    
   107   53  176 1    
   108   53  177 1    
   109   53  178 1    
   110   54   55 am   BACKBONE|DICT|INTERRES
   111   54  179 1    
   112   55   56 2    
   113   55   57 1    
   114   57   58 1    
   115   57   59 1    
   116   57  180 1    
   117   58  181 1    
   118   58  182 1    
   119   58  183 1    
   120   59   60 am   BACKBONE|DICT|INTERRES
   121   59  184 1    
   122   60   61 2    
   123   60   62 1    
   124   62   63 1    
   125   62   64 1    
   126   62  185 1    
   127   63  186 1    
   128   63  187 1    
   129   63  188 1    
   130   64   65 am   BACKBONE|DICT|INTERRES
   131   64  189 1    
   132   65   66 2    
   133   67   68 2    
   134   67   69 am   BACKBONE|DICT|INTERRES
   135   69   70 1    
   136   69  190 1    
   137   70   71 1    
   138   70   72 1    
   139   70  191 1    
   140   71  192 1    
   141   71  193 1    
   142   71  194 1    
   143   72   73 2    
   144   72   74 am   BACKBONE|DICT|INTERRES
   145   74   75 1    
   146   74  195 1    
   147   75   76 1    
   148   75   77 1    
   149   75  196 1    
   150   76  197 1    
   151   76  198 1    
   152   76  199 1    
   153   77   78 2    
   154   77   79 am   BACKBONE|DICT|INTERRES
   155   79   80 1    
   156   79  200 1    
   157   80   81 1    
   158   80   82 1    
   159   80  201 1    
   160   81  202 1    
   161   81  203 1    
   162   81  204 1    
   163   82   83 2    
   164   82   84 am   BACKBONE|DICT|INTERRES
   165   84   85 1    
   166   84  205 1    
   167   85   86 1    
   168   85   87 1    
   169   85  206 1    
   170   86  207 1    
   171   86  208 1    
   172   86  209 1    
   173   87   88 2    
   174   87   89 am   BACKBONE|DICT|INTERRES
   175   89   90 1    
   176   89  210 1    
   177   90   91 1    
   178   90   92 1    
   179   90  211 1    
   180   91  212 1    
   181   91  213 1    
   182   91  214 1    
   183   92   93 2    
   184   92   94 am   BACKBONE|DICT|INTERRES
   185   94   95 1    
   186   94  215 1    
   187   95   96 1    
   188   95   97 1    
   189   95  216 1    
   190   96  217 1    
   191   96  218 1    
   192   96  219 1    
   193   97   98 2    
   194   97   99 am   BACKBONE|DICT|INTERRES
   195   99  100 1    
   196   99  220 1    
   197  100  101 1    
   198  100  102 1    
   199  100  221 1    
   200  101  222 1    
   201  101  223 1    
   202  101  224 1    
   203  102  103 2    
   204  102  104 am   BACKBONE|DICT|INTERRES
   205  104  105 1    
   206  104  225 1    
   207  105  106 1    
   208  105  107 1    
   209  105  226 1    
   210  106  227 1    
   211  106  228 1    
   212  106  229 1    
   213  107  108 2    
   214  107  109 am   BACKBONE|DICT|INTERRES
   215  109  110 1    
   216  109  230 1    
   217  110  111 1    
   218  110  112 1    
   219  110  231 1    
   220  111  232 1    
   221  111  233 1    
   222  111  234 1    
   223  112  113 2    
   224  112  114 am   BACKBONE|DICT|INTERRES
   225  114  115 1    
   226  114  235 1    
   227  115  116 1    
   228  115  117 1    
   229  115  236 1    
   230  116  237 1    
   231  116  238 1    
   232  116  239 1    
   233  117  118 2    
   234  117  119 am   BACKBONE|DICT|INTERRES
   235  119  120 1    
   236  119  240 1    
   237  120  121 1    
   238  120  124 1    
   239  120  241 1    
   240  121  122 am   BACKBONE|DICT|INTERRES
   241  121  123 2    
   242  122  242 1    
   243  122  243 1    
   244  124  125 1    
   245  124  244 1    
   246  124  245 1    
   247  125  126 1    
   248  126  246 1    
   249  126  247 1    
@<TRIPOS>SUBSTRUCTURE
     1 UNK         1 GROUP             0       ****    0 ROOT    
