@<TRIPOS>MOLECULE
3R540
247   249    1
SMALL
USER_CHARGES


@<TRIPOS>ATOM
      1 CA         -1.5197  -11.5755  -44.5365 C.3       0 UNK        -0.1800 
      2 C          -0.4892  -11.2117  -45.5954 C.2       0 UNK         0.5000 
      3 O           0.5431  -10.6243  -45.2704 O.2       0 UNK        -0.5000 
      4 N          -0.7472  -11.5831  -46.8574 N.am      1 UNK        -0.5000 
      5 CA          0.1189  -11.3352  -48.0227 C.3       1 UNK         0.1400 
      6 C6         -0.5962  -11.6815  -49.3536 C.3       23 UNK        -0.0398 
      7 S7         -1.1150  -13.4307  -49.4844 S.3       23 UNK        -0.2404 
      8 C8          0.0539  -14.0441  -50.7372 C.3       23 UNK        -0.0205 
      9 C9          0.0037  -15.5596  -50.8341 C.ar      23 UNK        -0.0193 
     10 C10        -1.0092  -16.1863  -51.5665 C.ar      23 UNK        -0.1150 
     11 C11        -1.0748  -17.5808  -51.6356 C.ar      23 UNK        -0.0193 
     12 C12        -0.1161  -18.3484  -50.9696 C.ar      23 UNK        -0.1150 
     13 C13         0.9034  -17.7330  -50.2380 C.ar      23 UNK        -0.0193 
     14 C14         0.9622  -16.3377  -50.1781 C.ar      23 UNK        -0.1150 
     15 C15         1.9166  -18.5820  -49.4840 C.3       23 UNK        -0.0205 
     16 S16         1.7649  -18.4166  -47.6747 S.3       23 UNK        -0.2404 
     17 C17         0.0063  -18.8088  -47.3806 C.3       23 UNK        -0.0398 
     18 CA         -0.2351  -20.3047  -47.0846 C.3       11 UNK         0.1400 
     19 N           0.3500  -20.7248  -45.8043 N.am      11 UNK        -0.5000 
     20 C           0.3609  -21.9781  -45.3261 C.2       10 UNK         0.5000 
     21 O          -0.1180  -22.9406  -45.9257 O.2       10 UNK        -0.5000 
     22 CA          0.9560  -22.1807  -43.9216 C.3       10 UNK         0.1400 
     23 CB          2.4921  -22.1975  -43.9597 C.3       10 UNK        -0.1800 
     24 N           0.4879  -21.1490  -42.9958 N.am      10 UNK        -0.5000 
     25 C          -0.7255  -21.1517  -42.4254 C.2       9 UNK         0.5000 
     26 O          -1.5291  -22.0767  -42.5439 O.2       9 UNK        -0.5000 
     27 CA         -1.1271  -19.9121  -41.6005 C.3       9 UNK         0.1400 
     28 CB         -0.7596  -20.1065  -40.1220 C.3       9 UNK        -0.1800 
     29 N          -0.5333  -18.6657  -42.0866 N.am      9 UNK        -0.5000 
     30 C          -0.7804  -18.1159  -43.2838 C.2       8 UNK         0.5000 
     31 O          -1.5799  -18.5793  -44.0962 O.2       8 UNK        -0.5000 
     32 CA          0.0555  -16.8795  -43.6653 C.3       8 UNK         0.1400 
     33 CB         -0.5719  -15.5945  -43.1061 C.3       8 UNK        -0.1800 
     34 N           1.4516  -16.9781  -43.2344 N.am      8 UNK        -0.5000 
     35 C           2.3048  -17.9377  -43.6222 C.2       7 UNK         0.5000 
     36 O           1.9991  -18.8487  -44.3880 O.2       7 UNK        -0.5000 
     37 CA          3.7080  -17.9215  -42.9958 C.3       7 UNK         0.1400 
     38 CB          4.6084  -16.8634  -43.6488 C.3       7 UNK        -0.1800 
     39 N           3.6373  -17.6926  -41.5554 N.am      7 UNK        -0.5000 
     40 C           3.2133  -18.6060  -40.6707 C.2       6 UNK         0.5000 
     41 O           2.9036  -19.7592  -40.9706 O.2       6 UNK        -0.5000 
     42 CA          3.0845  -18.1382  -39.2097 C.3       6 UNK         0.1400 
     43 CB          4.4164  -18.3151  -38.4654 C.3       6 UNK        -0.1800 
     44 N           2.6512  -16.7435  -39.1013 N.am      6 UNK        -0.5000 
     45 C           1.4378  -16.2998  -39.4582 C.2       5 UNK         0.5000 
     46 O           0.5468  -17.0243  -39.9002 O.2       5 UNK        -0.5000 
     47 CA          1.2001  -14.7837  -39.3445 C.3       5 UNK         0.1400 
     48 CB          0.8031  -14.4034  -37.9102 C.3       5 UNK        -0.1800 
     49 N           2.3584  -13.9863  -39.7595 N.am      5 UNK        -0.5000 
     50 C           2.8430  -13.9536  -41.0069 C.2       4 UNK         0.5000 
     51 O           2.3983  -14.6337  -41.9346 O.2       4 UNK        -0.5000 
     52 CA          4.0353  -13.0283  -41.2649 C.3       4 UNK         0.1400 
     53 CB          5.3643  -13.7946  -41.1454 C.3       4 UNK        -0.1800 
     54 N           3.8828  -12.4719  -42.6038 N.am      4 UNK        -0.5000 
     55 C           4.4421  -11.3429  -43.0501 C.2       3 UNK         0.5000 
     56 O           5.2296  -10.6714  -42.3809 O.2       3 UNK        -0.5000 
     57 CA          4.0213  -10.8461  -44.4504 C.3       3 UNK         0.1400 
     58 CB          5.1922  -10.2143  -45.2328 C.3       3 UNK        -0.1800 
     59 N           3.3050  -11.8329  -45.2692 N.am      3 UNK        -0.5000 
     60 C           3.7932  -12.9470  -45.8401 C.2       2 UNK         0.5000 
     61 O           4.9467  -13.3469  -45.6840 O.2       2 UNK        -0.5000 
     62 CA          2.8348  -13.7629  -46.7373 C.3       2 UNK         0.1400 
     63 CB          2.4405  -15.0766  -46.0513 C.3       2 UNK        -0.1800 
     64 N           1.6057  -13.0507  -47.0805 N.am      2 UNK        -0.5000 
     65 C           1.5048  -12.0168  -47.9264 C.2       1 UNK         0.5000 
     66 O           2.4457  -11.5846  -48.5929 O.2       1 UNK        -0.5000 
     67 C          -1.7411  -20.6197  -47.1912 C.2       11 UNK         0.5000 
     68 O          -2.2097  -20.9485  -48.2813 O.2       11 UNK        -0.5000 
     69 N          -2.4636  -20.5663  -46.0632 N.am      12 UNK        -0.5000 
     70 CA         -3.8847  -20.9022  -45.9351 C.3       12 UNK         0.1400 
     71 CB         -4.3283  -20.6536  -44.4856 C.3       12 UNK        -0.1800 
     72 C          -4.2552  -22.3359  -46.3733 C.2       12 UNK         0.5000 
     73 O          -5.4193  -22.5815  -46.6882 O.2       12 UNK        -0.5000 
     74 N          -3.2736  -23.2492  -46.4100 N.am      13 UNK        -0.5000 
     75 CA         -3.4305  -24.6079  -46.9300 C.3       13 UNK         0.1400 
     76 CB         -2.3077  -25.4919  -46.3655 C.3       13 UNK        -0.1800 
     77 C          -3.4454  -24.6750  -48.4720 C.2       13 UNK         0.5000 
     78 O          -3.8509  -25.7043  -49.0121 O.2       13 UNK        -0.5000 
     79 N          -3.0001  -23.6072  -49.1506 N.am      14 UNK        -0.5000 
     80 CA         -2.9451  -23.5038  -50.6094 C.3       14 UNK         0.1400 
     81 CB         -1.5004  -23.2037  -51.0363 C.3       14 UNK        -0.1800 
     82 C          -3.9001  -22.4282  -51.1504 C.2       14 UNK         0.5000 
     83 O          -4.5064  -22.6360  -52.2037 O.2       14 UNK        -0.5000 
     84 N          -4.0225  -21.3086  -50.4223 N.am      15 UNK        -0.5000 
     85 CA         -4.8865  -20.1690  -50.7338 C.3       15 UNK         0.1400 
     86 CB         -4.6447  -19.0650  -49.6931 C.3       15 UNK        -0.1800 
     87 C          -6.3816  -20.5297  -50.8107 C.2       15 UNK         0.5000 
     88 O          -6.8103  -21.5344  -50.2415 O.2       15 UNK        -0.5000 
     89 N          -7.1401  -19.7048  -51.5484 N.am      16 UNK        -0.5000 
     90 CA         -8.5523  -19.9028  -51.9108 C.3       16 UNK         0.1400 
     91 CB         -9.4620  -19.8361  -50.6657 C.3       16 UNK        -0.1800 
     92 C          -8.7763  -21.1781  -52.7562 C.2       16 UNK         0.5000 
     93 O          -9.8444  -21.7881  -52.6898 O.2       16 UNK        -0.5000 
     94 N          -7.7435  -21.5524  -53.5284 N.am      17 UNK        -0.5000 
     95 CA         -7.6347  -22.7439  -54.3736 C.3       17 UNK         0.1400 
     96 CB         -8.6446  -22.6904  -55.5385 C.3       17 UNK        -0.1800 
     97 C          -7.6916  -24.0734  -53.5905 C.2       17 UNK         0.5000 
     98 O          -8.0555  -25.1010  -54.1647 O.2       17 UNK        -0.5000 
     99 N          -7.2865  -24.0572  -52.3115 N.am      18 UNK        -0.5000 
    100 CA        -7.2350  -25.2323  -51.4352 C.3       18 UNK         0.1400 
    101 CB        -6.9537  -24.7820  -49.9956 C.3       18 UNK        -0.1800 
    102 C         -6.2248  -26.3064  -51.8911 C.2       18 UNK         0.5000 
    103 O         -6.4351  -27.4864  -51.6083 O.2       18 UNK        -0.5000 
    104 N         -5.1881  -25.8900  -52.6304 N.am      19 UNK        -0.5000 
    105 CA        -4.2508  -26.7649  -53.3394 C.3       19 UNK         0.1400 
    106 CB        -2.8439  -26.6153  -52.7331 C.3       19 UNK        -0.1800 
    107 C         -4.2758  -26.4525  -54.8486 C.2       19 UNK         0.5000 
    108 O         -3.2393  -26.5267  -55.5085 O.2       19 UNK        -0.5000 
    109 N         -5.4531  -26.0602  -55.3614 N.am      20 UNK        -0.5000 
    110 CA        -5.7728  -25.6050  -56.7236 C.3       20 UNK         0.1400 
    111 CB        -5.4010  -26.6584  -57.7845 C.3       20 UNK        -0.1800 
    112 C         -5.2037  -24.2170  -57.0860 C.2       20 UNK         0.5000 
    113 O         -5.8498  -23.4820  -57.8328 O.2       20 UNK        -0.5000 
    114 N         -4.0405  -23.8625  -56.5353 N.am      21 UNK        -0.5000 
    115 CA        -3.3585  -22.5827  -56.6794 C.3       21 UNK         0.1400 
    116 CB        -2.6057  -22.5432  -58.0231 C.3       21 UNK        -0.1800 
    117 C         -2.3991  -22.3980  -55.4927 C.2       21 UNK         0.5000 
    118 O         -2.1807  -23.3398  -54.7259 O.2       21 UNK        -0.5000 
    119 N         -1.8423  -21.1880  -55.3688 N.am      22 UNK        -0.5000 
    120 CA        -0.8292  -20.8199  -54.3670 C.3       22 UNK         0.1400 
    121 C          0.4862  -21.6403  -54.4988 C.2       22 UNK         0.5000 
    122 N          1.1268  -21.9856  -53.3899 N.am      22 UNK        -0.7600 
    123 O          0.9569  -21.9217  -55.5989 O.2       22 UNK        -0.5000 
    124 C124       -0.5054  -19.3043  -54.4123 C.3       23 UNK        -0.0398 
    125 S125       -1.9687  -18.2332  -54.1973 S.3       23 UNK        -0.2404 
    126 C126       -2.2037  -18.2616  -52.3929 C.3       23 UNK        -0.0205 
    127 H127       -1.8994  -10.6729  -44.0579 H         1 UNK         0.0600 
    128 H128       -1.0643  -12.2033  -43.7705 H         1 UNK         0.0600 
    129 H129       -2.3647  -12.1171  -44.9621 H         1 UNK         0.0600 
    130 H130       -1.6034  -12.0802  -47.0603 H         1 UNK         0.3000 
    131 H131        0.3163  -10.2612  -48.0359 H         1 UNK         0.0600 
    132 H132       -1.4902  -11.0644  -49.4521 H         1 UNK         0.0800 
    133 H133        0.0311  -11.4135  -50.2058 H         1 UNK         0.0800 
    134 H134        1.0652  -13.7193  -50.4870 H         1 UNK         0.0800 
    135 H135       -0.1840  -13.6013  -51.7055 H         1 UNK         0.0800 
    136 H136       -1.7561  -15.5886  -52.0703 H         1 UNK         0.1150 
    137 H137       -0.1748  -19.4270  -51.0055 H         1 UNK         0.1150 
    138 H138        1.7408  -15.8607  -49.5991 H         1 UNK         0.1150 
    139 H139        1.8161  -19.6352  -49.7506 H         1 UNK         0.0800 
    140 H140        2.9232  -18.2860  -49.7823 H         1 UNK         0.0800 
    141 H141       -0.5884  -18.4761  -48.2310 H         1 UNK         0.0800 
    142 H142       -0.3377  -18.2033  -46.5430 H         1 UNK         0.0800 
    143 H143        0.2558  -20.8882  -47.8661 H         1 UNK         0.0600 
    144 H144        0.8203  -19.9990  -45.2679 H         1 UNK         0.3000 
    145 H145        0.6256  -23.1552  -43.5554 H         1 UNK         0.0600 
    146 H146        2.9087  -22.3434  -42.9629 H         1 UNK         0.0600 
    147 H147        2.8539  -23.0128  -44.5871 H         1 UNK         0.0600 
    148 H148        2.9045  -21.2723  -44.3608 H         1 UNK         0.0600 
    149 H149        1.0876  -20.3443  -42.8696 H         1 UNK         0.3000 
    150 H150       -2.2121  -19.8110  -41.6710 H         1 UNK         0.0600 
    151 H151       -1.2030  -21.0204  -39.7248 H         1 UNK         0.0600 
    152 H152       -1.1231  -19.2783  -39.5134 H         1 UNK         0.0600 
    153 H153        0.3195  -20.1761  -39.9823 H         1 UNK         0.0600 
    154 H154        0.0919  -18.1812  -41.4496 H         1 UNK         0.3000 
    155 H155        0.0578  -16.8020  -44.7532 H         1 UNK         0.0600 
    156 H156       -0.5893  -15.5975  -42.0164 H         1 UNK         0.0600 
    157 H157       -1.6002  -15.4800  -43.4511 H         1 UNK         0.0600 
    158 H158       -0.0202  -14.7118  -43.4297 H         1 UNK         0.0600 
    159 H159        1.7887  -16.2376  -42.6239 H         1 UNK         0.3000 
    160 H160        4.1637  -18.8994  -43.1669 H         1 UNK         0.0600 
    161 H161        4.1820  -15.8624  -43.5791 H         1 UNK         0.0600 
    162 H162        4.7584  -17.0861  -44.7055 H         1 UNK         0.0600 
    163 H163        5.5938  -16.8420  -43.1833 H         1 UNK         0.0600 
    164 H164        3.8305  -16.7574  -41.2310 H         1 UNK         0.3000 
    165 H165        2.3345  -18.7668  -38.7246 H         1 UNK         0.0600 
    166 H166        4.3165  -18.0558  -37.4113 H         1 UNK         0.0600 
    167 H167        4.7552  -19.3510  -38.5134 H         1 UNK         0.0600 
    168 H168        5.2035  -17.6921  -38.8921 H         1 UNK         0.0600 
    169 H169        3.3242  -16.0796  -38.7480 H         1 UNK         0.3000 
    170 H170        0.3671  -14.5306  -40.0035 H         1 UNK         0.0600 
    171 H171       -0.0685  -14.9719  -37.5831 H         1 UNK         0.0600 
    172 H172        1.6086  -14.6005  -37.2017 H         1 UNK         0.0600 
    173 H173        0.5446  -13.3467  -37.8398 H         1 UNK         0.0600 
    174 H174        2.7821  -13.4047  -39.0507 H         1 UNK         0.3000 
    175 H175        4.0137  -12.2172  -40.5341 H         1 UNK         0.0600 
    176 H176        5.4413  -14.5858  -41.8909 H         1 UNK         0.0600 
    177 H177        6.2172  -13.1292  -41.2795 H         1 UNK         0.0600 
    178 H178        5.4655  -14.2553  -40.1621 H         1 UNK         0.0600 
    179 H179        3.2273  -12.9691  -43.1926 H         1 UNK         0.3000 
    180 H180        3.2969  -10.0515  -44.2662 H         1 UNK         0.0600 
    181 H181        6.0080  -10.9213  -45.3850 H         1 UNK         0.0600 
    182 H182        5.6025   -9.3564  -44.6989 H         1 UNK         0.0600 
    183 H183        4.8670   -9.8595  -46.2109 H         1 UNK         0.0600 
    184 H184        2.3316  -11.6012  -45.4401 H         1 UNK         0.3000 
    185 H185        3.3618  -13.9997  -47.6638 H         1 UNK         0.0600 
    186 H186        3.3033  -15.7335  -45.9543 H         1 UNK         0.0600 
    187 H187        2.0377  -14.9021  -45.0533 H         1 UNK         0.0600 
    188 H188        1.6896  -15.6174  -46.6270 H         1 UNK         0.0600 
    189 H189        0.7696  -13.3361  -46.5926 H         1 UNK         0.3000 
    190 H190       -2.0132  -20.2052  -45.2285 H         1 UNK         0.3000 
    191 H191       -4.4381  -20.2171  -46.5781 H         1 UNK         0.0600 
    192 H192       -3.7938  -21.2977  -43.7874 H         1 UNK         0.0600 
    193 H193       -5.3941  -20.8501  -44.3626 H         1 UNK         0.0600 
    194 H194       -4.1544  -19.6190  -44.1897 H         1 UNK         0.0600 
    195 H195       -2.3362  -22.9758  -46.1391 H         1 UNK         0.3000 
    196 H196       -4.3831  -25.0077  -46.5758 H         1 UNK         0.0600 
    197 H197       -2.4512  -26.5343  -46.6527 H         1 UNK         0.0600 
    198 H198       -2.2827  -25.4550  -45.2763 H         1 UNK         0.0600 
    199 H199       -1.3293  -25.1842  -46.7357 H         1 UNK         0.0600 
    200 H200       -2.6970  -22.7897  -48.6319 H         1 UNK         0.3000 
    201 H201       -3.2445  -24.4470  -51.0627 H         1 UNK         0.0600 
    202 H202       -0.8196  -23.9811  -50.6895 H         1 UNK         0.0600 
    203 H203       -1.1508  -22.2495  -50.6402 H         1 UNK         0.0600 
    204 H204       -1.4183  -23.1650  -52.1225 H         1 UNK         0.0600 
    205 H205       -3.4582  -21.2151  -49.5826 H         1 UNK         0.3000 
    206 H206       -4.5895  -19.7995  -51.7161 H         1 UNK         0.0600 
    207 H207       -5.2039  -18.1614  -49.9385 H         1 UNK         0.0600 
    208 H208       -4.9565  -19.3824  -48.6985 H         1 UNK         0.0600 
    209 H209       -3.5910  -18.7893  -49.6419 H         1 UNK         0.0600 
    210 H210       -6.7030  -18.8924  -51.9614 H         1 UNK         0.3000 
    211 H211       -8.8214  -19.0654  -52.5561 H         1 UNK         0.0600 
    212 H212       -9.3167  -20.6936  -50.0082 H         1 UNK         0.0600 
    213 H213      -10.5143  -19.8212  -50.9517 H         1 UNK         0.0600 
    214 H214       -9.2718  -18.9328  -50.0863 H         1 UNK         0.0600 
    215 H215       -6.9122  -20.9804  -53.4886 H         1 UNK         0.3000 
    216 H216       -6.6351  -22.7047  -54.8084 H         1 UNK         0.0600 
    217 H217       -8.4598  -23.4906  -56.2560 H         1 UNK         0.0600 
    218 H218       -8.5687  -21.7491  -56.0827 H         1 UNK         0.0600 
    219 H219       -9.6723  -22.7963  -55.1902 H         1 UNK         0.0600 
    220 H220       -6.9791  -23.1813  -51.9061 H         1 UNK         0.3000 
    221 H221       -8.2227  -25.6977  -51.4517 H         1 UNK         0.0600 
    222 H222       -6.0257  -24.2155  -49.9285 H         1 UNK         0.0600 
    223 H223       -7.7561  -24.1483  -49.6177 H         1 UNK         0.0600 
    224 H224       -6.8680  -25.6361  -49.3225 H         1 UNK         0.0600 
    225 H225       -5.0923  -24.8966  -52.8023 H         1 UNK         0.3000 
    226 H226       -4.5510  -27.8095  -53.2384 H         1 UNK         0.0600 
    227 H227       -2.8563  -26.7877  -51.6566 H         1 UNK         0.0600 
    228 H228       -2.1531  -27.3389  -53.1674 H         1 UNK         0.0600 
    229 H229       -2.4315  -25.6224  -52.9159 H         1 UNK         0.0600 
    230 H230       -6.2415  -26.0190  -54.7248 H         1 UNK         0.3000 
    231 H231       -6.8588  -25.5021  -56.7419 H         1 UNK         0.0600 
    232 H232       -5.8325  -27.6302  -57.5448 H         1 UNK         0.0600 
    233 H233       -4.3221  -26.7823  -57.8797 H         1 UNK         0.0600 
    234 H234       -5.7789  -26.3679  -58.7655 H         1 UNK         0.0600 
    235 H235       -3.5619  -24.5232  -55.9295 H         1 UNK         0.3000 
    236 H236       -4.0964  -21.7786  -56.6458 H         1 UNK         0.0600 
    237 H237       -2.0913  -21.5918  -58.1621 H         1 UNK         0.0600 
    238 H238       -1.8566  -23.3337  -58.0833 H         1 UNK         0.0600 
    239 H239       -3.2876  -22.6645  -58.8648 H         1 UNK         0.0600 
    240 H240       -2.0703  -20.4712  -56.0414 H         1 UNK         0.3000 
    241 H241       -1.2610  -21.0436  -53.3902 H         1 UNK         0.0600 
    242 H242        1.9885  -22.5026  -53.4709 H         1 UNK         0.3800 
    243 H243        0.7744  -21.7592  -52.4747 H         1 UNK         0.3800 
    244 H244       -0.0522  -19.0488  -55.3718 H         1 UNK         0.0800 
    245 H245        0.2392  -19.0433  -53.6594 H         1 UNK         0.0800 
    246 H246       -2.3144  -19.2944  -52.0612 H         1 UNK         0.0800 
    247 H247       -3.1435  -17.7612  -52.1559 H         1 UNK         0.0800 
@<TRIPOS>BOND
     1    1    2 1    
     2    1  127 1    
     3    1  128 1    
     4    1  129 1    
     5    2    3 2    
     6    2    4 am   BACKBONE|DICT|INTERRES
     7    4    5 1    
     8    4  130 1    
     9    5    6 1    
    10    5   65 1    
    11    5  131 1    
    12    6    7 1    
    13    6  132 1    
    14    6  133 1    
    15    7    8 1    
    16    8    9 1    
    17    8  134 1    
    18    8  135 1    
    19    9   10 ar   
    20    9   14 ar   
    21   10   11 ar   
    22   10  136 1    
    23   11   12 ar   
    24   11  126 1    
    25   12   13 ar   
    26   12  137 1    
    27   13   14 ar   
    28   13   15 1    
    29   14  138 1    
    30   15   16 1    
    31   15  139 1    
    32   15  140 1    
    33   16   17 1    
    34   17   18 1    
    35   17  141 1    
    36   17  142 1    
    37   18   19 1    
    38   18   67 1    
    39   18  143 1    
    40   19   20 am   BACKBONE|DICT|INTERRES
    41   19  144 1    
    42   20   21 2    
    43   20   22 1    
    44   22   23 1    
    45   22   24 1    
    46   22  145 1    
    47   23  146 1    
    48   23  147 1    
    49   23  148 1    
    50   24   25 am   BACKBONE|DICT|INTERRES
    51   24  149 1    
    52   25   26 2    
    53   25   27 1    
    54   27   28 1    
    55   27   29 1    
    56   27  150 1    
    57   28  151 1    
    58   28  152 1    
    59   28  153 1    
    60   29   30 am   BACKBONE|DICT|INTERRES
    61   29  154 1    
    62   30   31 2    
    63   30   32 1    
    64   32   33 1    
    65   32   34 1    
    66   32  155 1    
    67   33  156 1    
    68   33  157 1    
    69   33  158 1    
    70   34   35 am   BACKBONE|DICT|INTERRES
    71   34  159 1    
    72   35   36 2    
    73   35   37 1    
    74   37   38 1    
    75   37   39 1    
    76   37  160 1    
    77   38  161 1    
    78   38  162 1    
    79   38  163 1    
    80   39   40 am   BACKBONE|DICT|INTERRES
    81   39  164 1    
    82   40   41 2    
    83   40   42 1    
    84   42   43 1    
    85   42   44 1    
    86   42  165 1    
    87   43  166 1    
    88   43  167 1    
    89   43  168 1    
    90   44   45 am   BACKBONE|DICT|INTERRES
    91   44  169 1    
    92   45   46 2    
    93   45   47 1    
    94   47   48 1    
    95   47   49 1    
    96   47  170 1    
    97   48  171 1    
    98   48  172 1    
    99   48  173 1    
   100   49   50 am   BACKBONE|DICT|INTERRES
   101   49  174 1    
   102   50   51 2    
   103   50   52 1    
   104   52   53 1    
   105   52   54 1    
   106   52  175 1    
   107   53  176 1    
   108   53  177 1    
   109   53  178 1    
   110   54   55 am   BACKBONE|DICT|INTERRES
   111   54  179 1    
   112   55   56 2    
   113   55   57 1    
   114   57   58 1    
   115   57   59 1    
   116   57  180 1    
   117   58  181 1    
   118   58  182 1    
   119   58  183 1    
   120   59   60 am   BACKBONE|DICT|INTERRES
   121   59  184 1    
   122   60   61 2    
   123   60   62 1    
   124   62   63 1    
   125   62   64 1    
   126   62  185 1    
   127   63  186 1    
   128   63  187 1    
   129   63  188 1    
   130   64   65 am   BACKBONE|DICT|INTERRES
   131   64  189 1    
   132   65   66 2    
   133   67   68 2    
   134   67   69 am   BACKBONE|DICT|INTERRES
   135   69   70 1    
   136   69  190 1    
   137   70   71 1    
   138   70   72 1    
   139   70  191 1    
   140   71  192 1    
   141   71  193 1    
   142   71  194 1    
   143   72   73 2    
   144   72   74 am   BACKBONE|DICT|INTERRES
   145   74   75 1    
   146   74  195 1    
   147   75   76 1    
   148   75   77 1    
   149   75  196 1    
   150   76  197 1    
   151   76  198 1    
   152   76  199 1    
   153   77   78 2    
   154   77   79 am   BACKBONE|DICT|INTERRES
   155   79   80 1    
   156   79  200 1    
   157   80   81 1    
   158   80   82 1    
   159   80  201 1    
   160   81  202 1    
   161   81  203 1    
   162   81  204 1    
   163   82   83 2    
   164   82   84 am   BACKBONE|DICT|INTERRES
   165   84   85 1    
   166   84  205 1    
   167   85   86 1    
   168   85   87 1    
   169   85  206 1    
   170   86  207 1    
   171   86  208 1    
   172   86  209 1    
   173   87   88 2    
   174   87   89 am   BACKBONE|DICT|INTERRES
   175   89   90 1    
   176   89  210 1    
   177   90   91 1    
   178   90   92 1    
   179   90  211 1    
   180   91  212 1    
   181   91  213 1    
   182   91  214 1    
   183   92   93 2    
   184   92   94 am   BACKBONE|DICT|INTERRES
   185   94   95 1    
   186   94  215 1    
   187   95   96 1    
   188   95   97 1    
   189   95  216 1    
   190   96  217 1    
   191   96  218 1    
   192   96  219 1    
   193   97   98 2    
   194   97   99 am   BACKBONE|DICT|INTERRES
   195   99  100 1    
   196   99  220 1    
   197  100  101 1    
   198  100  102 1    
   199  100  221 1    
   200  101  222 1    
   201  101  223 1    
   202  101  224 1    
   203  102  103 2    
   204  102  104 am   BACKBONE|DICT|INTERRES
   205  104  105 1    
   206  104  225 1    
   207  105  106 1    
   208  105  107 1    
   209  105  226 1    
   210  106  227 1    
   211  106  228 1    
   212  106  229 1    
   213  107  108 2    
   214  107  109 am   BACKBONE|DICT|INTERRES
   215  109  110 1    
   216  109  230 1    
   217  110  111 1    
   218  110  112 1    
   219  110  231 1    
   220  111  232 1    
   221  111  233 1    
   222  111  234 1    
   223  112  113 2    
   224  112  114 am   BACKBONE|DICT|INTERRES
   225  114  115 1    
   226  114  235 1    
   227  115  116 1    
   228  115  117 1    
   229  115  236 1    
   230  116  237 1    
   231  116  238 1    
   232  116  239 1    
   233  117  118 2    
   234  117  119 am   BACKBONE|DICT|INTERRES
   235  119  120 1    
   236  119  240 1    
   237  120  121 1    
   238  120  124 1    
   239  120  241 1    
   240  121  122 am   BACKBONE|DICT|INTERRES
   241  121  123 2    
   242  122  242 1    
   243  122  243 1    
   244  124  125 1    
   245  124  244 1    
   246  124  245 1    
   247  125  126 1    
   248  126  246 1    
   249  126  247 1    
@<TRIPOS>SUBSTRUCTURE
     1 UNK         1 GROUP             0       ****    0 ROOT    
