@<TRIPOS>MOLECULE
3R540
247   249    1
SMALL
USER_CHARGES


@<TRIPOS>ATOM
      1 CA          4.0158   -9.8581  -49.9785 C.3       0 UNK        -0.1800 
      2 C           3.0115  -10.7200  -49.2292 C.2       0 UNK         0.5000 
      3 O           3.0482  -10.7779  -47.9997 O.2       0 UNK        -0.5000 
      4 N           2.0985  -11.3777  -49.9567 N.am      1 UNK        -0.5000 
      5 CA          1.0865  -12.2922  -49.4075 C.3       1 UNK         0.1400 
      6 C6          0.3070  -13.0629  -50.5011 C.3       23 UNK        -0.0398 
      7 S7          1.3700  -13.8563  -51.7558 S.3       23 UNK        -0.2404 
      8 C8          2.1612  -15.2028  -50.8087 C.3       23 UNK        -0.0205 
      9 C9          1.2028  -16.2550  -50.2544 C.ar      23 UNK        -0.0193 
     10 C10         0.0812  -16.6822  -50.9782 C.ar      23 UNK        -0.1150 
     11 C11        -0.7593  -17.6758  -50.4686 C.ar      23 UNK        -0.0193 
     12 C12        -0.4551  -18.2659  -49.2407 C.ar      23 UNK        -0.1150 
     13 C13         0.6630  -17.8611  -48.5118 C.ar      23 UNK        -0.0193 
     14 C14         1.4824  -16.8480  -49.0175 C.ar      23 UNK        -0.1150 
     15 C15         0.9906  -18.5478  -47.1962 C.3       23 UNK        -0.0205 
     16 S16         2.1330  -19.9375  -47.4722 S.3       23 UNK        -0.2404 
     17 C17         1.8852  -20.9412  -45.9700 C.3       23 UNK        -0.0398 
     18 CA          1.0515  -22.2176  -46.2466 C.3       11 UNK         0.1400 
     19 N           1.4100  -23.3121  -45.3425 N.am      11 UNK        -0.5000 
     20 C           1.1139  -24.6021  -45.5512 C.2       10 UNK         0.5000 
     21 O           0.5353  -25.0156  -46.5555 O.2       10 UNK        -0.5000 
     22 CA          1.4972  -25.5898  -44.4326 C.3       10 UNK         0.1400 
     23 CB          2.9519  -26.0538  -44.5975 C.3       10 UNK        -0.1800 
     24 N           1.3187  -25.0242  -43.0938 N.am      10 UNK        -0.5000 
     25 C           0.1280  -24.7266  -42.5554 C.2       9 UNK         0.5000 
     26 O          -0.9455  -24.9474  -43.1145 O.2       9 UNK        -0.5000 
     27 CA          0.1377  -24.0161  -41.1873 C.3       9 UNK         0.1400 
     28 CB          0.1593  -25.0458  -40.0480 C.3       9 UNK        -0.1800 
     29 N           1.2419  -23.0658  -41.0039 N.am      9 UNK        -0.5000 
     30 C           1.5006  -22.0229  -41.8043 C.2       8 UNK         0.5000 
     31 O           0.8856  -21.7987  -42.8480 O.2       8 UNK        -0.5000 
     32 CA          2.6840  -21.1223  -41.4050 C.3       8 UNK         0.1400 
     33 CB          4.0052  -21.7441  -41.8846 C.3       8 UNK        -0.1800 
     34 N           2.5666  -19.7810  -41.9784 N.am      8 UNK        -0.5000 
     35 C           1.6500  -18.8692  -41.6268 C.2       7 UNK         0.5000 
     36 O           0.8674  -19.0199  -40.6853 O.2       7 UNK        -0.5000 
     37 CA          1.6128  -17.5514  -42.4351 C.3       7 UNK         0.1400 
     38 CB          2.5412  -17.5318  -43.6696 C.3       7 UNK        -0.1800 
     39 N           0.2505  -17.1697  -42.8176 N.am      7 UNK        -0.5000 
     40 C          -0.6350  -17.8909  -43.5240 C.2       6 UNK         0.5000 
     41 O          -0.4066  -19.0047  -43.9885 O.2       6 UNK        -0.5000 
     42 CA         -2.0157  -17.2512  -43.7729 C.3       6 UNK         0.1400 
     43 CB         -3.0313  -17.7279  -42.7235 C.3       6 UNK        -0.1800 
     44 N          -1.9772  -15.7876  -43.7693 N.am      6 UNK        -0.5000 
     45 C          -1.4003  -15.0499  -44.7267 C.2       5 UNK         0.5000 
     46 O          -0.9148  -15.5321  -45.7517 O.2       5 UNK        -0.5000 
     47 CA         -1.3435  -13.5227  -44.5131 C.3       5 UNK         0.1400 
     48 CB         -1.8500  -13.0403  -43.1346 C.3       5 UNK        -0.1800 
     49 N           0.0001  -13.0106  -44.7815 N.am      5 UNK        -0.5000 
     50 C           1.1387  -13.3409  -44.1538 C.2       4 UNK         0.5000 
     51 O           1.1985  -14.0792  -43.1693 O.2       4 UNK        -0.5000 
     52 CA          2.4352  -12.7363  -44.7258 C.3       4 UNK         0.1400 
     53 CB          2.9855  -13.6222  -45.8544 C.3       4 UNK        -0.1800 
     54 N           2.2591  -11.3714  -45.2267 N.am      4 UNK        -0.5000 
     55 C           2.0102  -10.3030  -44.4549 C.2       3 UNK         0.5000 
     56 O           1.9340  -10.3465  -43.2265 O.2       3 UNK        -0.5000 
     57 CA          1.8001   -8.9621  -45.1777 C.3       3 UNK         0.1400 
     58 CB          3.1470   -8.3038  -45.5165 C.3       3 UNK        -0.1800 
     59 N           1.0177   -9.1343  -46.4010 N.am      3 UNK        -0.5000 
     60 C          -0.3220   -9.1652  -46.4418 C.2       2 UNK         0.5000 
     61 O          -1.0402   -8.9887  -45.4573 O.2       2 UNK        -0.5000 
     62 CA         -0.9754   -9.4475  -47.8096 C.3       2 UNK         0.1400 
     63 CB         -1.2816   -8.1319  -48.5413 C.3       2 UNK        -0.1800 
     64 N          -0.1555  -10.2962  -48.6758 N.am      2 UNK        -0.5000 
     65 C           0.1038  -11.5913  -48.4460 C.2       1 UNK         0.5000 
     66 O          -0.3658  -12.2178  -47.4984 O.2       1 UNK        -0.5000 
     67 C          -0.4652  -21.9451  -46.1991 C.2       11 UNK         0.5000 
     68 O          -1.0821  -21.7572  -47.2463 O.2       11 UNK        -0.5000 
     69 N          -1.0482  -21.9950  -44.9931 N.am      12 UNK        -0.5000 
     70 CA         -2.4860  -21.8775  -44.7538 C.3       12 UNK         0.1400 
     71 CB         -2.7486  -21.8057  -43.2424 C.3       12 UNK        -0.1800 
     72 C          -3.2812  -23.0283  -45.3988 C.2       12 UNK         0.5000 
     73 O          -4.3142  -22.7802  -46.0209 O.2       12 UNK        -0.5000 
     74 N          -2.7621  -24.2596  -45.2856 N.am      13 UNK        -0.5000 
     75 CA         -3.3010  -25.4488  -45.9455 C.3       13 UNK         0.1400 
     76 CB         -2.5710  -26.7018  -45.4402 C.3       13 UNK        -0.1800 
     77 C          -3.2276  -25.3516  -47.4794 C.2       13 UNK         0.5000 
     78 O          -4.2099  -25.6636  -48.1520 O.2       13 UNK        -0.5000 
     79 N          -2.0895  -24.8765  -48.0058 N.am      14 UNK        -0.5000 
     80 CA         -1.8891  -24.6291  -49.4341 C.3       14 UNK         0.1400 
     81 CB         -0.4090  -24.3365  -49.7114 C.3       14 UNK        -0.1800 
     82 C          -2.7854  -23.5043  -49.9843 C.2       14 UNK         0.5000 
     83 O          -3.2061  -23.5870  -51.1379 O.2       14 UNK        -0.5000 
     84 N          -3.0855  -22.4902  -49.1608 N.am      15 UNK        -0.5000 
     85 CA         -4.0467  -21.4321  -49.4694 C.3       15 UNK         0.1400 
     86 CB         -3.9480  -20.2987  -48.4365 C.3       15 UNK        -0.1800 
     87 C          -5.4841  -21.9698  -49.5368 C.2       15 UNK         0.5000 
     88 O          -6.1929  -21.6726  -50.4971 O.2       15 UNK        -0.5000 
     89 N          -5.8718  -22.7781  -48.5393 N.am      16 UNK        -0.5000 
     90 CA         -7.1830  -23.4255  -48.4462 C.3       16 UNK         0.1400 
     91 CB         -7.3174  -24.1119  -47.0786 C.3       16 UNK        -0.1800 
     92 C          -7.4446  -24.4247  -49.5892 C.2       16 UNK         0.5000 
     93 O          -8.5593  -24.4781  -50.1097 O.2       16 UNK        -0.5000 
     94 N          -6.4027  -25.1690  -49.9822 N.am      17 UNK        -0.5000 
     95 CA         -6.4085  -26.0857  -51.1240 C.3       17 UNK         0.1400 
     96 CB         -5.2206  -27.0509  -50.9795 C.3       17 UNK        -0.1800 
     97 C          -6.3428  -25.3712  -52.4903 C.2       17 UNK         0.5000 
     98 O          -6.5669  -26.0189  -53.5130 O.2       17 UNK        -0.5000 
     99 N          -5.9953  -24.0746  -52.4869 N.am      18 UNK        -0.5000 
    100 CA        -5.7223  -23.2028  -53.6372 C.3       18 UNK         0.1400 
    101 CB        -6.9656  -23.0480  -54.5356 C.3       18 UNK        -0.1800 
    102 C         -4.4606  -23.6024  -54.4349 C.2       18 UNK         0.5000 
    103 O         -4.2434  -23.0921  -55.5343 O.2       18 UNK        -0.5000 
    104 N         -3.6189  -24.4655  -53.8510 N.am      19 UNK        -0.5000 
    105 CA        -2.3386  -24.9219  -54.3911 C.3       19 UNK         0.1400 
    106 CB        -1.8447  -26.1127  -53.5555 C.3       19 UNK        -0.1800 
    107 C         -1.2815  -23.8034  -54.4172 C.2       19 UNK         0.5000 
    108 O         -0.4411  -23.7789  -55.3162 O.2       19 UNK        -0.5000 
    109 N         -1.3724  -22.8770  -53.4530 N.am      20 UNK        -0.5000 
    110 CA        -0.5591  -21.6607  -53.3787 C.3       20 UNK         0.1400 
    111 CB        -0.4487  -21.2301  -51.9072 C.3       20 UNK        -0.1800 
    112 C         -1.0887  -20.5150  -54.2722 C.2       20 UNK         0.5000 
    113 O         -0.4814  -19.4451  -54.2928 O.2       20 UNK        -0.5000 
    114 N         -2.1989  -20.7516  -54.9894 N.am      21 UNK        -0.5000 
    115 CA        -2.8705  -19.8530  -55.9372 C.3       21 UNK         0.1400 
    116 CB        -1.9244  -19.4157  -57.0760 C.3       21 UNK        -0.1800 
    117 C         -3.6181  -18.6696  -55.2852 C.2       21 UNK         0.5000 
    118 O         -3.9405  -17.7012  -55.9761 O.2       21 UNK        -0.5000 
    119 N         -3.9309  -18.7808  -53.9877 N.am      22 UNK        -0.5000 
    120 CA        -4.9028  -17.9150  -53.2992 C.3       22 UNK         0.1400 
    121 C         -6.3600  -18.2756  -53.7070 C.2       22 UNK         0.5000 
    122 N         -7.2615  -17.3036  -53.7289 N.am      22 UNK        -0.7600 
    123 O         -6.6886  -19.4308  -53.9688 O.2       22 UNK        -0.5000 
    124 C124       -4.7402  -17.9763  -51.7582 C.3       23 UNK        -0.0398 
    125 S125       -3.3503  -16.9658  -51.1427 S.3       23 UNK        -0.2404 
    126 C126       -1.9739  -18.1421  -51.2546 C.3       23 UNK        -0.0205 
    127 H127        5.0293  -10.2041  -49.7758 H         1 UNK         0.0600 
    128 H128        3.8533   -9.8904  -51.0560 H         1 UNK         0.0600 
    129 H129        3.9365   -8.8214  -49.6518 H         1 UNK         0.0600 
    130 H130        2.1184  -11.3053  -50.9643 H         1 UNK         0.3000 
    131 H131        1.6249  -13.0296  -48.8109 H         1 UNK         0.0600 
    132 H132       -0.3670  -12.3881  -51.0319 H         1 UNK         0.0800 
    133 H133       -0.3285  -13.8268  -50.0487 H         1 UNK         0.0800 
    134 H134        2.8721  -15.7074  -51.4639 H         1 UNK         0.0800 
    135 H135        2.7521  -14.7626  -50.0045 H         1 UNK         0.0800 
    136 H136       -0.1411  -16.2474  -51.9423 H         1 UNK         0.1150 
    137 H137       -1.0726  -19.0606  -48.8550 H         1 UNK         0.1150 
    138 H138        2.3549  -16.5426  -48.4570 H         1 UNK         0.1150 
    139 H139        1.4313  -17.8335  -46.5003 H         1 UNK         0.0800 
    140 H140        0.0726  -18.9088  -46.7293 H         1 UNK         0.0800 
    141 H141        1.4542  -20.3440  -45.1669 H         1 UNK         0.0800 
    142 H142        2.8816  -21.2178  -45.6232 H         1 UNK         0.0800 
    143 H143        1.2854  -22.5623  -47.2566 H         1 UNK         0.0600 
    144 H144        1.7849  -23.0414  -44.4440 H         1 UNK         0.3000 
    145 H145        0.8481  -26.4634  -44.5235 H         1 UNK         0.0600 
    146 H146        3.2108  -26.8104  -43.8567 H         1 UNK         0.0600 
    147 H147        3.1105  -26.4966  -45.5818 H         1 UNK         0.0600 
    148 H148        3.6545  -25.2260  -44.4926 H         1 UNK         0.0600 
    149 H149        2.1534  -24.8121  -42.5677 H         1 UNK         0.3000 
    150 H150       -0.7916  -23.4483  -41.1119 H         1 UNK         0.0600 
    151 H151        1.0869  -25.6195  -40.0412 H         1 UNK         0.0600 
    152 H152       -0.6644  -25.7543  -40.1460 H         1 UNK         0.0600 
    153 H153        0.0553  -24.5624  -39.0765 H         1 UNK         0.0600 
    154 H154        1.8091  -23.1975  -40.1788 H         1 UNK         0.3000 
    155 H155        2.7056  -21.0334  -40.3170 H         1 UNK         0.0600 
    156 H156        4.0295  -21.8524  -42.9698 H         1 UNK         0.0600 
    157 H157        4.1548  -22.7344  -41.4526 H         1 UNK         0.0600 
    158 H158        4.8584  -21.1326  -41.5898 H         1 UNK         0.0600 
    159 H159        3.1536  -19.5825  -42.7740 H         1 UNK         0.3000 
    160 H160        1.9604  -16.7723  -41.7554 H         1 UNK         0.0600 
    161 H161        2.3105  -18.3358  -44.3661 H         1 UNK         0.0600 
    162 H162        3.5883  -17.6278  -43.3806 H         1 UNK         0.0600 
    163 H163        2.4457  -16.5908  -44.2110 H         1 UNK         0.0600 
    164 H164       -0.0366  -16.2522  -42.5077 H         1 UNK         0.3000 
    165 H165       -2.3601  -17.5836  -44.7548 H         1 UNK         0.0600 
    166 H166       -4.0235  -17.3215  -42.9202 H         1 UNK         0.0600 
    167 H167       -3.1202  -18.8142  -42.7328 H         1 UNK         0.0600 
    168 H168       -2.7384  -17.4314  -41.7156 H         1 UNK         0.0600 
    169 H169       -2.3593  -15.3223  -42.9589 H         1 UNK         0.3000 
    170 H170       -1.9918  -13.0862  -45.2741 H         1 UNK         0.0600 
    171 H171       -2.8998  -13.2963  -42.9871 H         1 UNK         0.0600 
    172 H172       -1.2806  -13.4707  -42.3102 H         1 UNK         0.0600 
    173 H173       -1.7742  -11.9557  -43.0538 H         1 UNK         0.0600 
    174 H174        0.0732  -12.4773  -45.6428 H         1 UNK         0.3000 
    175 H175        3.1746  -12.7081  -43.9228 H         1 UNK         0.0600 
    176 H176        2.2649  -13.7328  -46.6646 H         1 UNK         0.0600 
    177 H177        3.9027  -13.2078  -46.2736 H         1 UNK         0.0600 
    178 H178        3.2178  -14.6219  -45.4865 H         1 UNK         0.0600 
    179 H179        2.3722  -11.2313  -46.2262 H         1 UNK         0.3000 
    180 H180        1.2654   -8.2940  -44.4988 H         1 UNK         0.0600 
    181 H181        3.7467   -8.9220  -46.1850 H         1 UNK         0.0600 
    182 H182        3.7344   -8.1347  -44.6132 H         1 UNK         0.0600 
    183 H183        3.0021   -7.3356  -45.9958 H         1 UNK         0.0600 
    184 H184        1.5386   -9.3457  -47.2417 H         1 UNK         0.3000 
    185 H185       -1.9202   -9.9631  -47.6240 H         1 UNK         0.0600 
    186 H186       -1.9136   -7.4844  -47.9320 H         1 UNK         0.0600 
    187 H187       -0.3708   -7.5782  -48.7727 H         1 UNK         0.0600 
    188 H188       -1.8115   -8.3144  -49.4763 H         1 UNK         0.0600 
    189 H189        0.2785   -9.8524  -49.4723 H         1 UNK         0.3000 
    190 H190       -0.4506  -22.0726  -44.1744 H         1 UNK         0.3000 
    191 H191       -2.8186  -20.9400  -45.2043 H         1 UNK         0.0600 
    192 H192       -2.1493  -21.0247  -42.7741 H         1 UNK         0.0600 
    193 H193       -3.7968  -21.5828  -43.0408 H         1 UNK         0.0600 
    194 H194       -2.5123  -22.7464  -42.7459 H         1 UNK         0.0600 
    195 H195       -1.9454  -24.3953  -44.6971 H         1 UNK         0.3000 
    196 H196       -4.3536  -25.5355  -45.6686 H         1 UNK         0.0600 
    197 H197       -2.9685  -27.6018  -45.9108 H         1 UNK         0.0600 
    198 H198       -2.6898  -26.8185  -44.3629 H         1 UNK         0.0600 
    199 H199       -1.5031  -26.6620  -45.6557 H         1 UNK         0.0600 
    200 H200       -1.3042  -24.6811  -47.3938 H         1 UNK         0.3000 
    201 H201       -2.1529  -25.5451  -49.9662 H         1 UNK         0.0600 
    202 H202       -0.2274  -24.2384  -50.7821 H         1 UNK         0.0600 
    203 H203        0.2272  -25.1446  -49.3504 H         1 UNK         0.0600 
    204 H204       -0.0831  -23.4135  -49.2312 H         1 UNK         0.0600 
    205 H205       -2.6128  -22.4351  -48.2637 H         1 UNK         0.3000 
    206 H206       -3.7885  -21.0280  -50.4494 H         1 UNK         0.0600 
    207 H207       -2.9214  -19.9722  -48.2991 H         1 UNK         0.0600 
    208 H208       -4.5276  -19.4317  -48.7552 H         1 UNK         0.0600 
    209 H209       -4.3244  -20.5995  -47.4594 H         1 UNK         0.0600 
    210 H210       -5.2306  -22.9390  -47.7675 H         1 UNK         0.3000 
    211 H211       -7.9429  -22.6440  -48.5103 H         1 UNK         0.0600 
    212 H212       -6.5672  -24.8915  -46.9434 H         1 UNK         0.0600 
    213 H213       -8.2981  -24.5763  -46.9688 H         1 UNK         0.0600 
    214 H214       -7.2032  -23.3950  -46.2652 H         1 UNK         0.0600 
    215 H215       -5.5436  -25.1248  -49.4401 H         1 UNK         0.3000 
    216 H216       -7.3313  -26.6687  -51.0997 H         1 UNK         0.0600 
    217 H217       -5.2043  -27.7805  -51.7901 H         1 UNK         0.0600 
    218 H218       -5.2763  -27.6073  -50.0437 H         1 UNK         0.0600 
    219 H219       -4.2682  -26.5197  -50.9961 H         1 UNK         0.0600 
    220 H220       -5.8429  -23.6388  -51.5861 H         1 UNK         0.3000 
    221 H221       -5.5047  -22.2206  -53.2150 H         1 UNK         0.0600 
    222 H222       -7.1995  -23.9674  -55.0725 H         1 UNK         0.0600 
    223 H223       -7.8405  -22.7657  -53.9500 H         1 UNK         0.0600 
    224 H224       -6.8118  -22.2660  -55.2802 H         1 UNK         0.0600 
    225 H225       -3.8289  -24.7390  -52.9003 H         1 UNK         0.3000 
    226 H226       -2.4998  -25.2585  -55.4173 H         1 UNK         0.0600 
    227 H227       -2.5650  -26.9309  -53.5712 H         1 UNK         0.0600 
    228 H228       -0.9032  -26.5005  -53.9465 H         1 UNK         0.0600 
    229 H229       -1.6782  -25.8329  -52.5146 H         1 UNK         0.0600 
    230 H230       -2.0851  -22.9989  -52.7409 H         1 UNK         0.3000 
    231 H231        0.4494  -21.8856  -53.7317 H         1 UNK         0.0600 
    232 H232       -1.4282  -21.1347  -51.4420 H         1 UNK         0.0600 
    233 H233        0.0674  -20.2747  -51.8058 H         1 UNK         0.0600 
    234 H234        0.1233  -21.9552  -51.3308 H         1 UNK         0.0600 
    235 H235       -2.6120  -21.6730  -54.9228 H         1 UNK         0.3000 
    236 H236       -3.6519  -20.4603  -56.3962 H         1 UNK         0.0600 
    237 H237       -1.4167  -20.2726  -57.5187 H         1 UNK         0.0600 
    238 H238       -2.4777  -18.9212  -57.8752 H         1 UNK         0.0600 
    239 H239       -1.1645  -18.7156  -56.7286 H         1 UNK         0.0600 
    240 H240       -3.6615  -19.6251  -53.5091 H         1 UNK         0.3000 
    241 H241       -4.7247  -16.8858  -53.6184 H         1 UNK         0.0600 
    242 H242       -7.0188  -16.3485  -53.5138 H         1 UNK         0.3800 
    243 H243       -8.2125  -17.5262  -53.9794 H         1 UNK         0.3800 
    244 H244       -5.6302  -17.5827  -51.2631 H         1 UNK         0.0800 
    245 H245       -4.6494  -19.0064  -51.4133 H         1 UNK         0.0800 
    246 H246       -2.3057  -19.1114  -50.8864 H         1 UNK         0.0800 
    247 H247       -1.7020  -18.2724  -52.3009 H         1 UNK         0.0800 
@<TRIPOS>BOND
     1    1    2 1    
     2    1  127 1    
     3    1  128 1    
     4    1  129 1    
     5    2    3 2    
     6    2    4 am   BACKBONE|DICT|INTERRES
     7    4    5 1    
     8    4  130 1    
     9    5    6 1    
    10    5   65 1    
    11    5  131 1    
    12    6    7 1    
    13    6  132 1    
    14    6  133 1    
    15    7    8 1    
    16    8    9 1    
    17    8  134 1    
    18    8  135 1    
    19    9   10 ar   
    20    9   14 ar   
    21   10   11 ar   
    22   10  136 1    
    23   11   12 ar   
    24   11  126 1    
    25   12   13 ar   
    26   12  137 1    
    27   13   14 ar   
    28   13   15 1    
    29   14  138 1    
    30   15   16 1    
    31   15  139 1    
    32   15  140 1    
    33   16   17 1    
    34   17   18 1    
    35   17  141 1    
    36   17  142 1    
    37   18   19 1    
    38   18   67 1    
    39   18  143 1    
    40   19   20 am   BACKBONE|DICT|INTERRES
    41   19  144 1    
    42   20   21 2    
    43   20   22 1    
    44   22   23 1    
    45   22   24 1    
    46   22  145 1    
    47   23  146 1    
    48   23  147 1    
    49   23  148 1    
    50   24   25 am   BACKBONE|DICT|INTERRES
    51   24  149 1    
    52   25   26 2    
    53   25   27 1    
    54   27   28 1    
    55   27   29 1    
    56   27  150 1    
    57   28  151 1    
    58   28  152 1    
    59   28  153 1    
    60   29   30 am   BACKBONE|DICT|INTERRES
    61   29  154 1    
    62   30   31 2    
    63   30   32 1    
    64   32   33 1    
    65   32   34 1    
    66   32  155 1    
    67   33  156 1    
    68   33  157 1    
    69   33  158 1    
    70   34   35 am   BACKBONE|DICT|INTERRES
    71   34  159 1    
    72   35   36 2    
    73   35   37 1    
    74   37   38 1    
    75   37   39 1    
    76   37  160 1    
    77   38  161 1    
    78   38  162 1    
    79   38  163 1    
    80   39   40 am   BACKBONE|DICT|INTERRES
    81   39  164 1    
    82   40   41 2    
    83   40   42 1    
    84   42   43 1    
    85   42   44 1    
    86   42  165 1    
    87   43  166 1    
    88   43  167 1    
    89   43  168 1    
    90   44   45 am   BACKBONE|DICT|INTERRES
    91   44  169 1    
    92   45   46 2    
    93   45   47 1    
    94   47   48 1    
    95   47   49 1    
    96   47  170 1    
    97   48  171 1    
    98   48  172 1    
    99   48  173 1    
   100   49   50 am   BACKBONE|DICT|INTERRES
   101   49  174 1    
   102   50   51 2    
   103   50   52 1    
   104   52   53 1    
   105   52   54 1    
   106   52  175 1    
   107   53  176 1    
   108   53  177 1    
   109   53  178 1    
   110   54   55 am   BACKBONE|DICT|INTERRES
   111   54  179 1    
   112   55   56 2    
   113   55   57 1    
   114   57   58 1    
   115   57   59 1    
   116   57  180 1    
   117   58  181 1    
   118   58  182 1    
   119   58  183 1    
   120   59   60 am   BACKBONE|DICT|INTERRES
   121   59  184 1    
   122   60   61 2    
   123   60   62 1    
   124   62   63 1    
   125   62   64 1    
   126   62  185 1    
   127   63  186 1    
   128   63  187 1    
   129   63  188 1    
   130   64   65 am   BACKBONE|DICT|INTERRES
   131   64  189 1    
   132   65   66 2    
   133   67   68 2    
   134   67   69 am   BACKBONE|DICT|INTERRES
   135   69   70 1    
   136   69  190 1    
   137   70   71 1    
   138   70   72 1    
   139   70  191 1    
   140   71  192 1    
   141   71  193 1    
   142   71  194 1    
   143   72   73 2    
   144   72   74 am   BACKBONE|DICT|INTERRES
   145   74   75 1    
   146   74  195 1    
   147   75   76 1    
   148   75   77 1    
   149   75  196 1    
   150   76  197 1    
   151   76  198 1    
   152   76  199 1    
   153   77   78 2    
   154   77   79 am   BACKBONE|DICT|INTERRES
   155   79   80 1    
   156   79  200 1    
   157   80   81 1    
   158   80   82 1    
   159   80  201 1    
   160   81  202 1    
   161   81  203 1    
   162   81  204 1    
   163   82   83 2    
   164   82   84 am   BACKBONE|DICT|INTERRES
   165   84   85 1    
   166   84  205 1    
   167   85   86 1    
   168   85   87 1    
   169   85  206 1    
   170   86  207 1    
   171   86  208 1    
   172   86  209 1    
   173   87   88 2    
   174   87   89 am   BACKBONE|DICT|INTERRES
   175   89   90 1    
   176   89  210 1    
   177   90   91 1    
   178   90   92 1    
   179   90  211 1    
   180   91  212 1    
   181   91  213 1    
   182   91  214 1    
   183   92   93 2    
   184   92   94 am   BACKBONE|DICT|INTERRES
   185   94   95 1    
   186   94  215 1    
   187   95   96 1    
   188   95   97 1    
   189   95  216 1    
   190   96  217 1    
   191   96  218 1    
   192   96  219 1    
   193   97   98 2    
   194   97   99 am   BACKBONE|DICT|INTERRES
   195   99  100 1    
   196   99  220 1    
   197  100  101 1    
   198  100  102 1    
   199  100  221 1    
   200  101  222 1    
   201  101  223 1    
   202  101  224 1    
   203  102  103 2    
   204  102  104 am   BACKBONE|DICT|INTERRES
   205  104  105 1    
   206  104  225 1    
   207  105  106 1    
   208  105  107 1    
   209  105  226 1    
   210  106  227 1    
   211  106  228 1    
   212  106  229 1    
   213  107  108 2    
   214  107  109 am   BACKBONE|DICT|INTERRES
   215  109  110 1    
   216  109  230 1    
   217  110  111 1    
   218  110  112 1    
   219  110  231 1    
   220  111  232 1    
   221  111  233 1    
   222  111  234 1    
   223  112  113 2    
   224  112  114 am   BACKBONE|DICT|INTERRES
   225  114  115 1    
   226  114  235 1    
   227  115  116 1    
   228  115  117 1    
   229  115  236 1    
   230  116  237 1    
   231  116  238 1    
   232  116  239 1    
   233  117  118 2    
   234  117  119 am   BACKBONE|DICT|INTERRES
   235  119  120 1    
   236  119  240 1    
   237  120  121 1    
   238  120  124 1    
   239  120  241 1    
   240  121  122 am   BACKBONE|DICT|INTERRES
   241  121  123 2    
   242  122  242 1    
   243  122  243 1    
   244  124  125 1    
   245  124  244 1    
   246  124  245 1    
   247  125  126 1    
   248  126  246 1    
   249  126  247 1    
@<TRIPOS>SUBSTRUCTURE
     1 UNK         1 GROUP             0       ****    0 ROOT    
