@<TRIPOS>MOLECULE
3R540
247   249    1
SMALL
USER_CHARGES


@<TRIPOS>ATOM
      1 CA         -3.7062  -16.9637  -43.1880 C.3       0 UNK        -0.1800 
      2 C          -3.8259  -17.1891  -44.6881 C.2       0 UNK         0.5000 
      3 O          -4.9197  -17.4596  -45.1833 O.2       0 UNK        -0.5000 
      4 N          -2.7037  -17.0896  -45.4107 N.am      1 UNK        -0.5000 
      5 CA         -2.6427  -17.2572  -46.8670 C.3       1 UNK         0.1400 
      6 C6         -1.2578  -17.7550  -47.3408 C.3       23 UNK        -0.0398 
      7 S7          0.1406  -16.6277  -47.0145 S.3       23 UNK        -0.2404 
      8 C8          0.5781  -16.0967  -48.7080 C.3       23 UNK        -0.0205 
      9 C9          1.0746  -17.2113  -49.6323 C.ar      23 UNK        -0.0193 
     10 C10         0.9474  -17.0542  -51.0172 C.ar      23 UNK        -0.1150 
     11 C11         1.4018  -18.0447  -51.8943 C.ar      23 UNK        -0.0193 
     12 C12         1.9836  -19.2047  -51.3766 C.ar      23 UNK        -0.1150 
     13 C13         2.1124  -19.3831  -49.9986 C.ar      23 UNK        -0.0193 
     14 C14         1.6711  -18.3775  -49.1361 C.ar      23 UNK        -0.1150 
     15 C15         2.7370  -20.6548  -49.4403 C.3       23 UNK        -0.0205 
     16 S16         1.5004  -21.9670  -49.1667 S.3       23 UNK        -0.2404 
     17 C17         0.5103  -21.2304  -47.8291 C.3       23 UNK        -0.0398 
     18 CA         -0.5187  -22.2130  -47.2306 C.3       11 UNK         0.1400 
     19 N           0.1039  -23.3515  -46.5546 N.am      11 UNK        -0.5000 
     20 C          -0.5610  -24.4313  -46.1213 C.2       10 UNK         0.5000 
     21 O          -1.7711  -24.5957  -46.2675 O.2       10 UNK        -0.5000 
     22 CA          0.2597  -25.4709  -45.3416 C.3       10 UNK         0.1400 
     23 CB          1.0867  -26.3401  -46.3009 C.3       10 UNK        -0.1800 
     24 N           1.1435  -24.8431  -44.3582 N.am      10 UNK        -0.5000 
     25 C           0.7178  -24.1438  -43.2958 C.2       9 UNK         0.5000 
     26 O          -0.4687  -23.9906  -43.0056 O.2       9 UNK        -0.5000 
     27 CA          1.8019  -23.4565  -42.4462 C.3       9 UNK         0.1400 
     28 CB          2.3693  -24.4293  -41.4019 C.3       9 UNK        -0.1800 
     29 N           2.8992  -22.9033  -43.2466 N.am      9 UNK        -0.5000 
     30 C           2.7581  -21.9205  -44.1446 C.2       8 UNK         0.5000 
     31 O           1.6762  -21.4009  -44.4318 O.2       8 UNK        -0.5000 
     32 CA          4.0252  -21.4569  -44.8691 C.3       8 UNK         0.1400 
     33 CB          4.2579  -22.2763  -46.1490 C.3       8 UNK        -0.1800 
     34 N           3.8494  -20.0481  -45.1967 N.am      8 UNK        -0.5000 
     35 C           4.8270  -19.1409  -45.2834 C.2       7 UNK         0.5000 
     36 O           6.0252  -19.4227  -45.2360 O.2       7 UNK        -0.5000 
     37 CA          4.4040  -17.6634  -45.4235 C.3       7 UNK         0.1400 
     38 CB          4.5253  -17.2013  -46.8833 C.3       7 UNK        -0.1800 
     39 N           3.0521  -17.3656  -44.9318 N.am      7 UNK        -0.5000 
     40 C           2.6725  -17.4399  -43.6474 C.2       6 UNK         0.5000 
     41 O           3.4094  -17.8219  -42.7373 O.2       6 UNK        -0.5000 
     42 CA          1.2609  -16.9220  -43.3360 C.3       6 UNK         0.1400 
     43 CB          0.8244  -17.1687  -41.8775 C.3       6 UNK        -0.1800 
     44 N           1.2429  -15.4934  -43.6329 N.am      6 UNK        -0.5000 
     45 C           0.1552  -14.7695  -43.9064 C.2       5 UNK         0.5000 
     46 O          -0.9863  -15.2324  -43.9495 O.2       5 UNK        -0.5000 
     47 CA          0.3961  -13.2923  -44.2410 C.3       5 UNK         0.1400 
     48 CB          0.4253  -13.0988  -45.7634 C.3       5 UNK        -0.1800 
     49 N          -0.6779  -12.4785  -43.6761 N.am      5 UNK        -0.5000 
     50 C          -0.5038  -11.4930  -42.7849 C.2       4 UNK         0.5000 
     51 O           0.6023  -11.1525  -42.3598 O.2       4 UNK        -0.5000 
     52 CA         -1.7715  -10.7737  -42.2681 C.3       4 UNK         0.1400 
     53 CB         -1.4804   -9.3617  -41.7162 C.3       4 UNK        -0.1800 
     54 N          -2.8698  -10.7347  -43.2394 N.am      4 UNK        -0.5000 
     55 C          -2.8745  -10.1495  -44.4459 C.2       3 UNK         0.5000 
     56 O          -1.9343   -9.5055  -44.9154 O.2       3 UNK        -0.5000 
     57 CA         -4.1503  -10.3663  -45.2856 C.3       3 UNK         0.1400 
     58 CB         -4.6281   -9.0549  -45.9314 C.3       3 UNK        -0.1800 
     59 N          -3.9683  -11.3748  -46.3330 N.am      3 UNK        -0.5000 
     60 C          -3.5665  -12.6382  -46.1419 C.2       2 UNK         0.5000 
     61 O          -3.3018  -13.1136  -45.0325 O.2       2 UNK        -0.5000 
     62 CA         -3.4526  -13.5243  -47.3934 C.3       2 UNK         0.1400 
     63 CB         -2.5101  -12.9320  -48.4612 C.3       2 UNK        -0.1800 
     64 N          -2.9815  -14.8328  -46.9611 N.am      2 UNK        -0.5000 
     65 C          -3.1087  -15.9904  -47.6151 C.2       1 UNK         0.5000 
     66 O          -3.5930  -16.0893  -48.7418 O.2       1 UNK        -0.5000 
     67 C          -1.4851  -21.4599  -46.3002 C.2       11 UNK         0.5000 
     68 O          -2.5591  -21.0669  -46.7501 O.2       11 UNK        -0.5000 
     69 N          -1.1037  -21.2719  -45.0308 N.am      12 UNK        -0.5000 
     70 CA         -1.9315  -20.6215  -44.0160 C.3       12 UNK         0.1400 
     71 CB         -1.0991  -20.3829  -42.7493 C.3       12 UNK        -0.1800 
     72 C          -3.2151  -21.4109  -43.7001 C.2       12 UNK         0.5000 
     73 O          -4.2749  -20.8052  -43.5444 O.2       12 UNK        -0.5000 
     74 N          -3.1023  -22.7449  -43.6447 N.am      13 UNK        -0.5000 
     75 CA         -4.2233  -23.6622  -43.4468 C.3       13 UNK         0.1400 
     76 CB         -3.6827  -25.0541  -43.0846 C.3       13 UNK        -0.1800 
     77 C          -5.1511  -23.7412  -44.6736 C.2       13 UNK         0.5000 
     78 O          -6.3720  -23.7164  -44.5143 O.2       13 UNK        -0.5000 
     79 N          -4.5596  -23.8410  -45.8716 N.am      14 UNK        -0.5000 
     80 CA         -5.2761  -24.0136  -47.1377 C.3       14 UNK         0.1400 
     81 CB         -4.3267  -24.6740  -48.1481 C.3       14 UNK        -0.1800 
     82 C          -5.8454  -22.7094  -47.7282 C.2       14 UNK         0.5000 
     83 O          -6.6188  -22.7831  -48.6823 O.2       14 UNK        -0.5000 
     84 N          -5.4315  -21.5521  -47.1924 N.am      15 UNK        -0.5000 
     85 CA         -5.6788  -20.2005  -47.7086 C.3       15 UNK         0.1400 
     86 CB         -7.1802  -19.8458  -47.6880 C.3       15 UNK        -0.1800 
     87 C          -5.0141  -20.0091  -49.0887 C.2       15 UNK         0.5000 
     88 O          -5.6803  -19.6920  -50.0739 O.2       15 UNK        -0.5000 
     89 N          -3.7020  -20.2796  -49.1189 N.am      16 UNK        -0.5000 
     90 CA         -2.7552  -20.2553  -50.2418 C.3       16 UNK         0.1400 
     91 CB         -2.7668  -18.9036  -50.9745 C.3       16 UNK        -0.1800 
     92 C          -2.8912  -21.4246  -51.2348 C.2       16 UNK         0.5000 
     93 O          -1.9173  -21.7260  -51.9256 O.2       16 UNK        -0.5000 
     94 N          -4.0517  -22.0977  -51.2599 N.am      17 UNK        -0.5000 
     95 CA         -4.4282  -23.1496  -52.2140 C.3       17 UNK         0.1400 
     96 CB         -5.8845  -23.5621  -51.9537 C.3       17 UNK        -0.1800 
     97 C          -3.5101  -24.3895  -52.2432 C.2       17 UNK         0.5000 
     98 O          -3.5608  -25.1520  -53.2089 O.2       17 UNK        -0.5000 
     99 N          -2.6742  -24.5606  -51.2097 N.am      18 UNK        -0.5000 
    100 CA        -1.5957  -25.5480  -51.1561 C.3       18 UNK         0.1400 
    101 CB        -1.0032  -25.5693  -49.7374 C.3       18 UNK        -0.1800 
    102 C         -0.4836  -25.2842  -52.1930 C.2       18 UNK         0.5000 
    103 O          0.1738  -26.2345  -52.6196 O.2       18 UNK        -0.5000 
    104 N         -0.2944  -24.0139  -52.5753 N.am      19 UNK        -0.5000 
    105 CA         0.6755  -23.5785  -53.5725 C.3       19 UNK         0.1400 
    106 CB         1.3922  -22.3170  -53.0675 C.3       19 UNK        -0.1800 
    107 C         -0.0139  -23.3235  -54.9204 C.2       19 UNK         0.5000 
    108 O          0.3053  -24.0010  -55.8986 O.2       19 UNK        -0.5000 
    109 N         -0.9343  -22.3521  -54.9555 N.am      20 UNK        -0.5000 
    110 CA        -1.6049  -21.8556  -56.1575 C.3       20 UNK         0.1400 
    111 CB        -0.5965  -21.1118  -57.0643 C.3       20 UNK        -0.1800 
    112 C         -2.7731  -20.9426  -55.7460 C.2       20 UNK         0.5000 
    113 O         -3.1094  -20.8719  -54.5642 O.2       20 UNK        -0.5000 
    114 N         -3.3749  -20.2447  -56.7194 N.am      21 UNK        -0.5000 
    115 CA        -4.3999  -19.2244  -56.4770 C.3       21 UNK         0.1400 
    116 CB        -5.0345  -18.8093  -57.8134 C.3       21 UNK        -0.1800 
    117 C         -3.8430  -17.9949  -55.7301 C.2       21 UNK         0.5000 
    118 O         -4.5235  -17.4581  -54.8557 O.2       21 UNK        -0.5000 
    119 N         -2.6090  -17.5987  -56.0791 N.am      22 UNK        -0.5000 
    120 CA        -1.7997  -16.5562  -55.4165 C.3       22 UNK         0.1400 
    121 C         -2.3951  -15.1137  -55.4660 C.2       22 UNK         0.5000 
    122 N         -3.3207  -14.8131  -56.3688 N.am      22 UNK        -0.7600 
    123 O         -1.9894  -14.2392  -54.7051 O.2       22 UNK        -0.5000 
    124 C124       -1.3473  -16.9822  -53.9901 C.3       23 UNK        -0.0398 
    125 S125       -0.3018  -18.4828  -54.0350 S.3       23 UNK        -0.2404 
    126 C126        1.2887  -17.8659  -53.4013 C.3       23 UNK        -0.0205 
    127 H127       -4.0678  -15.9688  -42.9284 H         1 UNK         0.0600 
    128 H128       -2.6735  -17.0533  -42.8501 H         1 UNK         0.0600 
    129 H129       -4.3004  -17.7007  -42.6473 H         1 UNK         0.0600 
    130 H130       -1.8598  -16.7486  -44.9599 H         1 UNK         0.3000 
    131 H131       -3.3504  -18.0422  -47.1371 H         1 UNK         0.0600 
    132 H132       -1.2935  -18.0044  -48.4012 H         1 UNK         0.0800 
    133 H133       -1.0294  -18.6884  -46.8309 H         1 UNK         0.0800 
    134 H134        1.3570  -15.3366  -48.6387 H         1 UNK         0.0800 
    135 H135       -0.2924  -15.6080  -49.1490 H         1 UNK         0.0800 
    136 H136        0.4993  -16.1548  -51.4148 H         1 UNK         0.1150 
    137 H137        2.3423  -19.9692  -52.0489 H         1 UNK         0.1150 
    138 H138        1.7871  -18.5188  -48.0726 H         1 UNK         0.1150 
    139 H139        3.4940  -21.0271  -50.1319 H         1 UNK         0.0800 
    140 H140        3.2602  -20.4401  -48.5073 H         1 UNK         0.0800 
    141 H141       -0.0007  -20.3656  -48.2508 H         1 UNK         0.0800 
    142 H142        1.1794  -20.8498  -47.0558 H         1 UNK         0.0800 
    143 H143       -1.1199  -22.6092  -48.0519 H         1 UNK         0.0600 
    144 H144        1.0927  -23.2818  -46.3704 H         1 UNK         0.3000 
    145 H145       -0.4398  -26.1174  -44.8074 H         1 UNK         0.0600 
    146 H146        1.6172  -27.1256  -45.7624 H         1 UNK         0.0600 
    147 H147        0.4444  -26.8280  -47.0353 H         1 UNK         0.0600 
    148 H148        1.8237  -25.7520  -46.8493 H         1 UNK         0.0600 
    149 H149        2.1369  -24.9176  -44.5193 H         1 UNK         0.3000 
    150 H150        1.3271  -22.6286  -41.9157 H         1 UNK         0.0600 
    151 H151        1.5734  -24.8422  -40.7804 H         1 UNK         0.0600 
    152 H152        3.0716  -23.9275  -40.7361 H         1 UNK         0.0600 
    153 H153        2.8887  -25.2667  -41.8695 H         1 UNK         0.0600 
    154 H154        3.8186  -23.2837  -43.0730 H         1 UNK         0.3000 
    155 H155        4.8770  -21.5734  -44.1955 H         1 UNK         0.0600 
    156 H156        3.3982  -22.2326  -46.8166 H         1 UNK         0.0600 
    157 H157        4.4365  -23.3260  -45.9138 H         1 UNK         0.0600 
    158 H158        5.1270  -21.9145  -46.6987 H         1 UNK         0.0600 
    159 H159        2.8865  -19.7388  -45.1882 H         1 UNK         0.3000 
    160 H160        5.1033  -17.0730  -44.8278 H         1 UNK         0.0600 
    161 H161        5.5538  -17.2937  -47.2346 H         1 UNK         0.0600 
    162 H162        4.2366  -16.1563  -46.9975 H         1 UNK         0.0600 
    163 H163        3.9038  -17.7984  -47.5478 H         1 UNK         0.0600 
    164 H164        2.3902  -17.0190  -45.6127 H         1 UNK         0.3000 
    165 H165        0.5687  -17.4448  -43.9995 H         1 UNK         0.0600 
    166 H166       -0.2177  -16.8881  -41.7242 H         1 UNK         0.0600 
    167 H167        0.9195  -18.2210  -41.6089 H         1 UNK         0.0600 
    168 H168        1.4315  -16.5960  -41.1757 H         1 UNK         0.0600 
    169 H169        2.1501  -15.0473  -43.6509 H         1 UNK         0.3000 
    170 H170        1.3651  -12.9933  -43.8366 H         1 UNK         0.0600 
    171 H171        1.2774  -13.6154  -46.2068 H         1 UNK         0.0600 
    172 H172       -0.4742  -13.5009  -46.2266 H         1 UNK         0.0600 
    173 H173        0.5030  -12.0449  -46.0308 H         1 UNK         0.0600 
    174 H174       -1.6191  -12.7404  -43.9558 H         1 UNK         0.3000 
    175 H175       -2.1320  -11.3787  -41.4350 H         1 UNK         0.0600 
    176 H176       -1.0458   -8.7113  -42.4758 H         1 UNK         0.0600 
    177 H177       -2.3898   -8.8867  -41.3481 H         1 UNK         0.0600 
    178 H178       -0.7790   -9.4032  -40.8822 H         1 UNK         0.0600 
    179 H179       -3.6772  -11.2890  -42.9893 H         1 UNK         0.3000 
    180 H180       -4.9452  -10.7177  -44.6245 H         1 UNK         0.0600 
    181 H181       -5.5822   -9.1901  -46.4410 H         1 UNK         0.0600 
    182 H182       -3.9091   -8.6774  -46.6597 H         1 UNK         0.0600 
    183 H183       -4.7703   -8.2788  -45.1782 H         1 UNK         0.0600 
    184 H184       -4.1467  -11.0636  -47.2764 H         1 UNK         0.3000 
    185 H185       -4.4539  -13.6347  -47.8141 H         1 UNK         0.0600 
    186 H186       -2.3935  -13.6083  -49.3080 H         1 UNK         0.0600 
    187 H187       -2.9027  -11.9952  -48.8571 H         1 UNK         0.0600 
    188 H188       -1.5174  -12.7255  -48.0644 H         1 UNK         0.0600 
    189 H189       -2.6388  -14.8445  -46.0062 H         1 UNK         0.3000 
    190 H190       -0.1714  -21.5601  -44.7452 H         1 UNK         0.3000 
    191 H191       -2.2285  -19.6499  -44.4109 H         1 UNK         0.0600 
    192 H192       -1.6632  -19.8081  -42.0139 H         1 UNK         0.0600 
    193 H193       -0.1927  -19.8240  -42.9783 H         1 UNK         0.0600 
    194 H194       -0.8024  -21.3206  -42.2793 H         1 UNK         0.0600 
    195 H195       -2.1806  -23.1621  -43.7269 H         1 UNK         0.3000 
    196 H196       -4.8151  -23.3004  -42.6033 H         1 UNK         0.0600 
    197 H197       -3.0485  -25.4588  -43.8743 H         1 UNK         0.0600 
    198 H198       -3.0920  -25.0201  -42.1689 H         1 UNK         0.0600 
    199 H199       -4.4973  -25.7606  -42.9210 H         1 UNK         0.0600 
    200 H200       -3.5463  -23.9097  -45.9163 H         1 UNK         0.3000 
    201 H201       -6.1172  -24.6907  -46.9744 H         1 UNK         0.0600 
    202 H202       -3.4771  -24.0289  -48.3739 H         1 UNK         0.0600 
    203 H203       -4.8363  -24.8933  -49.0861 H         1 UNK         0.0600 
    204 H204       -3.9400  -25.6185  -47.7653 H         1 UNK         0.0600 
    205 H205       -4.7505  -21.6096  -46.4459 H         1 UNK         0.3000 
    206 H206       -5.1780  -19.5193  -47.0206 H         1 UNK         0.0600 
    207 H207       -7.6047  -19.9933  -46.6950 H         1 UNK         0.0600 
    208 H208       -7.3312  -18.7990  -47.9538 H         1 UNK         0.0600 
    209 H209       -7.7568  -20.4451  -48.3927 H         1 UNK         0.0600 
    210 H210       -3.2944  -20.5851  -48.2347 H         1 UNK         0.3000 
    211 H211       -1.7700  -20.3630  -49.7886 H         1 UNK         0.0600 
    212 H212       -1.9066  -18.8328  -51.6382 H         1 UNK         0.0600 
    213 H213       -2.7079  -18.0663  -50.2823 H         1 UNK         0.0600 
    214 H214       -3.6617  -18.7760  -51.5845 H         1 UNK         0.0600 
    215 H215       -4.7940  -21.7574  -50.6634 H         1 UNK         0.3000 
    216 H216       -4.3833  -22.7065  -53.2093 H         1 UNK         0.0600 
    217 H217       -6.0003  -24.0392  -50.9812 H         1 UNK         0.0600 
    218 H218       -6.2312  -24.2703  -52.7073 H         1 UNK         0.0600 
    219 H219       -6.5527  -22.7013  -51.9867 H         1 UNK         0.0600 
    220 H220       -2.6988  -23.8748  -50.4718 H         1 UNK         0.3000 
    221 H221       -2.0228  -26.5304  -51.3675 H         1 UNK         0.0600 
    222 H222       -1.7537  -25.8408  -48.9959 H         1 UNK         0.0600 
    223 H223       -0.5880  -24.5999  -49.4596 H         1 UNK         0.0600 
    224 H224       -0.1983  -26.3015  -49.6615 H         1 UNK         0.0600 
    225 H225       -0.9083  -23.2896  -52.2107 H         1 UNK         0.3000 
    226 H226        1.4356  -24.3473  -53.7264 H         1 UNK         0.0600 
    227 H227        1.9736  -22.5321  -52.1712 H         1 UNK         0.0600 
    228 H228        2.0820  -21.9295  -53.8183 H         1 UNK         0.0600 
    229 H229        0.6885  -21.5202  -52.8236 H         1 UNK         0.0600 
    230 H230       -1.2127  -21.8814  -54.0986 H         1 UNK         0.3000 
    231 H231       -2.0251  -22.7053  -56.6988 H         1 UNK         0.0600 
    232 H232       -0.1807  -20.2368  -56.5639 H         1 UNK         0.0600 
    233 H233       -1.0602  -20.7732  -57.9909 H         1 UNK         0.0600 
    234 H234        0.2364  -21.7516  -57.3545 H         1 UNK         0.0600 
    235 H235       -3.0686  -20.3639  -57.6738 H         1 UNK         0.3000 
    236 H236       -5.1797  -19.6671  -55.8534 H         1 UNK         0.0600 
    237 H237       -5.4987  -19.6613  -58.3104 H         1 UNK         0.0600 
    238 H238       -5.8131  -18.0610  -57.6591 H         1 UNK         0.0600 
    239 H239       -4.2988  -18.3820  -58.4958 H         1 UNK         0.0600 
    240 H240       -2.1409  -18.1065  -56.8143 H         1 UNK         0.3000 
    241 H241       -0.8947  -16.4752  -56.0196 H         1 UNK         0.0600 
    242 H242       -3.6937  -13.8774  -56.4055 H         1 UNK         0.3800 
    243 H243       -3.6613  -15.5150  -57.0059 H         1 UNK         0.3800 
    244 H244       -2.2144  -17.1728  -53.3575 H         1 UNK         0.0800 
    245 H245       -0.7936  -16.1809  -53.5005 H         1 UNK         0.0800 
    246 H246        1.4350  -16.8207  -53.6771 H         1 UNK         0.0800 
    247 H247        2.0901  -18.4172  -53.8953 H         1 UNK         0.0800 
@<TRIPOS>BOND
     1    1    2 1    
     2    1  127 1    
     3    1  128 1    
     4    1  129 1    
     5    2    3 2    
     6    2    4 am   BACKBONE|DICT|INTERRES
     7    4    5 1    
     8    4  130 1    
     9    5    6 1    
    10    5   65 1    
    11    5  131 1    
    12    6    7 1    
    13    6  132 1    
    14    6  133 1    
    15    7    8 1    
    16    8    9 1    
    17    8  134 1    
    18    8  135 1    
    19    9   10 ar   
    20    9   14 ar   
    21   10   11 ar   
    22   10  136 1    
    23   11   12 ar   
    24   11  126 1    
    25   12   13 ar   
    26   12  137 1    
    27   13   14 ar   
    28   13   15 1    
    29   14  138 1    
    30   15   16 1    
    31   15  139 1    
    32   15  140 1    
    33   16   17 1    
    34   17   18 1    
    35   17  141 1    
    36   17  142 1    
    37   18   19 1    
    38   18   67 1    
    39   18  143 1    
    40   19   20 am   BACKBONE|DICT|INTERRES
    41   19  144 1    
    42   20   21 2    
    43   20   22 1    
    44   22   23 1    
    45   22   24 1    
    46   22  145 1    
    47   23  146 1    
    48   23  147 1    
    49   23  148 1    
    50   24   25 am   BACKBONE|DICT|INTERRES
    51   24  149 1    
    52   25   26 2    
    53   25   27 1    
    54   27   28 1    
    55   27   29 1    
    56   27  150 1    
    57   28  151 1    
    58   28  152 1    
    59   28  153 1    
    60   29   30 am   BACKBONE|DICT|INTERRES
    61   29  154 1    
    62   30   31 2    
    63   30   32 1    
    64   32   33 1    
    65   32   34 1    
    66   32  155 1    
    67   33  156 1    
    68   33  157 1    
    69   33  158 1    
    70   34   35 am   BACKBONE|DICT|INTERRES
    71   34  159 1    
    72   35   36 2    
    73   35   37 1    
    74   37   38 1    
    75   37   39 1    
    76   37  160 1    
    77   38  161 1    
    78   38  162 1    
    79   38  163 1    
    80   39   40 am   BACKBONE|DICT|INTERRES
    81   39  164 1    
    82   40   41 2    
    83   40   42 1    
    84   42   43 1    
    85   42   44 1    
    86   42  165 1    
    87   43  166 1    
    88   43  167 1    
    89   43  168 1    
    90   44   45 am   BACKBONE|DICT|INTERRES
    91   44  169 1    
    92   45   46 2    
    93   45   47 1    
    94   47   48 1    
    95   47   49 1    
    96   47  170 1    
    97   48  171 1    
    98   48  172 1    
    99   48  173 1    
   100   49   50 am   BACKBONE|DICT|INTERRES
   101   49  174 1    
   102   50   51 2    
   103   50   52 1    
   104   52   53 1    
   105   52   54 1    
   106   52  175 1    
   107   53  176 1    
   108   53  177 1    
   109   53  178 1    
   110   54   55 am   BACKBONE|DICT|INTERRES
   111   54  179 1    
   112   55   56 2    
   113   55   57 1    
   114   57   58 1    
   115   57   59 1    
   116   57  180 1    
   117   58  181 1    
   118   58  182 1    
   119   58  183 1    
   120   59   60 am   BACKBONE|DICT|INTERRES
   121   59  184 1    
   122   60   61 2    
   123   60   62 1    
   124   62   63 1    
   125   62   64 1    
   126   62  185 1    
   127   63  186 1    
   128   63  187 1    
   129   63  188 1    
   130   64   65 am   BACKBONE|DICT|INTERRES
   131   64  189 1    
   132   65   66 2    
   133   67   68 2    
   134   67   69 am   BACKBONE|DICT|INTERRES
   135   69   70 1    
   136   69  190 1    
   137   70   71 1    
   138   70   72 1    
   139   70  191 1    
   140   71  192 1    
   141   71  193 1    
   142   71  194 1    
   143   72   73 2    
   144   72   74 am   BACKBONE|DICT|INTERRES
   145   74   75 1    
   146   74  195 1    
   147   75   76 1    
   148   75   77 1    
   149   75  196 1    
   150   76  197 1    
   151   76  198 1    
   152   76  199 1    
   153   77   78 2    
   154   77   79 am   BACKBONE|DICT|INTERRES
   155   79   80 1    
   156   79  200 1    
   157   80   81 1    
   158   80   82 1    
   159   80  201 1    
   160   81  202 1    
   161   81  203 1    
   162   81  204 1    
   163   82   83 2    
   164   82   84 am   BACKBONE|DICT|INTERRES
   165   84   85 1    
   166   84  205 1    
   167   85   86 1    
   168   85   87 1    
   169   85  206 1    
   170   86  207 1    
   171   86  208 1    
   172   86  209 1    
   173   87   88 2    
   174   87   89 am   BACKBONE|DICT|INTERRES
   175   89   90 1    
   176   89  210 1    
   177   90   91 1    
   178   90   92 1    
   179   90  211 1    
   180   91  212 1    
   181   91  213 1    
   182   91  214 1    
   183   92   93 2    
   184   92   94 am   BACKBONE|DICT|INTERRES
   185   94   95 1    
   186   94  215 1    
   187   95   96 1    
   188   95   97 1    
   189   95  216 1    
   190   96  217 1    
   191   96  218 1    
   192   96  219 1    
   193   97   98 2    
   194   97   99 am   BACKBONE|DICT|INTERRES
   195   99  100 1    
   196   99  220 1    
   197  100  101 1    
   198  100  102 1    
   199  100  221 1    
   200  101  222 1    
   201  101  223 1    
   202  101  224 1    
   203  102  103 2    
   204  102  104 am   BACKBONE|DICT|INTERRES
   205  104  105 1    
   206  104  225 1    
   207  105  106 1    
   208  105  107 1    
   209  105  226 1    
   210  106  227 1    
   211  106  228 1    
   212  106  229 1    
   213  107  108 2    
   214  107  109 am   BACKBONE|DICT|INTERRES
   215  109  110 1    
   216  109  230 1    
   217  110  111 1    
   218  110  112 1    
   219  110  231 1    
   220  111  232 1    
   221  111  233 1    
   222  111  234 1    
   223  112  113 2    
   224  112  114 am   BACKBONE|DICT|INTERRES
   225  114  115 1    
   226  114  235 1    
   227  115  116 1    
   228  115  117 1    
   229  115  236 1    
   230  116  237 1    
   231  116  238 1    
   232  116  239 1    
   233  117  118 2    
   234  117  119 am   BACKBONE|DICT|INTERRES
   235  119  120 1    
   236  119  240 1    
   237  120  121 1    
   238  120  124 1    
   239  120  241 1    
   240  121  122 am   BACKBONE|DICT|INTERRES
   241  121  123 2    
   242  122  242 1    
   243  122  243 1    
   244  124  125 1    
   245  124  244 1    
   246  124  245 1    
   247  125  126 1    
   248  126  246 1    
   249  126  247 1    
@<TRIPOS>SUBSTRUCTURE
     1 UNK         1 GROUP             0       ****    0 ROOT    
