@<TRIPOS>MOLECULE
3R540
247   249    1
SMALL
USER_CHARGES


@<TRIPOS>ATOM
      1 CA         -0.3322  -18.1925  -50.1110 C.3       0 UNK        -0.1800 
      2 C           0.0659  -16.8049  -50.5875 C.2       0 UNK         0.5000 
      3 O          -0.7002  -15.8549  -50.4125 O.2       0 UNK        -0.5000 
      4 N           1.2631  -16.6898  -51.1789 N.am      1 UNK        -0.5000 
      5 CA          1.8291  -15.4734  -51.7821 C.3       1 UNK         0.1400 
      6 C6          3.2275  -15.7354  -52.3939 C.3       23 UNK        -0.0398 
      7 S7          3.1786  -16.8153  -53.8614 S.3       23 UNK        -0.2404 
      8 C8          4.0515  -18.3140  -53.2939 C.3       23 UNK        -0.0205 
      9 C9          3.1084  -19.3369  -52.6766 C.ar      23 UNK        -0.0193 
     10 C10         2.0382  -19.8297  -53.4263 C.ar      23 UNK        -0.1150 
     11 C11         1.1619  -20.7740  -52.8886 C.ar      23 UNK        -0.0193 
     12 C12         1.3949  -21.2692  -51.6025 C.ar      23 UNK        -0.1150 
     13 C13         2.4750  -20.8031  -50.8466 C.ar      23 UNK        -0.0193 
     14 C14         3.3203  -19.8248  -51.3835 C.ar      23 UNK        -0.1150 
     15 C15         2.7430  -21.3677  -49.4596 C.3       23 UNK        -0.0205 
     16 S16         1.7762  -20.5137  -48.1770 S.3       23 UNK        -0.2404 
     17 C17         0.3354  -21.6225  -47.9537 C.3       23 UNK        -0.0398 
     18 CA          0.5227  -22.6005  -46.7619 C.3       11 UNK         0.1400 
     19 N           0.8795  -21.9082  -45.5200 N.am      11 UNK        -0.5000 
     20 C           1.7848  -22.3391  -44.6342 C.2       10 UNK         0.5000 
     21 O           2.3498  -23.4306  -44.7101 O.2       10 UNK        -0.5000 
     22 CA          2.1010  -21.3984  -43.4599 C.3       10 UNK         0.1400 
     23 CB          3.0482  -20.2779  -43.9155 C.3       10 UNK        -0.1800 
     24 N           0.9042  -20.8159  -42.8494 N.am      10 UNK        -0.5000 
     25 C          -0.0037  -21.5140  -42.1520 C.2       9 UNK         0.5000 
     26 O           0.0629  -22.7305  -41.9751 O.2       9 UNK        -0.5000 
     27 CA         -1.1853  -20.7275  -41.5523 C.3       9 UNK         0.1400 
     28 CB         -0.7475  -19.9448  -40.3049 C.3       9 UNK        -0.1800 
     29 N          -1.8013  -19.8109  -42.5091 N.am      9 UNK        -0.5000 
     30 C          -2.4723  -20.1952  -43.6035 C.2       8 UNK         0.5000 
     31 O          -2.6889  -21.3681  -43.8996 O.2       8 UNK        -0.5000 
     32 CA         -2.9375  -19.0780  -44.5545 C.3       8 UNK         0.1400 
     33 CB         -4.2427  -18.4350  -44.0587 C.3       8 UNK        -0.1800 
     34 N          -1.9120  -18.0502  -44.7401 N.am      8 UNK        -0.5000 
     35 C          -0.7046  -18.2811  -45.2761 C.2       7 UNK         0.5000 
     36 O          -0.3447  -19.3732  -45.7068 O.2       7 UNK        -0.5000 
     37 CA          0.2816  -17.1058  -45.2829 C.3       7 UNK         0.1400 
     38 CB         -0.0131  -16.1652  -46.4635 C.3       7 UNK        -0.1800 
     39 N           0.2209  -16.3653  -44.0221 N.am      7 UNK        -0.5000 
     40 C           0.6726  -16.8321  -42.8475 C.2       6 UNK         0.5000 
     41 O           1.2319  -17.9193  -42.7181 O.2       6 UNK        -0.5000 
     42 CA          0.4195  -15.9655  -41.5984 C.3       6 UNK         0.1400 
     43 CB          1.5650  -14.9620  -41.4003 C.3       6 UNK        -0.1800 
     44 N          -0.8494  -15.2412  -41.6592 N.am      6 UNK        -0.5000 
     45 C          -2.0591  -15.8187  -41.6886 C.2       5 UNK         0.5000 
     46 O          -2.2367  -17.0292  -41.5551 O.2       5 UNK        -0.5000 
     47 CA         -3.2601  -14.8953  -41.9868 C.3       5 UNK         0.1400 
     48 CB         -3.9132  -14.4225  -40.6801 C.3       5 UNK        -0.1800 
     49 N          -2.9045  -13.7266  -42.8034 N.am      5 UNK        -0.5000 
     50 C          -2.3889  -13.7930  -44.0392 C.2       4 UNK         0.5000 
     51 O          -2.2228  -14.8572  -44.6386 O.2       4 UNK        -0.5000 
     52 CA         -1.8951  -12.4640  -44.6460 C.3       4 UNK         0.1400 
     53 CB         -0.6965  -11.9232  -43.8467 C.3       4 UNK        -0.1800 
     54 N          -1.4761  -12.5928  -46.0412 N.am      4 UNK        -0.5000 
     55 C          -2.2808  -12.7848  -47.0896 C.2       3 UNK         0.5000 
     56 O          -3.5072  -12.8482  -46.9963 O.2       3 UNK        -0.5000 
     57 CA         -1.6323  -12.9187  -48.4854 C.3       3 UNK         0.1400 
     58 CB         -1.7621  -11.6024  -49.2756 C.3       3 UNK        -0.1800 
     59 N          -0.2482  -13.4189  -48.5459 N.am      3 UNK        -0.5000 
     60 C           0.8805  -12.8495  -48.0910 C.2       2 UNK         0.5000 
     61 O           0.8974  -11.8384  -47.3893 O.2       2 UNK        -0.5000 
     62 CA          2.2252  -13.5033  -48.4804 C.3       2 UNK         0.1400 
     63 CB          2.9612  -14.0914  -47.2641 C.3       2 UNK        -0.1800 
     64 N           2.1155  -14.5289  -49.5213 N.am      2 UNK        -0.5000 
     65 C           1.9148  -14.2675  -50.8208 C.2       1 UNK         0.5000 
     66 O           1.8025  -13.1282  -51.2749 O.2       1 UNK        -0.5000 
     67 C          -0.6906  -23.5391  -46.5682 C.2       11 UNK         0.5000 
     68 O          -1.2881  -23.9727  -47.5567 O.2       11 UNK        -0.5000 
     69 N          -1.0293  -23.8614  -45.3099 N.am      12 UNK        -0.5000 
     70 CA         -2.1054  -24.7728  -44.9156 C.3       12 UNK         0.1400 
     71 CB         -2.2158  -24.8169  -43.3840 C.3       12 UNK        -0.1800 
     72 C          -1.9277  -26.1894  -45.4845 C.2       12 UNK         0.5000 
     73 O          -2.8577  -26.7281  -46.0824 O.2       12 UNK        -0.5000 
     74 N          -0.7238  -26.7497  -45.3175 N.am      13 UNK        -0.5000 
     75 CA         -0.3608  -28.0662  -45.8433 C.3       13 UNK         0.1400 
     76 CB          0.7990  -28.6328  -45.0100 C.3       13 UNK        -0.1800 
     77 C           0.0230  -28.0200  -47.3337 C.2       13 UNK         0.5000 
     78 O          -0.1476  -29.0178  -48.0346 O.2       13 UNK        -0.5000 
     79 N           0.5574  -26.8761  -47.7819 N.am      14 UNK        -0.5000 
     80 CA          1.1009  -26.6915  -49.1259 C.3       14 UNK         0.1400 
     81 CB          2.0701  -25.4995  -49.1212 C.3       14 UNK        -0.1800 
     82 C           0.0188  -26.4841  -50.1972 C.2       14 UNK         0.5000 
     83 O           0.1487  -27.0320  -51.2928 O.2       14 UNK        -0.5000 
     84 N          -1.0009  -25.6739  -49.8833 N.am      15 UNK        -0.5000 
     85 CA         -1.9739  -25.1811  -50.8594 C.3       15 UNK         0.1400 
     86 CB         -1.4428  -23.8774  -51.4815 C.3       15 UNK        -0.1800 
     87 C          -3.3765  -25.0010  -50.2596 C.2       15 UNK         0.5000 
     88 O          -4.1537  -24.2031  -50.7819 O.2       15 UNK        -0.5000 
     89 N          -3.6860  -25.7260  -49.1746 N.am      16 UNK        -0.5000 
     90 CA         -4.9791  -25.7227  -48.4759 C.3       16 UNK         0.1400 
     91 CB         -6.0787  -26.3444  -49.3638 C.3       16 UNK        -0.1800 
     92 C          -5.3724  -24.3373  -47.9145 C.2       16 UNK         0.5000 
     93 O          -6.5588  -24.0071  -47.8721 O.2       16 UNK        -0.5000 
     94 N          -4.3635  -23.5584  -47.4918 N.am      17 UNK        -0.5000 
     95 CA         -4.4686  -22.2231  -46.8911 C.3       17 UNK         0.1400 
     96 CB         -5.2829  -22.2663  -45.5784 C.3       17 UNK        -0.1800 
     97 C          -4.9810  -21.1418  -47.8668 C.2       17 UNK         0.5000 
     98 O          -5.6101  -20.1757  -47.4310 O.2       17 UNK        -0.5000 
     99 N          -4.6897  -21.2998  -49.1665 N.am      18 UNK        -0.5000 
    100 CA        -5.0850  -20.4078  -50.2641 C.3       18 UNK         0.1400 
    101 CB        -4.9466  -21.1770  -51.5902 C.3       18 UNK        -0.1800 
    102 C         -4.3369  -19.0524  -50.2848 C.2       18 UNK         0.5000 
    103 O         -3.8022  -18.6529  -51.3210 O.2       18 UNK        -0.5000 
    104 N         -4.3260  -18.3534  -49.1427 N.am      19 UNK        -0.5000 
    105 CA        -3.7592  -17.0186  -48.9535 C.3       19 UNK         0.1400 
    106 CB        -3.9595  -16.5866  -47.4964 C.3       19 UNK        -0.1800 
    107 C         -4.3786  -15.9962  -49.9198 C.2       19 UNK         0.5000 
    108 O         -5.6055  -15.9057  -50.0011 O.2       19 UNK        -0.5000 
    109 N         -3.5193  -15.2973  -50.6722 N.am      20 UNK        -0.5000 
    110 CA        -3.8103  -14.3438  -51.7516 C.3       20 UNK         0.1400 
    111 CB        -4.7074  -13.1875  -51.2705 C.3       20 UNK        -0.1800 
    112 C         -4.3782  -14.9948  -53.0298 C.2       20 UNK         0.5000 
    113 O         -4.0340  -14.5552  -54.1272 O.2       20 UNK        -0.5000 
    114 N         -5.1932  -16.0484  -52.8848 N.am      21 UNK        -0.5000 
    115 CA        -5.7686  -16.8531  -53.9663 C.3       21 UNK         0.1400 
    116 CB        -6.7649  -17.8589  -53.3716 C.3       21 UNK        -0.1800 
    117 C         -4.7139  -17.5598  -54.8429 C.2       21 UNK         0.5000 
    118 O         -4.9674  -17.7822  -56.0276 O.2       21 UNK        -0.5000 
    119 N         -3.5380  -17.8448  -54.2679 N.am      22 UNK        -0.5000 
    120 CA        -2.3165  -18.2376  -54.9900 C.3       22 UNK         0.1400 
    121 C         -1.7480  -17.1564  -55.9631 C.2       22 UNK         0.5000 
    122 N         -2.1534  -15.8932  -55.8977 N.am      22 UNK        -0.7600 
    123 O         -0.9167  -17.4774  -56.8079 O.2       22 UNK        -0.5000 
    124 C124       -1.2086  -18.7018  -54.0111 C.3       23 UNK        -0.0398 
    125 S125       -1.5467  -20.3361  -53.2718 S.3       23 UNK        -0.2404 
    126 C126       -0.0321  -21.2546  -53.7003 C.3       23 UNK        -0.0205 
    127 H127       -1.2505  -18.5100  -50.6019 H         1 UNK         0.0600 
    128 H128       -0.4944  -18.1982  -49.0334 H         1 UNK         0.0600 
    129 H129        0.4354  -18.9274  -50.3417 H         1 UNK         0.0600 
    130 H130        1.8212  -17.5233  -51.3018 H         1 UNK         0.3000 
    131 H131        1.1521  -15.1779  -52.5865 H         1 UNK         0.0600 
    132 H132        3.6844  -14.8000  -52.7239 H         1 UNK         0.0800 
    133 H133        3.9035  -16.1469  -51.6426 H         1 UNK         0.0800 
    134 H134        4.8558  -18.0469  -52.6070 H         1 UNK         0.0800 
    135 H135        4.5346  -18.7756  -54.1561 H         1 UNK         0.0800 
    136 H136        1.8861  -19.4645  -54.4318 H         1 UNK         0.1150 
    137 H137        0.7314  -22.0118  -51.1872 H         1 UNK         0.1150 
    138 H138        4.1556  -19.4612  -50.8014 H         1 UNK         0.1150 
    139 H139        2.5402  -22.4384  -49.4410 H         1 UNK         0.0800 
    140 H140        3.8017  -21.2624  -49.2181 H         1 UNK         0.0800 
    141 H141        0.1580  -22.1696  -48.8801 H         1 UNK         0.0800 
    142 H142       -0.5476  -21.0004  -47.8004 H         1 UNK         0.0800 
    143 H143        1.3521  -23.2551  -47.0328 H         1 UNK         0.0600 
    144 H144        0.4616  -20.9864  -45.4023 H         1 UNK         0.3000 
    145 H145        2.6165  -21.9841  -42.6958 H         1 UNK         0.0600 
    146 H146        3.3647  -19.6627  -43.0732 H         1 UNK         0.0600 
    147 H147        3.9486  -20.6878  -44.3746 H         1 UNK         0.0600 
    148 H148        2.5739  -19.6243  -44.6489 H         1 UNK         0.0600 
    149 H149        0.8094  -19.8067  -42.9170 H         1 UNK         0.3000 
    150 H150       -1.9442  -21.4511  -41.2472 H         1 UNK         0.0600 
    151 H151       -0.3107  -20.6104  -39.5595 H         1 UNK         0.0600 
    152 H152       -1.5951  -19.4431  -39.8376 H         1 UNK         0.0600 
    153 H153       -0.0025  -19.1858  -40.5448 H         1 UNK         0.0600 
    154 H154       -1.7209  -18.8185  -42.3123 H         1 UNK         0.3000 
    155 H155       -3.1317  -19.5297  -45.5294 H         1 UNK         0.0600 
    156 H156       -4.1307  -17.9980  -43.0674 H         1 UNK         0.0600 
    157 H157       -5.0408  -19.1748  -43.9955 H         1 UNK         0.0600 
    158 H158       -4.5841  -17.6495  -44.7320 H         1 UNK         0.0600 
    159 H159       -2.1276  -17.1127  -44.4253 H         1 UNK         0.3000 
    160 H160        1.2948  -17.4969  -45.3975 H         1 UNK         0.0600 
    161 H161       -1.0810  -16.0539  -46.6523 H         1 UNK         0.0600 
    162 H162        0.4366  -16.5447  -47.3807 H         1 UNK         0.0600 
    163 H163        0.3821  -15.1679  -46.2824 H         1 UNK         0.0600 
    164 H164       -0.3195  -15.5105  -44.0378 H         1 UNK         0.3000 
    165 H165        0.3893  -16.6295  -40.7321 H         1 UNK         0.0600 
    166 H166        1.4346  -14.3907  -40.4811 H         1 UNK         0.0600 
    167 H167        2.5248  -15.4756  -41.3289 H         1 UNK         0.0600 
    168 H168        1.6314  -14.2560  -42.2291 H         1 UNK         0.0600 
    169 H169       -0.7960  -14.2389  -41.7589 H         1 UNK         0.3000 
    170 H170       -3.9930  -15.4813  -42.5450 H         1 UNK         0.0600 
    171 H171       -4.2094  -15.2717  -40.0626 H         1 UNK         0.0600 
    172 H172       -3.2333  -13.8078  -40.0889 H         1 UNK         0.0600 
    173 H173       -4.8115  -13.8372  -40.8771 H         1 UNK         0.0600 
    174 H174       -3.0138  -12.8234  -42.3649 H         1 UNK         0.3000 
    175 H175       -2.7126  -11.7422  -44.5956 H         1 UNK         0.0600 
    176 H176        0.1393  -12.6243  -43.8524 H         1 UNK         0.0600 
    177 H177       -0.3407  -10.9805  -44.2634 H         1 UNK         0.0600 
    178 H178       -0.9600  -11.7313  -42.8061 H         1 UNK         0.0600 
    179 H179       -0.4872  -12.4827  -46.2374 H         1 UNK         0.3000 
    180 H180       -2.2251  -13.6681  -49.0063 H         1 UNK         0.0600 
    181 H181       -1.1576  -10.8061  -48.8409 H         1 UNK         0.0600 
    182 H182       -2.7940  -11.2504  -49.2898 H         1 UNK         0.0600 
    183 H183       -1.4494  -11.7346  -50.3116 H         1 UNK         0.0600 
    184 H184       -0.1415  -14.2628  -49.0974 H         1 UNK         0.3000 
    185 H185        2.8467  -12.6932  -48.8680 H         1 UNK         0.0600 
    186 H186        2.9435  -13.4064  -46.4153 H         1 UNK         0.0600 
    187 H187        2.5329  -15.0367  -46.9367 H         1 UNK         0.0600 
    188 H188        4.0086  -14.2773  -47.5024 H         1 UNK         0.0600 
    189 H189        2.1959  -15.4916  -49.2290 H         1 UNK         0.3000 
    190 H190       -0.5078  -23.4337  -44.5574 H         1 UNK         0.3000 
    191 H191       -3.0404  -24.3748  -45.3052 H         1 UNK         0.0600 
    192 H192       -1.2864  -25.1481  -42.9193 H         1 UNK         0.0600 
    193 H193       -3.0048  -25.5003  -43.0677 H         1 UNK         0.0600 
    194 H194       -2.4585  -23.8361  -42.9765 H         1 UNK         0.0600 
    195 H195       -0.0139  -26.2431  -44.8083 H         1 UNK         0.3000 
    196 H196       -1.2130  -28.7416  -45.7391 H         1 UNK         0.0600 
    197 H197        1.0830  -29.6260  -45.3604 H         1 UNK         0.0600 
    198 H198        0.5203  -28.7275  -43.9603 H         1 UNK         0.0600 
    199 H199        1.6849  -27.9989  -45.0667 H         1 UNK         0.0600 
    200 H200        0.6495  -26.1067  -47.1380 H         1 UNK         0.3000 
    201 H201        1.6706  -27.5847  -49.3922 H         1 UNK         0.0600 
    202 H202        2.8475  -25.6187  -48.3663 H         1 UNK         0.0600 
    203 H203        1.5487  -24.5632  -48.9283 H         1 UNK         0.0600 
    204 H204        2.5671  -25.3997  -50.0871 H         1 UNK         0.0600 
    205 H205       -1.0372  -25.2391  -48.9650 H         1 UNK         0.3000 
    206 H206       -2.0952  -25.9150  -51.6586 H         1 UNK         0.0600 
    207 H207       -0.4521  -24.0251  -51.9103 H         1 UNK         0.0600 
    208 H208       -2.0930  -23.5264  -52.2839 H         1 UNK         0.0600 
    209 H209       -1.3772  -23.0807  -50.7399 H         1 UNK         0.0600 
    210 H210       -2.9830  -26.3437  -48.7928 H         1 UNK         0.3000 
    211 H211       -4.8679  -26.3748  -47.6106 H         1 UNK         0.0600 
    212 H212       -6.3136  -25.7139  -50.2219 H         1 UNK         0.0600 
    213 H213       -7.0022  -26.4859  -48.8012 H         1 UNK         0.0600 
    214 H214       -5.7769  -27.3225  -49.7383 H         1 UNK         0.0600 
    215 H215       -3.4192  -23.9100  -47.6075 H         1 UNK         0.3000 
    216 H216       -3.4501  -21.9314  -46.6315 H         1 UNK         0.0600 
    217 H217       -5.2306  -21.3120  -45.0558 H         1 UNK         0.0600 
    218 H218       -4.9022  -23.0235  -44.8941 H         1 UNK         0.0600 
    219 H219       -6.3378  -22.4744  -45.7564 H         1 UNK         0.0600 
    220 H220       -4.1964  -22.1377  -49.4437 H         1 UNK         0.3000 
    221 H221       -6.1427  -20.1692  -50.1370 H         1 UNK         0.0600 
    222 H222       -3.9228  -21.5180  -51.7473 H         1 UNK         0.0600 
    223 H223       -5.5964  -22.0519  -51.6050 H         1 UNK         0.0600 
    224 H224       -5.2201  -20.5627  -52.4479 H         1 UNK         0.0600 
    225 H225       -4.8222  -18.7574  -48.3532 H         1 UNK         0.3000 
    226 H226       -2.6890  -17.0847  -49.1396 H         1 UNK         0.0600 
    227 H227       -3.4673  -17.2812  -46.8205 H         1 UNK         0.0600 
    228 H228       -3.5315  -15.6008  -47.3146 H         1 UNK         0.0600 
    229 H229       -5.0155  -16.5436  -47.2274 H         1 UNK         0.0600 
    230 H230       -2.5279  -15.5037  -50.5619 H         1 UNK         0.3000 
    231 H231       -2.8435  -13.9159  -52.0220 H         1 UNK         0.0600 
    232 H232       -4.3333  -12.7517  -50.3454 H         1 UNK         0.0600 
    233 H233       -5.7332  -13.5119  -51.0940 H         1 UNK         0.0600 
    234 H234       -4.7445  -12.3924  -52.0160 H         1 UNK         0.0600 
    235 H235       -5.4320  -16.3189  -51.9369 H         1 UNK         0.3000 
    236 H236       -6.3224  -16.1746  -54.6182 H         1 UNK         0.0600 
    237 H237       -7.1928  -18.4954  -54.1472 H         1 UNK         0.0600 
    238 H238       -6.2896  -18.5067  -52.6369 H         1 UNK         0.0600 
    239 H239       -7.5913  -17.3472  -52.8780 H         1 UNK         0.0600 
    240 H240       -3.4544  -17.7349  -53.2640 H         1 UNK         0.3000 
    241 H241       -2.5810  -19.0858  -55.6242 H         1 UNK         0.0600 
    242 H242       -1.7688  -15.2250  -56.5461 H         1 UNK         0.3800 
    243 H243       -2.8503  -15.5844  -55.2270 H         1 UNK         0.3800 
    244 H244       -0.2504  -18.7520  -54.5260 H         1 UNK         0.0800 
    245 H245       -1.0747  -17.9738  -53.2101 H         1 UNK         0.0800 
    246 H246       -0.1942  -22.3166  -53.5220 H         1 UNK         0.0800 
    247 H247        0.1640  -21.1593  -54.7694 H         1 UNK         0.0800 
@<TRIPOS>BOND
     1    1    2 1    
     2    1  127 1    
     3    1  128 1    
     4    1  129 1    
     5    2    3 2    
     6    2    4 am   BACKBONE|DICT|INTERRES
     7    4    5 1    
     8    4  130 1    
     9    5    6 1    
    10    5   65 1    
    11    5  131 1    
    12    6    7 1    
    13    6  132 1    
    14    6  133 1    
    15    7    8 1    
    16    8    9 1    
    17    8  134 1    
    18    8  135 1    
    19    9   10 ar   
    20    9   14 ar   
    21   10   11 ar   
    22   10  136 1    
    23   11   12 ar   
    24   11  126 1    
    25   12   13 ar   
    26   12  137 1    
    27   13   14 ar   
    28   13   15 1    
    29   14  138 1    
    30   15   16 1    
    31   15  139 1    
    32   15  140 1    
    33   16   17 1    
    34   17   18 1    
    35   17  141 1    
    36   17  142 1    
    37   18   19 1    
    38   18   67 1    
    39   18  143 1    
    40   19   20 am   BACKBONE|DICT|INTERRES
    41   19  144 1    
    42   20   21 2    
    43   20   22 1    
    44   22   23 1    
    45   22   24 1    
    46   22  145 1    
    47   23  146 1    
    48   23  147 1    
    49   23  148 1    
    50   24   25 am   BACKBONE|DICT|INTERRES
    51   24  149 1    
    52   25   26 2    
    53   25   27 1    
    54   27   28 1    
    55   27   29 1    
    56   27  150 1    
    57   28  151 1    
    58   28  152 1    
    59   28  153 1    
    60   29   30 am   BACKBONE|DICT|INTERRES
    61   29  154 1    
    62   30   31 2    
    63   30   32 1    
    64   32   33 1    
    65   32   34 1    
    66   32  155 1    
    67   33  156 1    
    68   33  157 1    
    69   33  158 1    
    70   34   35 am   BACKBONE|DICT|INTERRES
    71   34  159 1    
    72   35   36 2    
    73   35   37 1    
    74   37   38 1    
    75   37   39 1    
    76   37  160 1    
    77   38  161 1    
    78   38  162 1    
    79   38  163 1    
    80   39   40 am   BACKBONE|DICT|INTERRES
    81   39  164 1    
    82   40   41 2    
    83   40   42 1    
    84   42   43 1    
    85   42   44 1    
    86   42  165 1    
    87   43  166 1    
    88   43  167 1    
    89   43  168 1    
    90   44   45 am   BACKBONE|DICT|INTERRES
    91   44  169 1    
    92   45   46 2    
    93   45   47 1    
    94   47   48 1    
    95   47   49 1    
    96   47  170 1    
    97   48  171 1    
    98   48  172 1    
    99   48  173 1    
   100   49   50 am   BACKBONE|DICT|INTERRES
   101   49  174 1    
   102   50   51 2    
   103   50   52 1    
   104   52   53 1    
   105   52   54 1    
   106   52  175 1    
   107   53  176 1    
   108   53  177 1    
   109   53  178 1    
   110   54   55 am   BACKBONE|DICT|INTERRES
   111   54  179 1    
   112   55   56 2    
   113   55   57 1    
   114   57   58 1    
   115   57   59 1    
   116   57  180 1    
   117   58  181 1    
   118   58  182 1    
   119   58  183 1    
   120   59   60 am   BACKBONE|DICT|INTERRES
   121   59  184 1    
   122   60   61 2    
   123   60   62 1    
   124   62   63 1    
   125   62   64 1    
   126   62  185 1    
   127   63  186 1    
   128   63  187 1    
   129   63  188 1    
   130   64   65 am   BACKBONE|DICT|INTERRES
   131   64  189 1    
   132   65   66 2    
   133   67   68 2    
   134   67   69 am   BACKBONE|DICT|INTERRES
   135   69   70 1    
   136   69  190 1    
   137   70   71 1    
   138   70   72 1    
   139   70  191 1    
   140   71  192 1    
   141   71  193 1    
   142   71  194 1    
   143   72   73 2    
   144   72   74 am   BACKBONE|DICT|INTERRES
   145   74   75 1    
   146   74  195 1    
   147   75   76 1    
   148   75   77 1    
   149   75  196 1    
   150   76  197 1    
   151   76  198 1    
   152   76  199 1    
   153   77   78 2    
   154   77   79 am   BACKBONE|DICT|INTERRES
   155   79   80 1    
   156   79  200 1    
   157   80   81 1    
   158   80   82 1    
   159   80  201 1    
   160   81  202 1    
   161   81  203 1    
   162   81  204 1    
   163   82   83 2    
   164   82   84 am   BACKBONE|DICT|INTERRES
   165   84   85 1    
   166   84  205 1    
   167   85   86 1    
   168   85   87 1    
   169   85  206 1    
   170   86  207 1    
   171   86  208 1    
   172   86  209 1    
   173   87   88 2    
   174   87   89 am   BACKBONE|DICT|INTERRES
   175   89   90 1    
   176   89  210 1    
   177   90   91 1    
   178   90   92 1    
   179   90  211 1    
   180   91  212 1    
   181   91  213 1    
   182   91  214 1    
   183   92   93 2    
   184   92   94 am   BACKBONE|DICT|INTERRES
   185   94   95 1    
   186   94  215 1    
   187   95   96 1    
   188   95   97 1    
   189   95  216 1    
   190   96  217 1    
   191   96  218 1    
   192   96  219 1    
   193   97   98 2    
   194   97   99 am   BACKBONE|DICT|INTERRES
   195   99  100 1    
   196   99  220 1    
   197  100  101 1    
   198  100  102 1    
   199  100  221 1    
   200  101  222 1    
   201  101  223 1    
   202  101  224 1    
   203  102  103 2    
   204  102  104 am   BACKBONE|DICT|INTERRES
   205  104  105 1    
   206  104  225 1    
   207  105  106 1    
   208  105  107 1    
   209  105  226 1    
   210  106  227 1    
   211  106  228 1    
   212  106  229 1    
   213  107  108 2    
   214  107  109 am   BACKBONE|DICT|INTERRES
   215  109  110 1    
   216  109  230 1    
   217  110  111 1    
   218  110  112 1    
   219  110  231 1    
   220  111  232 1    
   221  111  233 1    
   222  111  234 1    
   223  112  113 2    
   224  112  114 am   BACKBONE|DICT|INTERRES
   225  114  115 1    
   226  114  235 1    
   227  115  116 1    
   228  115  117 1    
   229  115  236 1    
   230  116  237 1    
   231  116  238 1    
   232  116  239 1    
   233  117  118 2    
   234  117  119 am   BACKBONE|DICT|INTERRES
   235  119  120 1    
   236  119  240 1    
   237  120  121 1    
   238  120  124 1    
   239  120  241 1    
   240  121  122 am   BACKBONE|DICT|INTERRES
   241  121  123 2    
   242  122  242 1    
   243  122  243 1    
   244  124  125 1    
   245  124  244 1    
   246  124  245 1    
   247  125  126 1    
   248  126  246 1    
   249  126  247 1    
@<TRIPOS>SUBSTRUCTURE
     1 UNK         1 GROUP             0       ****    0 ROOT    
