@<TRIPOS>MOLECULE
3R540
247   249    1
SMALL
USER_CHARGES


@<TRIPOS>ATOM
      1 CA         -0.6118  -12.0568  -43.8328 C.3       0 UNK        -0.1800 
      2 C          -0.4998  -12.0864  -45.3508 C.2       0 UNK         0.5000 
      3 O           0.1455  -11.2168  -45.9355 O.2       0 UNK        -0.5000 
      4 N          -1.1169  -13.0901  -45.9902 N.am      1 UNK        -0.5000 
      5 CA         -1.1130  -13.3105  -47.4444 C.3       1 UNK         0.1400 
      6 C6         -2.0780  -14.4575  -47.8326 C.3       23 UNK        -0.0398 
      7 S7         -2.6858  -14.3220  -49.5462 S.3       23 UNK        -0.2404 
      8 C8         -2.9564  -16.0699  -49.9682 C.3       23 UNK        -0.0205 
      9 C9         -1.7186  -16.7212  -50.5685 C.ar      23 UNK        -0.0193 
     10 C10        -1.5033  -16.6567  -51.9469 C.ar      23 UNK        -0.1150 
     11 C11        -0.4358  -17.3362  -52.5380 C.ar      23 UNK        -0.0193 
     12 C12         0.4461  -18.0518  -51.7197 C.ar      23 UNK        -0.1150 
     13 C13         0.2486  -18.1359  -50.3384 C.ar      23 UNK        -0.0193 
     14 C14        -0.8311  -17.4456  -49.7677 C.ar      23 UNK        -0.1150 
     15 C15         1.2087  -19.0271  -49.5426 C.3       23 UNK        -0.0205 
     16 S16         0.9383  -19.1419  -47.7406 S.3       23 UNK        -0.2404 
     17 C17        -0.6798  -19.9717  -47.6254 C.3       23 UNK        -0.0398 
     18 CA         -0.6291  -21.4143  -47.0697 C.3       11 UNK         0.1400 
     19 N           0.0619  -21.5316  -45.7732 N.am      11 UNK        -0.5000 
     20 C           0.2443  -22.6755  -45.0900 C.2       10 UNK         0.5000 
     21 O          -0.1427  -23.7745  -45.4870 O.2       10 UNK        -0.5000 
     22 CA          0.8969  -22.5779  -43.7012 C.3       10 UNK         0.1400 
     23 CB          2.4281  -22.5010  -43.8016 C.3       10 UNK        -0.1800 
     24 N           0.3691  -21.4359  -42.9558 N.am      10 UNK        -0.5000 
     25 C          -0.8228  -21.4377  -42.3401 C.2       9 UNK         0.5000 
     26 O          -1.5296  -22.4403  -42.2394 O.2       9 UNK        -0.5000 
     27 CA         -1.3350  -20.1037  -41.7598 C.3       9 UNK         0.1400 
     28 CB         -1.0042  -20.0032  -40.2634 C.3       9 UNK        -0.1800 
     29 N          -0.8132  -18.9243  -42.4510 N.am      9 UNK        -0.5000 
     30 C          -1.0750  -18.6029  -43.7252 C.2       8 UNK         0.5000 
     31 O          -1.8486  -19.2385  -44.4421 O.2       8 UNK        -0.5000 
     32 CA         -0.2876  -17.4133  -44.3139 C.3       8 UNK         0.1400 
     33 CB         -0.9926  -16.0851  -44.0104 C.3       8 UNK        -0.1800 
     34 N           1.0990  -17.3453  -43.8402 N.am      8 UNK        -0.5000 
     35 C           2.0075  -18.3168  -44.0151 C.2       7 UNK         0.5000 
     36 O           1.7694  -19.3683  -44.6042 O.2       7 UNK        -0.5000 
     37 CA          3.3813  -18.1215  -43.3559 C.3       7 UNK         0.1400 
     38 CB          4.2698  -17.1710  -44.1703 C.3       7 UNK        -0.1800 
     39 N           3.2387  -17.6301  -41.9873 N.am      7 UNK        -0.5000 
     40 C           2.8342  -18.3902  -40.9592 C.2       6 UNK         0.5000 
     41 O           2.6245  -19.6001  -41.0446 O.2       6 UNK        -0.5000 
     42 CA          2.5937  -17.6720  -39.6177 C.3       6 UNK         0.1400 
     43 CB          3.8856  -17.6326  -38.7881 C.3       6 UNK        -0.1800 
     44 N           2.0885  -16.3083  -39.7870 N.am      6 UNK        -0.5000 
     45 C           0.8856  -15.9983  -40.2922 C.2       5 UNK         0.5000 
     46 O           0.0516  -16.8360  -40.6308 O.2       5 UNK        -0.5000 
     47 CA          0.5917  -14.5017  -40.5070 C.3       5 UNK         0.1400 
     48 CB         -0.0221  -13.8817  -39.2436 C.3       5 UNK        -0.1800 
     49 N           1.7862  -13.7454  -40.8922 N.am      5 UNK        -0.5000 
     50 C           2.4418  -13.9145  -42.0468 C.2       4 UNK         0.5000 
     51 O           2.0874  -14.7072  -42.9242 O.2       4 UNK        -0.5000 
     52 CA          3.7419  -13.1167  -42.2152 C.3       4 UNK         0.1400 
     53 CB          4.9529  -13.9897  -41.8530 C.3       4 UNK        -0.1800 
     54 N           3.8753  -12.6701  -43.5963 N.am      4 UNK        -0.5000 
     55 C           3.4528  -11.4917  -44.0627 C.2       3 UNK         0.5000 
     56 O           2.9662  -10.6120  -43.3510 O.2       3 UNK        -0.5000 
     57 CA          3.5783  -11.2524  -45.5784 C.3       3 UNK         0.1400 
     58 CB          5.0285  -10.9240  -45.9826 C.3       3 UNK        -0.1800 
     59 N           3.0100  -12.3278  -46.4003 N.am      3 UNK        -0.5000 
     60 C           3.4360  -13.5873  -46.5777 C.2       2 UNK         0.5000 
     61 O           4.4401  -14.0523  -46.0362 O.2       2 UNK        -0.5000 
     62 CA          2.5639  -14.4699  -47.4925 C.3       2 UNK         0.1400 
     63 CB          2.8482  -15.9725  -47.3393 C.3       2 UNK        -0.1800 
     64 N           1.1473  -14.2317  -47.2207 N.am      2 UNK        -0.5000 
     65 C           0.3062  -13.5508  -48.0091 C.2       1 UNK         0.5000 
     66 O           0.6220  -13.0770  -49.1008 O.2       1 UNK        -0.5000 
     67 C          -2.0695  -21.9640  -47.0273 C.2       11 UNK         0.5000 
     68 O          -2.5273  -22.5483  -48.0108 O.2       11 UNK        -0.5000 
     69 N          -2.7450  -21.7977  -45.8816 N.am      12 UNK        -0.5000 
     70 CA         -4.0800  -22.3266  -45.5969 C.3       12 UNK         0.1400 
     71 CB         -4.5160  -21.8734  -44.1968 C.3       12 UNK        -0.1800 
     72 C          -4.1941  -23.8589  -45.7362 C.2       12 UNK         0.5000 
     73 O          -5.2761  -24.3498  -46.0573 O.2       12 UNK        -0.5000 
     74 N          -3.0819  -24.5754  -45.5265 N.am      13 UNK        -0.5000 
     75 CA         -2.9692  -26.0159  -45.7318 C.3       13 UNK         0.1400 
     76 CB         -2.2168  -26.6368  -44.5436 C.3       13 UNK        -0.1800 
     77 C          -2.2501  -26.3277  -47.0548 C.2       13 UNK         0.5000 
     78 O          -2.7611  -27.1151  -47.8507 O.2       13 UNK        -0.5000 
     79 N          -1.0778  -25.7125  -47.2656 N.am      14 UNK        -0.5000 
     80 CA         -0.1479  -26.0252  -48.3535 C.3       14 UNK         0.1400 
     81 CB          1.2045  -25.3552  -48.0649 C.3       14 UNK        -0.1800 
     82 C          -0.6511  -25.6296  -49.7522 C.2       14 UNK         0.5000 
     83 O          -0.3874  -26.3524  -50.7138 O.2       14 UNK        -0.5000 
     84 N          -1.3600  -24.4986  -49.8392 N.am      15 UNK        -0.5000 
     85 CA         -1.9340  -23.9600  -51.0741 C.3       15 UNK         0.1400 
     86 CB         -1.4242  -22.5185  -51.2593 C.3       15 UNK        -0.1800 
     87 C          -3.4730  -23.9938  -51.0447 C.2       15 UNK         0.5000 
     88 O          -4.1025  -23.4592  -51.9589 O.2       15 UNK        -0.5000 
     89 N          -4.0557  -24.5568  -49.9737 N.am      16 UNK        -0.5000 
     90 CA         -5.4864  -24.5614  -49.6448 C.3       16 UNK         0.1400 
     91 CB         -6.2598  -25.4767  -50.6159 C.3       16 UNK        -0.1800 
     92 C          -6.0747  -23.1345  -49.5530 C.2       16 UNK         0.5000 
     93 O          -7.1996  -22.8994  -49.9954 O.2       16 UNK        -0.5000 
     94 N          -5.2686  -22.2024  -49.0178 N.am      17 UNK        -0.5000 
     95 CA         -5.5044  -20.7546  -48.9454 C.3       17 UNK         0.1400 
     96 CB         -6.7522  -20.4250  -48.0972 C.3       17 UNK        -0.1800 
     97 C          -5.5243  -20.0801  -50.3350 C.2       17 UNK         0.5000 
     98 O          -6.2078  -19.0717  -50.5158 O.2       17 UNK        -0.5000 
     99 N          -4.7609  -20.6519  -51.2796 N.am      18 UNK        -0.5000 
    100 CA        -4.6497  -20.2828  -52.6924 C.3       18 UNK         0.1400 
    101 CB        -4.0788  -18.8617  -52.8566 C.3       18 UNK        -0.1800 
    102 C         -5.9806  -20.5038  -53.4304 C.2       18 UNK         0.5000 
    103 O         -6.5574  -19.5606  -53.9747 O.2       18 UNK        -0.5000 
    104 N         -6.4515  -21.7586  -53.4059 N.am      19 UNK        -0.5000 
    105 CA        -7.6648  -22.2238  -54.0794 C.3       19 UNK         0.1400 
    106 CB        -7.9426  -23.6775  -53.6645 C.3       19 UNK        -0.1800 
    107 C         -7.5333  -22.0815  -55.6082 C.2       19 UNK         0.5000 
    108 O         -6.8505  -22.8884  -56.2403 O.2       19 UNK        -0.5000 
    109 N         -8.1262  -21.0094  -56.1513 N.am      20 UNK        -0.5000 
    110 CA        -7.9949  -20.4695  -57.5125 C.3       20 UNK         0.1400 
    111 CB        -8.3506  -21.5051  -58.5971 C.3       20 UNK        -0.1800 
    112 C         -6.6235  -19.8123  -57.7738 C.2       20 UNK         0.5000 
    113 O         -6.5798  -18.6938  -58.2879 O.2       20 UNK        -0.5000 
    114 N         -5.5385  -20.4887  -57.3871 N.am      21 UNK        -0.5000 
    115 CA        -4.1612  -20.0102  -57.4034 C.3       21 UNK         0.1400 
    116 CB        -3.5894  -20.0820  -58.8312 C.3       21 UNK        -0.1800 
    117 C         -3.3404  -20.8756  -56.4368 C.2       21 UNK         0.5000 
    118 O         -3.7471  -21.9981  -56.1284 O.2       21 UNK        -0.5000 
    119 N         -2.1958  -20.3535  -55.9833 N.am      22 UNK        -0.5000 
    120 CA        -1.2464  -21.0832  -55.1243 C.3       22 UNK         0.1400 
    121 C         -0.2270  -21.9804  -55.8880 C.2       22 UNK         0.5000 
    122 N         -0.1985  -21.9781  -57.2154 N.am      22 UNK        -0.7600 
    123 O          0.5396  -22.7090  -55.2643 O.2       22 UNK        -0.5000 
    124 C124       -0.5632  -20.1525  -54.0923 C.3       23 UNK        -0.0398 
    125 S125        0.4442  -18.8041  -54.8113 S.3       23 UNK        -0.2404 
    126 C126       -0.2909  -17.3046  -54.0612 C.3       23 UNK        -0.0205 
    127 H127        0.3807  -12.0854  -43.3841 H         1 UNK         0.0600 
    128 H128       -1.1815  -12.9032  -43.4486 H         1 UNK         0.0600 
    129 H129       -1.1045  -11.1395  -43.5111 H         1 UNK         0.0600 
    130 H130       -1.6587  -13.7480  -45.4499 H         1 UNK         0.3000 
    131 H131       -1.4835  -12.3847  -47.8903 H         1 UNK         0.0600 
    132 H132       -1.6172  -15.4319  -47.6635 H         1 UNK         0.0800 
    133 H133       -2.9629  -14.4342  -47.1948 H         1 UNK         0.0800 
    134 H134       -3.7775  -16.1291  -50.6847 H         1 UNK         0.0800 
    135 H135       -3.2936  -16.6219  -49.0895 H         1 UNK         0.0800 
    136 H136       -2.1981  -16.1073  -52.5668 H         1 UNK         0.1150 
    137 H137        1.2779  -18.5810  -52.1623 H         1 UNK         0.1150 
    138 H138       -1.0120  -17.4886  -48.7055 H         1 UNK         0.1150 
    139 H139        1.1771  -20.0361  -49.9568 H         1 UNK         0.0800 
    140 H140        2.2246  -18.6629  -49.7011 H         1 UNK         0.0800 
    141 H141       -1.1412  -19.9796  -48.6145 H         1 UNK         0.0800 
    142 H142       -1.3191  -19.3427  -47.0047 H         1 UNK         0.0800 
    143 H143       -0.0721  -22.0279  -47.7802 H         1 UNK         0.0600 
    144 H144        0.4586  -20.6760  -45.3960 H         1 UNK         0.3000 
    145 H145        0.6544  -23.4913  -43.1536 H         1 UNK         0.0600 
    146 H146        2.8822  -22.3655  -42.8198 H         1 UNK         0.0600 
    147 H147        2.8305  -23.4230  -44.2227 H         1 UNK         0.0600 
    148 H148        2.7626  -21.6854  -44.4411 H         1 UNK         0.0600 
    149 H149        0.8856  -20.5687  -43.0310 H         1 UNK         0.3000 
    150 H150       -2.4216  -20.0979  -41.8685 H         1 UNK         0.0600 
    151 H151       -1.4058  -20.8566  -39.7155 H         1 UNK         0.0600 
    152 H152       -1.4349  -19.1035  -39.8237 H         1 UNK         0.0600 
    153 H153        0.0718  -19.9785  -40.0906 H         1 UNK         0.0600 
    154 H154       -0.2292  -18.2989  -41.9039 H         1 UNK         0.3000 
    155 H155       -0.2541  -17.5397  -45.3975 H         1 UNK         0.0600 
    156 H156       -1.1466  -15.9465  -42.9404 H         1 UNK         0.0600 
    157 H157       -1.9710  -16.0455  -44.4905 H         1 UNK         0.0600 
    158 H158       -0.4069  -15.2419  -44.3727 H         1 UNK         0.0600 
    159 H159        1.3809  -16.4935  -43.3646 H         1 UNK         0.3000 
    160 H160        3.8776  -19.0942  -43.3256 H         1 UNK         0.0600 
    161 H161        3.8347  -16.1758  -44.2558 H         1 UNK         0.0600 
    162 H162        4.4178  -17.5513  -45.1816 H         1 UNK         0.0600 
    163 H163        5.2559  -17.0685  -43.7175 H         1 UNK         0.0600 
    164 H164        3.3472  -16.6375  -41.8457 H         1 UNK         0.3000 
    165 H165        1.8468  -18.2447  -39.0637 H         1 UNK         0.0600 
    166 H166        3.7106  -17.1926  -37.8062 H         1 UNK         0.0600 
    167 H167        4.2765  -18.6383  -38.6272 H         1 UNK         0.0600 
    168 H168        4.6657  -17.0525  -39.2828 H         1 UNK         0.0600 
    169 H169        2.7088  -15.5566  -39.5256 H         1 UNK         0.3000 
    170 H170       -0.1370  -14.4179  -41.3157 H         1 UNK         0.0600 
    171 H171       -0.9260  -14.4158  -38.9473 H         1 UNK         0.0600 
    172 H172        0.6693  -13.9132  -38.4006 H         1 UNK         0.0600 
    173 H173       -0.3013  -12.8413  -39.4112 H         1 UNK         0.0600 
    174 H174        2.1346  -13.0781  -40.2186 H         1 UNK         0.3000 
    175 H175        3.7258  -12.2560  -41.5433 H         1 UNK         0.0600 
    176 H176        5.0379  -14.8572  -42.5072 H         1 UNK         0.0600 
    177 H177        5.8807  -13.4230  -41.9332 H         1 UNK         0.0600 
    178 H178        4.8840  -14.3545  -40.8274 H         1 UNK         0.0600 
    179 H179        4.2016  -13.3539  -44.2739 H         1 UNK         0.3000 
    180 H180        2.9749  -10.3714  -45.8031 H         1 UNK         0.0600 
    181 H181        5.7125  -11.7450  -45.7666 H         1 UNK         0.0600 
    182 H182        5.3919  -10.0500  -45.4408 H         1 UNK         0.0600 
    183 H183        5.0995  -10.6992  -47.0468 H         1 UNK         0.0600 
    184 H184        2.1309  -12.0818  -46.8375 H         1 UNK         0.3000 
    185 H185        2.8127  -14.1911  -48.5183 H         1 UNK         0.0600 
    186 H186        3.9069  -16.1982  -47.4716 H         1 UNK         0.0600 
    187 H187        2.5444  -16.3411  -46.3603 H         1 UNK         0.0600 
    188 H188        2.3033  -16.5405  -48.0921 H         1 UNK         0.0600 
    189 H189        0.8171  -14.5294  -46.3145 H         1 UNK         0.3000 
    190 H190       -2.3121  -21.2423  -45.1524 H         1 UNK         0.3000 
    191 H191       -4.7638  -21.8821  -46.3179 H         1 UNK         0.0600 
    192 H192       -3.8889  -22.3103  -43.4201 H         1 UNK         0.0600 
    193 H193       -5.5446  -22.1737  -43.9933 H         1 UNK         0.0600 
    194 H194       -4.4677  -20.7886  -44.0979 H         1 UNK         0.0600 
    195 H195       -2.2246  -24.0859  -45.2993 H         1 UNK         0.3000 
    196 H196       -3.9593  -26.4749  -45.7737 H         1 UNK         0.0600 
    197 H197       -2.1020  -27.7138  -44.6732 H         1 UNK         0.0600 
    198 H198       -2.7591  -26.4776  -43.6114 H         1 UNK         0.0600 
    199 H199       -1.2197  -26.2110  -44.4245 H         1 UNK         0.0600 
    200 H200       -0.7347  -25.0562  -46.5661 H         1 UNK         0.3000 
    201 H201        0.0062  -27.1064  -48.3558 H         1 UNK         0.0600 
    202 H202        1.6126  -25.6859  -47.1096 H         1 UNK         0.0600 
    203 H203        1.1167  -24.2687  -48.0319 H         1 UNK         0.0600 
    204 H204        1.9368  -25.6026  -48.8346 H         1 UNK         0.0600 
    205 H205       -1.5559  -23.9675  -48.9970 H         1 UNK         0.3000 
    206 H206       -1.6212  -24.5463  -51.9402 H         1 UNK         0.0600 
    207 H207       -0.3360  -22.4906  -51.3170 H         1 UNK         0.0600 
    208 H208       -1.8074  -22.0830  -52.1809 H         1 UNK         0.0600 
    209 H209       -1.7317  -21.8668  -50.4417 H         1 UNK         0.0600 
    210 H210       -3.4484  -24.9817  -49.2876 H         1 UNK         0.3000 
    211 H211       -5.5744  -24.9934  -48.6477 H         1 UNK         0.0600 
    212 H212       -6.2268  -25.1022  -51.6386 H         1 UNK         0.0600 
    213 H213       -7.3088  -25.5580  -50.3291 H         1 UNK         0.0600 
    214 H214       -5.8459  -26.4850  -50.6168 H         1 UNK         0.0600 
    215 H215       -4.3485  -22.5014  -48.7062 H         1 UNK         0.3000 
    216 H216       -4.6397  -20.3387  -48.4262 H         1 UNK         0.0600 
    217 H217       -6.8035  -19.3573  -47.8814 H         1 UNK         0.0600 
    218 H218       -6.7398  -20.9471  -47.1413 H         1 UNK         0.0600 
    219 H219       -7.6749  -20.6949  -48.6114 H         1 UNK         0.0600 
    220 H220       -4.3151  -21.5283  -51.0436 H         1 UNK         0.3000 
    221 H221       -3.9304  -20.9716  -53.1374 H         1 UNK         0.0600 
    222 H222       -4.7732  -18.0934  -52.5163 H         1 UNK         0.0600 
    223 H223       -3.1599  -18.7567  -52.2841 H         1 UNK         0.0600 
    224 H224       -3.8445  -18.6528  -53.9008 H         1 UNK         0.0600 
    225 H225       -5.8940  -22.4667  -52.9435 H         1 UNK         0.3000 
    226 H226       -8.5015  -21.6113  -53.7373 H         1 UNK         0.0600 
    227 H227       -8.1206  -23.7515  -52.5916 H         1 UNK         0.0600 
    228 H228       -8.8291  -24.0647  -54.1681 H         1 UNK         0.0600 
    229 H229       -7.1087  -24.3354  -53.9131 H         1 UNK         0.0600 
    230 H230       -8.5987  -20.3858  -55.5107 H         1 UNK         0.3000 
    231 H231       -8.7375  -19.6727  -57.5768 H         1 UNK         0.0600 
    232 H232       -9.3260  -21.9542  -58.4099 H         1 UNK         0.0600 
    233 H233       -7.6159  -22.3080  -58.6586 H         1 UNK         0.0600 
    234 H234       -8.3925  -21.0333  -59.5795 H         1 UNK         0.0600 
    235 H235       -5.6597  -21.4039  -56.9583 H         1 UNK         0.3000 
    236 H236       -4.1395  -18.9784  -57.0467 H         1 UNK         0.0600 
    237 H237       -2.5568  -19.7327  -58.8595 H         1 UNK         0.0600 
    238 H238       -3.6040  -21.1022  -59.2169 H         1 UNK         0.0600 
    239 H239       -4.1578  -19.4570  -59.5199 H         1 UNK         0.0600 
    240 H240       -1.9017  -19.4362  -56.2872 H         1 UNK         0.3000 
    241 H241       -1.8246  -21.7947  -54.5322 H         1 UNK         0.0600 
    242 H242        0.4610  -22.5691  -57.6970 H         1 UNK         0.3800 
    243 H243       -0.8225  -21.3906  -57.7431 H         1 UNK         0.3800 
    244 H244       -1.3323  -19.7270  -53.4501 H         1 UNK         0.0800 
    245 H245        0.0773  -20.7305  -53.4240 H         1 UNK         0.0800 
    246 H246       -1.2677  -17.1473  -54.5214 H         1 UNK         0.0800 
    247 H247        0.3204  -16.4435  -54.3332 H         1 UNK         0.0800 
@<TRIPOS>BOND
     1    1    2 1    
     2    1  127 1    
     3    1  128 1    
     4    1  129 1    
     5    2    3 2    
     6    2    4 am   BACKBONE|DICT|INTERRES
     7    4    5 1    
     8    4  130 1    
     9    5    6 1    
    10    5   65 1    
    11    5  131 1    
    12    6    7 1    
    13    6  132 1    
    14    6  133 1    
    15    7    8 1    
    16    8    9 1    
    17    8  134 1    
    18    8  135 1    
    19    9   10 ar   
    20    9   14 ar   
    21   10   11 ar   
    22   10  136 1    
    23   11   12 ar   
    24   11  126 1    
    25   12   13 ar   
    26   12  137 1    
    27   13   14 ar   
    28   13   15 1    
    29   14  138 1    
    30   15   16 1    
    31   15  139 1    
    32   15  140 1    
    33   16   17 1    
    34   17   18 1    
    35   17  141 1    
    36   17  142 1    
    37   18   19 1    
    38   18   67 1    
    39   18  143 1    
    40   19   20 am   BACKBONE|DICT|INTERRES
    41   19  144 1    
    42   20   21 2    
    43   20   22 1    
    44   22   23 1    
    45   22   24 1    
    46   22  145 1    
    47   23  146 1    
    48   23  147 1    
    49   23  148 1    
    50   24   25 am   BACKBONE|DICT|INTERRES
    51   24  149 1    
    52   25   26 2    
    53   25   27 1    
    54   27   28 1    
    55   27   29 1    
    56   27  150 1    
    57   28  151 1    
    58   28  152 1    
    59   28  153 1    
    60   29   30 am   BACKBONE|DICT|INTERRES
    61   29  154 1    
    62   30   31 2    
    63   30   32 1    
    64   32   33 1    
    65   32   34 1    
    66   32  155 1    
    67   33  156 1    
    68   33  157 1    
    69   33  158 1    
    70   34   35 am   BACKBONE|DICT|INTERRES
    71   34  159 1    
    72   35   36 2    
    73   35   37 1    
    74   37   38 1    
    75   37   39 1    
    76   37  160 1    
    77   38  161 1    
    78   38  162 1    
    79   38  163 1    
    80   39   40 am   BACKBONE|DICT|INTERRES
    81   39  164 1    
    82   40   41 2    
    83   40   42 1    
    84   42   43 1    
    85   42   44 1    
    86   42  165 1    
    87   43  166 1    
    88   43  167 1    
    89   43  168 1    
    90   44   45 am   BACKBONE|DICT|INTERRES
    91   44  169 1    
    92   45   46 2    
    93   45   47 1    
    94   47   48 1    
    95   47   49 1    
    96   47  170 1    
    97   48  171 1    
    98   48  172 1    
    99   48  173 1    
   100   49   50 am   BACKBONE|DICT|INTERRES
   101   49  174 1    
   102   50   51 2    
   103   50   52 1    
   104   52   53 1    
   105   52   54 1    
   106   52  175 1    
   107   53  176 1    
   108   53  177 1    
   109   53  178 1    
   110   54   55 am   BACKBONE|DICT|INTERRES
   111   54  179 1    
   112   55   56 2    
   113   55   57 1    
   114   57   58 1    
   115   57   59 1    
   116   57  180 1    
   117   58  181 1    
   118   58  182 1    
   119   58  183 1    
   120   59   60 am   BACKBONE|DICT|INTERRES
   121   59  184 1    
   122   60   61 2    
   123   60   62 1    
   124   62   63 1    
   125   62   64 1    
   126   62  185 1    
   127   63  186 1    
   128   63  187 1    
   129   63  188 1    
   130   64   65 am   BACKBONE|DICT|INTERRES
   131   64  189 1    
   132   65   66 2    
   133   67   68 2    
   134   67   69 am   BACKBONE|DICT|INTERRES
   135   69   70 1    
   136   69  190 1    
   137   70   71 1    
   138   70   72 1    
   139   70  191 1    
   140   71  192 1    
   141   71  193 1    
   142   71  194 1    
   143   72   73 2    
   144   72   74 am   BACKBONE|DICT|INTERRES
   145   74   75 1    
   146   74  195 1    
   147   75   76 1    
   148   75   77 1    
   149   75  196 1    
   150   76  197 1    
   151   76  198 1    
   152   76  199 1    
   153   77   78 2    
   154   77   79 am   BACKBONE|DICT|INTERRES
   155   79   80 1    
   156   79  200 1    
   157   80   81 1    
   158   80   82 1    
   159   80  201 1    
   160   81  202 1    
   161   81  203 1    
   162   81  204 1    
   163   82   83 2    
   164   82   84 am   BACKBONE|DICT|INTERRES
   165   84   85 1    
   166   84  205 1    
   167   85   86 1    
   168   85   87 1    
   169   85  206 1    
   170   86  207 1    
   171   86  208 1    
   172   86  209 1    
   173   87   88 2    
   174   87   89 am   BACKBONE|DICT|INTERRES
   175   89   90 1    
   176   89  210 1    
   177   90   91 1    
   178   90   92 1    
   179   90  211 1    
   180   91  212 1    
   181   91  213 1    
   182   91  214 1    
   183   92   93 2    
   184   92   94 am   BACKBONE|DICT|INTERRES
   185   94   95 1    
   186   94  215 1    
   187   95   96 1    
   188   95   97 1    
   189   95  216 1    
   190   96  217 1    
   191   96  218 1    
   192   96  219 1    
   193   97   98 2    
   194   97   99 am   BACKBONE|DICT|INTERRES
   195   99  100 1    
   196   99  220 1    
   197  100  101 1    
   198  100  102 1    
   199  100  221 1    
   200  101  222 1    
   201  101  223 1    
   202  101  224 1    
   203  102  103 2    
   204  102  104 am   BACKBONE|DICT|INTERRES
   205  104  105 1    
   206  104  225 1    
   207  105  106 1    
   208  105  107 1    
   209  105  226 1    
   210  106  227 1    
   211  106  228 1    
   212  106  229 1    
   213  107  108 2    
   214  107  109 am   BACKBONE|DICT|INTERRES
   215  109  110 1    
   216  109  230 1    
   217  110  111 1    
   218  110  112 1    
   219  110  231 1    
   220  111  232 1    
   221  111  233 1    
   222  111  234 1    
   223  112  113 2    
   224  112  114 am   BACKBONE|DICT|INTERRES
   225  114  115 1    
   226  114  235 1    
   227  115  116 1    
   228  115  117 1    
   229  115  236 1    
   230  116  237 1    
   231  116  238 1    
   232  116  239 1    
   233  117  118 2    
   234  117  119 am   BACKBONE|DICT|INTERRES
   235  119  120 1    
   236  119  240 1    
   237  120  121 1    
   238  120  124 1    
   239  120  241 1    
   240  121  122 am   BACKBONE|DICT|INTERRES
   241  121  123 2    
   242  122  242 1    
   243  122  243 1    
   244  124  125 1    
   245  124  244 1    
   246  124  245 1    
   247  125  126 1    
   248  126  246 1    
   249  126  247 1    
@<TRIPOS>SUBSTRUCTURE
     1 UNK         1 GROUP             0       ****    0 ROOT    
