@<TRIPOS>MOLECULE
3R540
247   249    1
SMALL
USER_CHARGES


@<TRIPOS>ATOM
      1 CA         -0.3108  -12.1805  -50.3218 C.3       0 UNK        -0.1800 
      2 C           1.0883  -11.7441  -49.9152 C.2       0 UNK         0.5000 
      3 O           1.4061  -10.5562  -49.9766 O.2       0 UNK        -0.5000 
      4 N           1.9245  -12.7079  -49.5096 N.am      1 UNK        -0.5000 
      5 CA          3.3217  -12.5080  -49.1003 C.3       1 UNK         0.1400 
      6 C6          4.0566  -13.8520  -48.8715 C.3       23 UNK        -0.0398 
      7 S7          4.1148  -14.9114  -50.3559 S.3       23 UNK        -0.2404 
      8 C8          3.1276  -16.3523  -49.8384 C.3       23 UNK        -0.0205 
      9 C9          1.6399  -16.1346  -50.0685 C.ar      23 UNK        -0.0193 
     10 C10         1.1094  -16.3035  -51.3501 C.ar      23 UNK        -0.1150 
     11 C11        -0.2550  -16.1217  -51.5846 C.ar      23 UNK        -0.0193 
     12 C12        -1.0944  -15.7746  -50.5235 C.ar      23 UNK        -0.1150 
     13 C13        -0.5801  -15.6138  -49.2334 C.ar      23 UNK        -0.0193 
     14 C14         0.7905  -15.7859  -49.0130 C.ar      23 UNK        -0.1150 
     15 C15        -1.5000  -15.2330  -48.0830 C.3       23 UNK        -0.0205 
     16 S16        -2.0585  -16.6883  -47.1410 S.3       23 UNK        -0.2404 
     17 C17        -3.3883  -17.3537  -48.2017 C.3       23 UNK        -0.0398 
     18 CA         -3.4939  -18.8967  -48.1809 C.3       11 UNK         0.1400 
     19 N          -2.2170  -19.5532  -48.4697 N.am      11 UNK        -0.5000 
     20 C          -2.0740  -20.8664  -48.6809 C.2       10 UNK         0.5000 
     21 O          -3.0208  -21.6529  -48.7059 O.2       10 UNK        -0.5000 
     22 CA         -0.6409  -21.4052  -48.8422 C.3       10 UNK         0.1400 
     23 CB         -0.2625  -21.4400  -50.3304 C.3       10 UNK        -0.1800 
     24 N           0.3949  -20.6738  -48.1013 N.am      10 UNK        -0.5000 
     25 C           0.3950  -20.3996  -46.7888 C.2       9 UNK         0.5000 
     26 O          -0.5524  -20.6360  -46.0350 O.2       9 UNK        -0.5000 
     27 CA          1.6529  -19.7021  -46.2447 C.3       9 UNK         0.1400 
     28 CB          1.6401  -18.2178  -46.6300 C.3       9 UNK        -0.1800 
     29 N           1.7444  -19.8185  -44.7897 N.am      9 UNK        -0.5000 
     30 C           2.1508  -20.9207  -44.1439 C.2       8 UNK         0.5000 
     31 O           2.5542  -21.9306  -44.7225 O.2       8 UNK        -0.5000 
     32 CA          2.1138  -20.9142  -42.6046 C.3       8 UNK         0.1400 
     33 CB          3.5209  -20.6757  -42.0355 C.3       8 UNK        -0.1800 
     34 N           1.2057  -19.8991  -42.0687 N.am      8 UNK        -0.5000 
     35 C           0.1999  -20.1317  -41.2183 C.2       7 UNK         0.5000 
     36 O          -0.0721  -21.2447  -40.7642 O.2       7 UNK        -0.5000 
     37 CA         -0.6413  -18.9007  -40.8184 C.3       7 UNK         0.1400 
     38 CB         -1.6837  -19.1989  -39.7209 C.3       7 UNK        -0.1800 
     39 N           0.1760  -17.7352  -40.4649 N.am      7 UNK        -0.5000 
     40 C           1.0500  -17.6146  -39.4545 C.2       6 UNK         0.5000 
     41 O           1.2867  -18.5006  -38.6316 O.2       6 UNK        -0.5000 
     42 CA          1.7699  -16.2510  -39.3693 C.3       6 UNK         0.1400 
     43 CB          2.8776  -16.1995  -38.2952 C.3       6 UNK        -0.1800 
     44 N           2.2624  -15.8113  -40.6803 N.am      6 UNK        -0.5000 
     45 C           3.2153  -16.3967  -41.4257 C.2       5 UNK         0.5000 
     46 O           3.9081  -17.3380  -41.0396 O.2       5 UNK        -0.5000 
     47 CA          3.3925  -15.8467  -42.8611 C.3       5 UNK         0.1400 
     48 CB          4.1629  -16.8100  -43.7883 C.3       5 UNK        -0.1800 
     49 N           2.1185  -15.4527  -43.4753 N.am      5 UNK        -0.5000 
     50 C           1.0384  -16.2287  -43.6517 C.2       4 UNK         0.5000 
     51 O           1.0236  -17.4355  -43.4092 O.2       4 UNK        -0.5000 
     52 CA         -0.2495  -15.5418  -44.1478 C.3       4 UNK         0.1400 
     53 CB         -1.5211  -16.2233  -43.6061 C.3       4 UNK        -0.1800 
     54 N          -0.2997  -14.0978  -43.9027 N.am      4 UNK        -0.5000 
     55 C          -0.1901  -13.4395  -42.7411 C.2       3 UNK         0.5000 
     56 O          -0.0098  -13.9945  -41.6542 O.2       3 UNK        -0.5000 
     57 CA         -0.1896  -11.8978  -42.8540 C.3       3 UNK         0.1400 
     58 CB         -0.1594  -11.2068  -41.4793 C.3       3 UNK        -0.1800 
     59 N           0.9493  -11.4207  -43.6486 N.am      3 UNK        -0.5000 
     60 C           1.0845  -11.5373  -44.9773 C.2       2 UNK         0.5000 
     61 O           0.1950  -11.9853  -45.7093 O.2       2 UNK        -0.5000 
     62 CA          2.4504  -11.1654  -45.5835 C.3       2 UNK         0.1400 
     63 CB          3.6278  -11.6316  -44.6941 C.3       2 UNK        -0.1800 
     64 N           2.5203  -11.7946  -46.8989 N.am      2 UNK        -0.5000 
     65 C           3.4617  -11.6344  -47.8344 C.2       1 UNK         0.5000 
     66 O           4.4144  -10.8607  -47.7292 O.2       1 UNK        -0.5000 
     67 C          -4.1730  -19.4207  -46.8931 C.2       11 UNK         0.5000 
     68 O          -5.4023  -19.4804  -46.8481 O.2       11 UNK        -0.5000 
     69 N          -3.3757  -19.8416  -45.9034 N.am      12 UNK        -0.5000 
     70 CA         -3.8475  -20.4836  -44.6802 C.3       12 UNK         0.1400 
     71 CB         -3.0784  -19.9094  -43.4797 C.3       12 UNK        -0.1800 
     72 C          -3.6667  -22.0070  -44.7624 C.2       12 UNK         0.5000 
     73 O          -4.6222  -22.7499  -44.5374 O.2       12 UNK        -0.5000 
     74 N          -2.4416  -22.4436  -45.0819 N.am      13 UNK        -0.5000 
     75 CA         -1.9955  -23.8352  -45.0049 C.3       13 UNK         0.1400 
     76 CB         -0.4619  -23.8673  -45.0851 C.3       13 UNK        -0.1800 
     77 C          -2.6068  -24.7640  -46.0682 C.2       13 UNK         0.5000 
     78 O          -2.6838  -25.9703  -45.8321 O.2       13 UNK        -0.5000 
     79 N          -3.0251  -24.2002  -47.2071 N.am      14 UNK        -0.5000 
     80 CA         -3.6187  -24.9221  -48.3318 C.3       14 UNK         0.1400 
     81 CB         -2.6478  -24.8822  -49.5256 C.3       14 UNK        -0.1800 
     82 C          -5.0224  -24.3868  -48.6723 C.2       14 UNK         0.5000 
     83 O          -5.4828  -24.5911  -49.7966 O.2       14 UNK        -0.5000 
     84 N          -5.6742  -23.7401  -47.6892 N.am      15 UNK        -0.5000 
     85 CA         -7.0605  -23.2564  -47.6821 C.3       15 UNK         0.1400 
     86 CB         -8.0319  -24.4533  -47.6305 C.3       15 UNK        -0.1800 
     87 C          -7.3680  -22.3098  -48.8571 C.2       15 UNK         0.5000 
     88 O          -7.9504  -22.7349  -49.8552 O.2       15 UNK        -0.5000 
     89 N          -6.9142  -21.0525  -48.7445 N.am      16 UNK        -0.5000 
     90 CA         -6.9686  -20.0124  -49.7840 C.3       16 UNK         0.1400 
     91 CB         -8.4264  -19.6142  -50.0973 C.3       16 UNK        -0.1800 
     92 C          -6.1645  -20.3935  -51.0476 C.2       16 UNK         0.5000 
     93 O          -6.4858  -19.9383  -52.1459 O.2       16 UNK        -0.5000 
     94 N          -5.1447  -21.2445  -50.8556 N.am      17 UNK        -0.5000 
     95 CA         -4.3030  -21.8848  -51.8653 C.3       17 UNK         0.1400 
     96 CB         -3.4088  -20.8488  -52.5698 C.3       17 UNK        -0.1800 
     97 C          -5.0768  -22.7873  -52.8498 C.2       17 UNK         0.5000 
     98 O          -4.5866  -23.0369  -53.9503 O.2       17 UNK        -0.5000 
     99 N          -6.2479  -23.3000  -52.4423 N.am      18 UNK        -0.5000 
    100 CA        -7.0605  -24.2311  -53.2289 C.3       18 UNK         0.1400 
    101 CB        -8.4448  -24.3787  -52.5819 C.3       18 UNK        -0.1800 
    102 C         -6.3935  -25.6093  -53.3916 C.2       18 UNK         0.5000 
    103 O         -6.5515  -26.2398  -54.4374 O.2       18 UNK        -0.5000 
    104 N         -5.6384  -26.0350  -52.3703 N.am      19 UNK        -0.5000 
    105 CA        -4.8466  -27.2670  -52.3692 C.3       19 UNK         0.1400 
    106 CB        -4.9183  -27.8962  -50.9667 C.3       19 UNK        -0.1800 
    107 C         -3.3863  -27.0357  -52.8190 C.2       19 UNK         0.5000 
    108 O         -2.5660  -27.9454  -52.6882 O.2       19 UNK        -0.5000 
    109 N         -3.0747  -25.8356  -53.3245 N.am      20 UNK        -0.5000 
    110 CA        -1.7566  -25.4267  -53.8013 C.3       20 UNK         0.1400 
    111 CB        -0.9848  -24.7407  -52.6548 C.3       20 UNK        -0.1800 
    112 C         -1.9385  -24.5587  -55.0595 C.2       20 UNK         0.5000 
    113 O         -2.6853  -24.9549  -55.9572 O.2       20 UNK        -0.5000 
    114 N         -1.2700  -23.4021  -55.1134 N.am      21 UNK        -0.5000 
    115 CA        -1.3891  -22.3986  -56.1641 C.3       21 UNK         0.1400 
    116 CB        -0.5672  -22.8194  -57.3972 C.3       21 UNK        -0.1800 
    117 C         -0.9053  -21.0483  -55.6163 C.2       21 UNK         0.5000 
    118 O         -0.1263  -21.0196  -54.6598 O.2       21 UNK        -0.5000 
    119 N         -1.3566  -19.9678  -56.2558 N.am      22 UNK        -0.5000 
    120 CA        -0.9624  -18.5761  -56.0074 C.3       22 UNK         0.1400 
    121 C         -0.8869  -17.8180  -57.3595 C.2       22 UNK         0.5000 
    122 N         -0.0505  -16.7940  -57.4565 N.am      22 UNK        -0.7600 
    123 O         -1.5981  -18.1292  -58.3138 O.2       22 UNK        -0.5000 
    124 C124       -1.9282  -17.8634  -55.0181 C.3       23 UNK        -0.0398 
    125 S125       -1.3755  -17.9909  -53.2845 S.3       23 UNK        -0.2404 
    126 C126       -0.8181  -16.2854  -52.9862 C.3       23 UNK        -0.0205 
    127 H127       -0.8300  -11.3776  -50.8453 H         1 UNK         0.0600 
    128 H128       -0.8952  -12.4486  -49.4417 H         1 UNK         0.0600 
    129 H129       -0.2663  -13.0419  -50.9878 H         1 UNK         0.0600 
    130 H130        1.6108  -13.6686  -49.5308 H         1 UNK         0.3000 
    131 H131        3.8251  -11.9796  -49.9128 H         1 UNK         0.0600 
    132 H132        3.6027  -14.3997  -48.0440 H         1 UNK         0.0800 
    133 H133        5.0913  -13.6692  -48.5747 H         1 UNK         0.0800 
    134 H134        3.3334  -16.5977  -48.7957 H         1 UNK         0.0800 
    135 H135        3.4527  -17.2188  -50.4162 H         1 UNK         0.0800 
    136 H136        1.7623  -16.5745  -52.1682 H         1 UNK         0.1150 
    137 H137       -2.1487  -15.6256  -50.7076 H         1 UNK         0.1150 
    138 H138        1.1917  -15.6576  -48.0176 H         1 UNK         0.1150 
    139 H139       -0.9743  -14.5567  -47.4073 H         1 UNK         0.0800 
    140 H140       -2.3651  -14.6775  -48.4484 H         1 UNK         0.0800 
    141 H141       -3.2165  -17.0358  -49.2285 H         1 UNK         0.0800 
    142 H142       -4.3339  -16.8927  -47.9105 H         1 UNK         0.0800 
    143 H143       -4.1584  -19.1709  -49.0005 H         1 UNK         0.0600 
    144 H144       -1.3951  -18.9675  -48.4397 H         1 UNK         0.3000 
    145 H145       -0.6422  -22.4298  -48.4655 H         1 UNK         0.0600 
    146 H146        0.6896  -21.9473  -50.4863 H         1 UNK         0.0600 
    147 H147       -1.0119  -21.9753  -50.9134 H         1 UNK         0.0600 
    148 H148       -0.1826  -20.4358  -50.7496 H         1 UNK         0.0600 
    149 H149        1.2079  -20.4132  -48.6403 H         1 UNK         0.3000 
    150 H150        2.5326  -20.1700  -46.6915 H         1 UNK         0.0600 
    151 H151        1.6686  -18.1064  -47.7131 H         1 UNK         0.0600 
    152 H152        2.5047  -17.6916  -46.2264 H         1 UNK         0.0600 
    153 H153        0.7399  -17.7184  -46.2726 H         1 UNK         0.0600 
    154 H154        1.3999  -19.0249  -44.2589 H         1 UNK         0.3000 
    155 H155        1.7886  -21.9106  -42.2987 H         1 UNK         0.0600 
    156 H156        3.9248  -19.7149  -42.3544 H         1 UNK         0.0600 
    157 H157        4.2140  -21.4497  -42.3673 H         1 UNK         0.0600 
    158 H158        3.5130  -20.6893  -40.9454 H         1 UNK         0.0600 
    159 H159        1.3271  -18.9497  -42.4115 H         1 UNK         0.3000 
    160 H160       -1.1914  -18.6137  -41.7140 H         1 UNK         0.0600 
    161 H161       -1.2153  -19.5342  -38.7953 H         1 UNK         0.0600 
    162 H162       -2.3727  -19.9816  -40.0403 H         1 UNK         0.0600 
    163 H163       -2.2808  -18.3156  -39.4947 H         1 UNK         0.0600 
    164 H164        0.1018  -16.9539  -41.1000 H         1 UNK         0.3000 
    165 H165        1.0072  -15.5269  -39.0788 H         1 UNK         0.0600 
    166 H166        3.6483  -16.9519  -38.4632 H         1 UNK         0.0600 
    167 H167        3.3603  -15.2226  -38.2731 H         1 UNK         0.0600 
    168 H168        2.4625  -16.3787  -37.3029 H         1 UNK         0.0600 
    169 H169        1.7250  -15.0611  -41.1019 H         1 UNK         0.3000 
    170 H170        3.9855  -14.9361  -42.7652 H         1 UNK         0.0600 
    171 H171        5.1619  -17.0120  -43.4005 H         1 UNK         0.0600 
    172 H172        3.6544  -17.7681  -43.8925 H         1 UNK         0.0600 
    173 H173        4.2832  -16.3849  -44.7846 H         1 UNK         0.0600 
    174 H174        2.0227  -14.4728  -43.6943 H         1 UNK         0.3000 
    175 H175       -0.2349  -15.6577  -45.2296 H         1 UNK         0.0600 
    176 H176       -1.5774  -16.1750  -42.5186 H         1 UNK         0.0600 
    177 H177       -2.4187  -15.7540  -44.0086 H         1 UNK         0.0600 
    178 H178       -1.5540  -17.2736  -43.8968 H         1 UNK         0.0600 
    179 H179       -0.3718  -13.5169  -44.7345 H         1 UNK         0.3000 
    180 H180       -1.1153  -11.6064  -43.3548 H         1 UNK         0.0600 
    181 H181        0.7526  -11.4410  -40.9287 H         1 UNK         0.0600 
    182 H182       -1.0042  -11.5215  -40.8652 H         1 UNK         0.0600 
    183 H183       -0.2203  -10.1232  -41.5817 H         1 UNK         0.0600 
    184 H184        1.7299  -11.0595  -43.1198 H         1 UNK         0.3000 
    185 H185        2.4842  -10.0816  -45.7068 H         1 UNK         0.0600 
    186 H186        3.6177  -11.1387  -43.7218 H         1 UNK         0.0600 
    187 H187        3.5992  -12.7083  -44.5225 H         1 UNK         0.0600 
    188 H188        4.5919  -11.3965  -45.1439 H         1 UNK         0.0600 
    189 H189        1.7194  -12.3795  -47.1043 H         1 UNK         0.3000 
    190 H190       -2.3709  -19.8213  -46.0434 H         1 UNK         0.3000 
    191 H191       -4.9089  -20.2814  -44.5218 H         1 UNK         0.0600 
    192 H192       -3.3504  -20.4218  -42.5560 H         1 UNK         0.0600 
    193 H193       -3.3064  -18.8527  -43.3425 H         1 UNK         0.0600 
    194 H194       -1.9993  -20.0069  -43.6066 H         1 UNK         0.0600 
    195 H195       -1.7230  -21.7589  -45.3109 H         1 UNK         0.3000 
    196 H196       -2.2902  -24.2245  -44.0281 H         1 UNK         0.0600 
    197 H197       -0.0998  -23.4746  -46.0359 H         1 UNK         0.0600 
    198 H198       -0.0139  -23.2756  -44.2866 H         1 UNK         0.0600 
    199 H199       -0.0840  -24.8855  -44.9849 H         1 UNK         0.0600 
    200 H200       -2.9444  -23.1968  -47.3292 H         1 UNK         0.3000 
    201 H201       -3.7716  -25.9712  -48.0725 H         1 UNK         0.0600 
    202 H202       -2.4054  -23.8652  -49.8237 H         1 UNK         0.0600 
    203 H203       -3.0631  -25.3836  -50.3974 H         1 UNK         0.0600 
    204 H204       -1.7123  -25.3852  -49.2818 H         1 UNK         0.0600 
    205 H205       -5.1788  -23.6241  -46.8152 H         1 UNK         0.3000 
    206 H206       -7.1913  -22.6842  -46.7621 H         1 UNK         0.0600 
    207 H207       -7.8515  -25.0683  -46.7489 H         1 UNK         0.0600 
    208 H208       -9.0670  -24.1130  -47.5840 H         1 UNK         0.0600 
    209 H209       -7.9376  -25.0931  -48.5089 H         1 UNK         0.0600 
    210 H210       -6.4396  -20.7698  -47.8914 H         1 UNK         0.3000 
    211 H211       -6.4814  -19.1316  -49.3663 H         1 UNK         0.0600 
    212 H212       -8.4604  -18.7345  -50.7409 H         1 UNK         0.0600 
    213 H213       -8.9725  -19.3690  -49.1864 H         1 UNK         0.0600 
    214 H214       -8.9665  -20.4110  -50.6091 H         1 UNK         0.0600 
    215 H215       -4.9543  -21.5408  -49.9066 H         1 UNK         0.3000 
    216 H216       -3.6453  -22.5563  -51.3150 H         1 UNK         0.0600 
    217 H217       -2.8760  -20.2343  -51.8442 H         1 UNK         0.0600 
    218 H218       -3.9842  -20.1848  -53.2151 H         1 UNK         0.0600 
    219 H219       -2.6573  -21.3380  -53.1890 H         1 UNK         0.0600 
    220 H220       -6.5818  -23.0909  -51.5071 H         1 UNK         0.3000 
    221 H221       -7.1937  -23.8043  -54.2251 H         1 UNK         0.0600 
    222 H222       -8.9442  -23.4137  -52.4934 H         1 UNK         0.0600 
    223 H223       -8.3758  -24.8131  -51.5836 H         1 UNK         0.0600 
    224 H224       -9.0884  -25.0263  -53.1785 H         1 UNK         0.0600 
    225 H225       -5.5799  -25.4569  -51.5347 H         1 UNK         0.3000 
    226 H226       -5.2809  -27.9822  -53.0705 H         1 UNK         0.0600 
    227 H227       -4.4660  -27.2570  -50.2100 H         1 UNK         0.0600 
    228 H228       -5.9516  -28.0797  -50.6717 H         1 UNK         0.0600 
    229 H229       -4.4003  -28.8555  -50.9377 H         1 UNK         0.0600 
    230 H230       -3.8169  -25.1653  -53.4828 H         1 UNK         0.3000 
    231 H231       -1.1909  -26.3044  -54.1202 H         1 UNK         0.0600 
    232 H232       -1.5039  -23.8501  -52.3008 H         1 UNK         0.0600 
    233 H233        0.0192  -24.4486  -52.9646 H         1 UNK         0.0600 
    234 H234       -0.8666  -25.4161  -51.8077 H         1 UNK         0.0600 
    235 H235       -0.6894  -23.1121  -54.3362 H         1 UNK         0.3000 
    236 H236       -2.4415  -22.2988  -56.4396 H         1 UNK         0.0600 
    237 H237       -0.9292  -23.7583  -57.8162 H         1 UNK         0.0600 
    238 H238       -0.6306  -22.0695  -58.1865 H         1 UNK         0.0600 
    239 H239        0.4871  -22.9481  -57.1495 H         1 UNK         0.0600 
    240 H240       -1.9488  -20.0828  -57.0679 H         1 UNK         0.3000 
    241 H241        0.0503  -18.5697  -55.5981 H         1 UNK         0.0600 
    242 H242        0.5428  -16.5175  -56.6895 H         1 UNK         0.3800 
    243 H243        0.0009  -16.2864  -58.3265 H         1 UNK         0.3800 
    244 H244       -2.0404  -16.8043  -55.2580 H         1 UNK         0.0800 
    245 H245       -2.9341  -18.2793  -55.0937 H         1 UNK         0.0800 
    246 H246       -0.0623  -16.0155  -53.7254 H         1 UNK         0.0800 
    247 H247       -1.6531  -15.5983  -53.1319 H         1 UNK         0.0800 
@<TRIPOS>BOND
     1    1    2 1    
     2    1  127 1    
     3    1  128 1    
     4    1  129 1    
     5    2    3 2    
     6    2    4 am   BACKBONE|DICT|INTERRES
     7    4    5 1    
     8    4  130 1    
     9    5    6 1    
    10    5   65 1    
    11    5  131 1    
    12    6    7 1    
    13    6  132 1    
    14    6  133 1    
    15    7    8 1    
    16    8    9 1    
    17    8  134 1    
    18    8  135 1    
    19    9   10 ar   
    20    9   14 ar   
    21   10   11 ar   
    22   10  136 1    
    23   11   12 ar   
    24   11  126 1    
    25   12   13 ar   
    26   12  137 1    
    27   13   14 ar   
    28   13   15 1    
    29   14  138 1    
    30   15   16 1    
    31   15  139 1    
    32   15  140 1    
    33   16   17 1    
    34   17   18 1    
    35   17  141 1    
    36   17  142 1    
    37   18   19 1    
    38   18   67 1    
    39   18  143 1    
    40   19   20 am   BACKBONE|DICT|INTERRES
    41   19  144 1    
    42   20   21 2    
    43   20   22 1    
    44   22   23 1    
    45   22   24 1    
    46   22  145 1    
    47   23  146 1    
    48   23  147 1    
    49   23  148 1    
    50   24   25 am   BACKBONE|DICT|INTERRES
    51   24  149 1    
    52   25   26 2    
    53   25   27 1    
    54   27   28 1    
    55   27   29 1    
    56   27  150 1    
    57   28  151 1    
    58   28  152 1    
    59   28  153 1    
    60   29   30 am   BACKBONE|DICT|INTERRES
    61   29  154 1    
    62   30   31 2    
    63   30   32 1    
    64   32   33 1    
    65   32   34 1    
    66   32  155 1    
    67   33  156 1    
    68   33  157 1    
    69   33  158 1    
    70   34   35 am   BACKBONE|DICT|INTERRES
    71   34  159 1    
    72   35   36 2    
    73   35   37 1    
    74   37   38 1    
    75   37   39 1    
    76   37  160 1    
    77   38  161 1    
    78   38  162 1    
    79   38  163 1    
    80   39   40 am   BACKBONE|DICT|INTERRES
    81   39  164 1    
    82   40   41 2    
    83   40   42 1    
    84   42   43 1    
    85   42   44 1    
    86   42  165 1    
    87   43  166 1    
    88   43  167 1    
    89   43  168 1    
    90   44   45 am   BACKBONE|DICT|INTERRES
    91   44  169 1    
    92   45   46 2    
    93   45   47 1    
    94   47   48 1    
    95   47   49 1    
    96   47  170 1    
    97   48  171 1    
    98   48  172 1    
    99   48  173 1    
   100   49   50 am   BACKBONE|DICT|INTERRES
   101   49  174 1    
   102   50   51 2    
   103   50   52 1    
   104   52   53 1    
   105   52   54 1    
   106   52  175 1    
   107   53  176 1    
   108   53  177 1    
   109   53  178 1    
   110   54   55 am   BACKBONE|DICT|INTERRES
   111   54  179 1    
   112   55   56 2    
   113   55   57 1    
   114   57   58 1    
   115   57   59 1    
   116   57  180 1    
   117   58  181 1    
   118   58  182 1    
   119   58  183 1    
   120   59   60 am   BACKBONE|DICT|INTERRES
   121   59  184 1    
   122   60   61 2    
   123   60   62 1    
   124   62   63 1    
   125   62   64 1    
   126   62  185 1    
   127   63  186 1    
   128   63  187 1    
   129   63  188 1    
   130   64   65 am   BACKBONE|DICT|INTERRES
   131   64  189 1    
   132   65   66 2    
   133   67   68 2    
   134   67   69 am   BACKBONE|DICT|INTERRES
   135   69   70 1    
   136   69  190 1    
   137   70   71 1    
   138   70   72 1    
   139   70  191 1    
   140   71  192 1    
   141   71  193 1    
   142   71  194 1    
   143   72   73 2    
   144   72   74 am   BACKBONE|DICT|INTERRES
   145   74   75 1    
   146   74  195 1    
   147   75   76 1    
   148   75   77 1    
   149   75  196 1    
   150   76  197 1    
   151   76  198 1    
   152   76  199 1    
   153   77   78 2    
   154   77   79 am   BACKBONE|DICT|INTERRES
   155   79   80 1    
   156   79  200 1    
   157   80   81 1    
   158   80   82 1    
   159   80  201 1    
   160   81  202 1    
   161   81  203 1    
   162   81  204 1    
   163   82   83 2    
   164   82   84 am   BACKBONE|DICT|INTERRES
   165   84   85 1    
   166   84  205 1    
   167   85   86 1    
   168   85   87 1    
   169   85  206 1    
   170   86  207 1    
   171   86  208 1    
   172   86  209 1    
   173   87   88 2    
   174   87   89 am   BACKBONE|DICT|INTERRES
   175   89   90 1    
   176   89  210 1    
   177   90   91 1    
   178   90   92 1    
   179   90  211 1    
   180   91  212 1    
   181   91  213 1    
   182   91  214 1    
   183   92   93 2    
   184   92   94 am   BACKBONE|DICT|INTERRES
   185   94   95 1    
   186   94  215 1    
   187   95   96 1    
   188   95   97 1    
   189   95  216 1    
   190   96  217 1    
   191   96  218 1    
   192   96  219 1    
   193   97   98 2    
   194   97   99 am   BACKBONE|DICT|INTERRES
   195   99  100 1    
   196   99  220 1    
   197  100  101 1    
   198  100  102 1    
   199  100  221 1    
   200  101  222 1    
   201  101  223 1    
   202  101  224 1    
   203  102  103 2    
   204  102  104 am   BACKBONE|DICT|INTERRES
   205  104  105 1    
   206  104  225 1    
   207  105  106 1    
   208  105  107 1    
   209  105  226 1    
   210  106  227 1    
   211  106  228 1    
   212  106  229 1    
   213  107  108 2    
   214  107  109 am   BACKBONE|DICT|INTERRES
   215  109  110 1    
   216  109  230 1    
   217  110  111 1    
   218  110  112 1    
   219  110  231 1    
   220  111  232 1    
   221  111  233 1    
   222  111  234 1    
   223  112  113 2    
   224  112  114 am   BACKBONE|DICT|INTERRES
   225  114  115 1    
   226  114  235 1    
   227  115  116 1    
   228  115  117 1    
   229  115  236 1    
   230  116  237 1    
   231  116  238 1    
   232  116  239 1    
   233  117  118 2    
   234  117  119 am   BACKBONE|DICT|INTERRES
   235  119  120 1    
   236  119  240 1    
   237  120  121 1    
   238  120  124 1    
   239  120  241 1    
   240  121  122 am   BACKBONE|DICT|INTERRES
   241  121  123 2    
   242  122  242 1    
   243  122  243 1    
   244  124  125 1    
   245  124  244 1    
   246  124  245 1    
   247  125  126 1    
   248  126  246 1    
   249  126  247 1    
@<TRIPOS>SUBSTRUCTURE
     1 UNK         1 GROUP             0       ****    0 ROOT    
