@<TRIPOS>MOLECULE
3R540
247   249    1
SMALL
USER_CHARGES


@<TRIPOS>ATOM
      1 CA          0.2057  -10.3965  -45.7466 C.3       0 UNK        -0.1800 
      2 C          -0.6965  -11.4610  -45.1234 C.2       0 UNK         0.5000 
      3 O          -0.4808  -11.8133  -43.9664 O.2       0 UNK        -0.5000 
      4 N          -1.7143  -12.0009  -45.8108 N.am      1 UNK        -0.5000 
      5 CA         -2.1110  -11.7664  -47.2076 C.3       1 UNK         0.1400 
      6 C6         -3.5674  -12.2299  -47.4728 C.3       23 UNK        -0.0398 
      7 S7         -3.9530  -13.9187  -46.8773 S.3       23 UNK        -0.2404 
      8 C8         -4.5496  -14.7480  -48.3834 C.3       23 UNK        -0.0205 
      9 C9         -3.4140  -15.3522  -49.1931 C.ar      23 UNK        -0.0193 
     10 C10        -2.8752  -14.6665  -50.2838 C.ar      23 UNK        -0.1150 
     11 C11        -1.8540  -15.2389  -51.0470 C.ar      23 UNK        -0.0193 
     12 C12        -1.3813  -16.5129  -50.7189 C.ar      23 UNK        -0.1150 
     13 C13        -1.9107  -17.2109  -49.6287 C.ar      23 UNK        -0.0193 
     14 C14        -2.9197  -16.6166  -48.8638 C.ar      23 UNK        -0.1150 
     15 C15        -1.3612  -18.5844  -49.2637 C.3       23 UNK        -0.0205 
     16 S16        -2.6618  -19.8596  -49.1822 S.3       23 UNK        -0.2404 
     17 C17        -3.0881  -19.8622  -47.4094 C.3       23 UNK        -0.0398 
     18 CA         -2.9452  -21.2770  -46.7780 C.3       11 UNK         0.1400 
     19 N          -1.9019  -21.3118  -45.7448 N.am      11 UNK        -0.5000 
     20 C          -1.4196  -22.4071  -45.1405 C.2       10 UNK         0.5000 
     21 O          -1.7838  -23.5496  -45.4087 O.2       10 UNK        -0.5000 
     22 CA         -0.4109  -22.1928  -43.9964 C.3       10 UNK         0.1400 
     23 CB          1.0272  -22.3190  -44.5191 C.3       10 UNK        -0.1800 
     24 N          -0.5804  -20.9153  -43.2949 N.am      10 UNK        -0.5000 
     25 C          -1.6821  -20.5576  -42.6165 C.2       9 UNK         0.5000 
     26 O          -2.6707  -21.2814  -42.4975 O.2       9 UNK        -0.5000 
     27 CA         -1.7062  -19.1416  -42.0118 C.3       9 UNK         0.1400 
     28 CB         -0.9203  -19.0923  -40.6930 C.3       9 UNK        -0.1800 
     29 N          -1.1861  -18.1328  -42.9345 N.am      9 UNK        -0.5000 
     30 C          -1.7769  -17.7758  -44.0841 C.2       8 UNK         0.5000 
     31 O          -2.8706  -18.2030  -44.4531 O.2       8 UNK        -0.5000 
     32 CA         -0.9866  -16.8240  -45.0021 C.3       8 UNK         0.1400 
     33 CB         -1.1614  -15.3635  -44.5654 C.3       8 UNK        -0.1800 
     34 N           0.4388  -17.1537  -45.0499 N.am      8 UNK        -0.5000 
     35 C           0.9344  -18.3018  -45.5337 C.2       7 UNK         0.5000 
     36 O           0.2419  -19.1845  -46.0382 O.2       7 UNK        -0.5000 
     37 CA          2.4485  -18.5245  -45.3740 C.3       7 UNK         0.1400 
     38 CB          3.2389  -17.8784  -46.5224 C.3       7 UNK        -0.1800 
     39 N           2.9400  -18.0271  -44.0888 N.am      7 UNK        -0.5000 
     40 C           2.6682  -18.6019  -42.9083 C.2       6 UNK         0.5000 
     41 O           2.0112  -19.6349  -42.7885 O.2       6 UNK        -0.5000 
     42 CA          3.1769  -17.8768  -41.6490 C.3       6 UNK         0.1400 
     43 CB          4.6455  -18.2330  -41.3746 C.3       6 UNK        -0.1800 
     44 N           3.0402  -16.4232  -41.7465 N.am      6 UNK        -0.5000 
     45 C           1.8695  -15.7718  -41.8033 C.2       5 UNK         0.5000 
     46 O           0.7758  -16.3289  -41.7202 O.2       5 UNK        -0.5000 
     47 CA          1.9345  -14.2509  -42.0469 C.3       5 UNK         0.1400 
     48 CB          1.9958  -13.4924  -40.7131 C.3       5 UNK        -0.1800 
     49 N           3.0689  -13.8521  -42.8868 N.am      5 UNK        -0.5000 
     50 C           3.2314  -14.2317  -44.1600 C.2       4 UNK         0.5000 
     51 O           2.4342  -14.9554  -44.7647 O.2       4 UNK        -0.5000 
     52 CA          4.5256  -13.7840  -44.8502 C.3       4 UNK         0.1400 
     53 CB          5.7042  -14.6830  -44.4359 C.3       4 UNK        -0.1800 
     54 N           4.3250  -13.8703  -46.2895 N.am      4 UNK        -0.5000 
     55 C           4.9672  -13.1608  -47.2235 C.2       3 UNK         0.5000 
     56 O           5.8851  -12.3779  -46.9751 O.2       3 UNK        -0.5000 
     57 CA          4.5046  -13.3488  -48.6854 C.3       3 UNK         0.1400 
     58 CB          5.4705  -14.2791  -49.4356 C.3       3 UNK        -0.1800 
     59 N           3.1428  -13.8802  -48.8148 N.am      3 UNK        -0.5000 
     60 C           2.0301  -13.2359  -48.4371 C.2       2 UNK         0.5000 
     61 O           2.0387  -12.0884  -47.9859 O.2       2 UNK        -0.5000 
     62 CA          0.7077  -14.0226  -48.5616 C.3       2 UNK         0.1400 
     63 CB          0.8527  -15.4666  -48.0526 C.3       2 UNK        -0.1800 
     64 N          -0.3590  -13.3828  -47.7980 N.am      2 UNK        -0.5000 
     65 C          -1.1298  -12.3790  -48.2312 C.2       1 UNK         0.5000 
     66 O          -1.0807  -11.9164  -49.3719 O.2       1 UNK        -0.5000 
     67 C          -4.3167  -21.8260  -46.3154 C.2       11 UNK         0.5000 
     68 O          -5.1740  -22.0768  -47.1619 O.2       11 UNK        -0.5000 
     69 N          -4.5136  -22.0247  -45.0038 N.am      12 UNK        -0.5000 
     70 CA         -5.6790  -22.7098  -44.4419 C.3       12 UNK         0.1400 
     71 CB         -5.7897  -22.3583  -42.9502 C.3       12 UNK        -0.1800 
     72 C          -5.6394  -24.2429  -44.6332 C.2       12 UNK         0.5000 
     73 O          -6.6580  -24.8968  -44.4038 O.2       12 UNK        -0.5000 
     74 N          -4.4844  -24.7958  -45.0263 N.am      13 UNK        -0.5000 
     75 CA         -4.2449  -26.2223  -45.2226 C.3       13 UNK         0.1400 
     76 CB         -3.6338  -26.8013  -43.9313 C.3       13 UNK        -0.1800 
     77 C          -3.3435  -26.4382  -46.4527 C.2       13 UNK         0.5000 
     78 O          -3.1614  -25.5182  -47.2546 O.2       13 UNK        -0.5000 
     79 N          -2.8121  -27.6626  -46.5948 N.am      14 UNK        -0.5000 
     80 CA         -1.8241  -28.0886  -47.5969 C.3       14 UNK         0.1400 
     81 CB         -0.4524  -27.4554  -47.2810 C.3       14 UNK        -0.1800 
     82 C          -2.2724  -27.8421  -49.0533 C.2       14 UNK         0.5000 
     83 O          -1.4789  -27.3788  -49.8739 O.2       14 UNK        -0.5000 
     84 N          -3.5564  -28.1175  -49.3314 N.am      15 UNK        -0.5000 
     85 CA         -4.2528  -27.8569  -50.5988 C.3       15 UNK         0.1400 
     86 CB         -3.7120  -28.7698  -51.7200 C.3       15 UNK        -0.1800 
     87 C          -4.2298  -26.3600  -50.9774 C.2       15 UNK         0.5000 
     88 O          -3.9486  -26.0144  -52.1249 O.2       15 UNK        -0.5000 
     89 N          -4.4837  -25.5036  -49.9775 N.am      16 UNK        -0.5000 
     90 CA         -4.3834  -24.0418  -50.0103 C.3       16 UNK         0.1400 
     91 CB         -5.4426  -23.4295  -50.9495 C.3       16 UNK        -0.1800 
     92 C          -2.9485  -23.5770  -50.3233 C.2       16 UNK         0.5000 
     93 O          -2.7427  -22.7985  -51.2549 O.2       16 UNK        -0.5000 
     94 N          -1.9858  -24.1200  -49.5615 N.am      17 UNK        -0.5000 
     95 CA         -0.5335  -23.9597  -49.7096 C.3       17 UNK         0.1400 
     96 CB         -0.0836  -22.5778  -49.1960 C.3       17 UNK        -0.1800 
     97 C          -0.0440  -24.2610  -51.1436 C.2       17 UNK         0.5000 
     98 O           0.6429  -23.4395  -51.7534 O.2       17 UNK        -0.5000 
     99 N          -0.4397  -25.4368  -51.6520 N.am      18 UNK        -0.5000 
    100 CA        -0.2190  -25.9399  -53.0101 C.3       18 UNK         0.1400 
    101 CB         1.2781  -26.2230  -53.2547 C.3       18 UNK        -0.1800 
    102 C         -0.8571  -25.0348  -54.0862 C.2       18 UNK         0.5000 
    103 O         -0.1857  -24.6292  -55.0372 O.2       18 UNK        -0.5000 
    104 N         -2.1559  -24.7543  -53.9084 N.am      19 UNK        -0.5000 
    105 CA        -3.0337  -23.9699  -54.7799 C.3       19 UNK         0.1400 
    106 CB        -3.2826  -24.7169  -56.1071 C.3       19 UNK        -0.1800 
    107 C         -2.5635  -22.5138  -54.9778 C.2       19 UNK         0.5000 
    108 O         -2.5022  -22.0308  -56.1108 O.2       19 UNK        -0.5000 
    109 N         -2.2438  -21.8411  -53.8660 N.am      20 UNK        -0.5000 
    110 CA        -1.9230  -20.4191  -53.8118 C.3       20 UNK         0.1400 
    111 CB        -0.9026  -20.1763  -52.6852 C.3       20 UNK        -0.1800 
    112 C         -3.2283  -19.6129  -53.6643 C.2       20 UNK         0.5000 
    113 O         -3.9216  -19.4122  -54.6625 O.2       20 UNK        -0.5000 
    114 N         -3.5414  -19.1593  -52.4412 N.am      21 UNK        -0.5000 
    115 CA        -4.7293  -18.4102  -51.9946 C.3       21 UNK         0.1400 
    116 CB        -6.0100  -19.2424  -52.1909 C.3       21 UNK        -0.1800 
    117 C         -4.9043  -16.9925  -52.5810 C.2       21 UNK         0.5000 
    118 O         -5.4350  -16.1239  -51.8888 O.2       21 UNK        -0.5000 
    119 N         -4.4707  -16.7807  -53.8283 N.am      22 UNK        -0.5000 
    120 CA        -4.4512  -15.5017  -54.5599 C.3       22 UNK         0.1400 
    121 C         -5.8550  -14.8998  -54.8807 C.2       22 UNK         0.5000 
    122 N         -6.9340  -15.6709  -54.8230 N.am      22 UNK        -0.7600 
    123 O         -5.9711  -13.7259  -55.2235 O.2       22 UNK        -0.5000 
    124 C124       -3.4800  -14.4627  -53.9314 C.3       23 UNK        -0.0398 
    125 S125       -1.7654  -15.0872  -53.8264 S.3       23 UNK        -0.2404 
    126 C126       -1.2323  -14.4663  -52.2008 C.3       23 UNK        -0.0205 
    127 H127        0.0644  -10.2611  -46.8164 H         1 UNK         0.0600 
    128 H128        1.2503  -10.6666  -45.5905 H         1 UNK         0.0600 
    129 H129        0.0320   -9.4363  -45.2615 H         1 UNK         0.0600 
    130 H130       -2.2906  -12.6827  -45.3381 H         1 UNK         0.3000 
    131 H131       -2.0959  -10.6879  -47.3754 H         1 UNK         0.0600 
    132 H132       -4.2498  -11.5515  -46.9590 H         1 UNK         0.0800 
    133 H133       -3.8171  -12.1347  -48.5309 H         1 UNK         0.0800 
    134 H134       -5.2391  -15.5413  -48.0908 H         1 UNK         0.0800 
    135 H135       -5.1350  -14.0575  -48.9923 H         1 UNK         0.0800 
    136 H136       -3.2474  -13.6838  -50.5353 H         1 UNK         0.1150 
    137 H137       -0.5885  -16.9509  -51.3083 H         1 UNK         0.1150 
    138 H138       -3.3311  -17.1389  -48.0132 H         1 UNK         0.1150 
    139 H139       -0.6220  -18.9033  -49.9987 H         1 UNK         0.0800 
    140 H140       -0.8223  -18.5190  -48.3196 H         1 UNK         0.0800 
    141 H141       -4.0994  -19.4610  -47.3167 H         1 UNK         0.0800 
    142 H142       -2.4587  -19.1418  -46.8890 H         1 UNK         0.0800 
    143 H143       -2.6179  -21.9797  -47.5461 H         1 UNK         0.0600 
    144 H144       -1.4916  -20.4209  -45.4922 H         1 UNK         0.3000 
    145 H145       -0.5749  -22.9884  -43.2668 H         1 UNK         0.0600 
    146 H146        1.7528  -22.2272  -43.7110 H         1 UNK         0.0600 
    147 H147        1.1859  -23.2905  -44.9889 H         1 UNK         0.0600 
    148 H148        1.2523  -21.5573  -45.2645 H         1 UNK         0.0600 
    149 H149        0.2175  -20.2873  -43.3007 H         1 UNK         0.3000 
    150 H150       -2.7466  -18.8916  -41.7937 H         1 UNK         0.0600 
    151 H151       -1.3083  -19.8209  -39.9802 H         1 UNK         0.0600 
    152 H152       -0.9949  -18.1094  -40.2275 H         1 UNK         0.0600 
    153 H153        0.1371  -19.3101  -40.8430 H         1 UNK         0.0600 
    154 H154       -0.3181  -17.6770  -42.6702 H         1 UNK         0.3000 
    155 H155       -1.3855  -16.9250  -46.0137 H         1 UNK         0.0600 
    156 H156       -2.2069  -15.0624  -44.6312 H         1 UNK         0.0600 
    157 H157       -0.5820  -14.6910  -45.1960 H         1 UNK         0.0600 
    158 H158       -0.8438  -15.2072  -43.5352 H         1 UNK         0.0600 
    159 H159        1.0850  -16.4592  -44.6905 H         1 UNK         0.3000 
    160 H160        2.6282  -19.6004  -45.4145 H         1 UNK         0.0600 
    161 H161        3.1854  -16.7916  -46.4969 H         1 UNK         0.0600 
    162 H162        2.8579  -18.2046  -47.4910 H         1 UNK         0.0600 
    163 H163        4.2916  -18.1578  -46.4772 H         1 UNK         0.0600 
    164 H164        3.4366  -17.1492  -44.1006 H         1 UNK         0.3000 
    165 H165        2.5774  -18.2185  -40.8025 H         1 UNK         0.0600 
    166 H166        4.9920  -17.7854  -40.4429 H         1 UNK         0.0600 
    167 H167        4.7740  -19.3123  -41.2829 H         1 UNK         0.0600 
    168 H168        5.3014  -17.8909  -42.1762 H         1 UNK         0.0600 
    169 H169        3.8921  -15.8869  -41.8134 H         1 UNK         0.3000 
    170 H170        1.0179  -13.9585  -42.5632 H         1 UNK         0.0600 
    171 H171        1.1508  -13.7565  -40.0756 H         1 UNK         0.0600 
    172 H172        2.9083  -13.7195  -40.1606 H         1 UNK         0.0600 
    173 H173        1.9565  -12.4145  -40.8713 H         1 UNK         0.0600 
    174 H174        3.7658  -13.2632  -42.4537 H         1 UNK         0.3000 
    175 H175        4.7282  -12.7480  -44.5705 H         1 UNK         0.0600 
    176 H176        5.5289  -15.7252  -44.7060 H         1 UNK         0.0600 
    177 H177        6.6299  -14.3663  -44.9168 H         1 UNK         0.0600 
    178 H178        5.8718  -14.6441  -43.3590 H         1 UNK         0.0600 
    179 H179        3.5438  -14.4525  -46.5600 H         1 UNK         0.3000 
    180 H180        4.5312  -12.3680  -49.1645 H         1 UNK         0.0600 
    181 H181        5.4730  -15.2836  -49.0101 H         1 UNK         0.0600 
    182 H182        6.4927  -13.9010  -49.3896 H         1 UNK         0.0600 
    183 H183        5.2034  -14.3600  -50.4894 H         1 UNK         0.0600 
    184 H184        3.0631  -14.8164  -49.1838 H         1 UNK         0.3000 
    185 H185        0.4293  -14.0505  -49.6163 H         1 UNK         0.0600 
    186 H186        1.4667  -16.0720  -48.7195 H         1 UNK         0.0600 
    187 H187        1.3055  -15.4895  -47.0639 H         1 UNK         0.0600 
    188 H188       -0.1153  -15.9579  -47.9754 H         1 UNK         0.0600 
    189 H189       -0.4472  -13.6588  -46.8324 H         1 UNK         0.3000 
    190 H190       -3.7771  -21.7814  -44.3516 H         1 UNK         0.3000 
    191 H191       -6.5756  -22.3395  -44.9432 H         1 UNK         0.0600 
    192 H192       -5.8213  -21.2793  -42.7980 H         1 UNK         0.0600 
    193 H193       -6.6999  -22.7747  -42.5170 H         1 UNK         0.0600 
    194 H194       -4.9471  -22.7535  -42.3817 H         1 UNK         0.0600 
    195 H195       -3.6912  -24.2023  -45.2540 H         1 UNK         0.3000 
    196 H196       -5.1875  -26.7318  -45.4313 H         1 UNK         0.0600 
    197 H197       -3.5315  -27.8855  -43.9831 H         1 UNK         0.0600 
    198 H198       -4.2627  -26.5847  -43.0675 H         1 UNK         0.0600 
    199 H199       -2.6458  -26.3819  -43.7358 H         1 UNK         0.0600 
    200 H200       -3.0499  -28.3614  -45.9049 H         1 UNK         0.3000 
    201 H201       -1.7196  -29.1695  -47.4938 H         1 UNK         0.0600 
    202 H202       -0.1284  -27.7062  -46.2711 H         1 UNK         0.0600 
    203 H203       -0.4819  -26.3685  -47.3591 H         1 UNK         0.0600 
    204 H204        0.3172  -27.8151  -47.9651 H         1 UNK         0.0600 
    205 H205       -4.1280  -28.4856  -48.5839 H         1 UNK         0.3000 
    206 H206       -5.3003  -28.1160  -50.4391 H         1 UNK         0.0600 
    207 H207       -3.7522  -29.8189  -51.4275 H         1 UNK         0.0600 
    208 H208       -4.3057  -28.6639  -52.6287 H         1 UNK         0.0600 
    209 H209       -2.6793  -28.5328  -51.9772 H         1 UNK         0.0600 
    210 H210       -4.6204  -25.8938  -49.0553 H         1 UNK         0.3000 
    211 H211       -4.6022  -23.7040  -48.9995 H         1 UNK         0.0600 
    212 H212       -5.2638  -23.6863  -51.9937 H         1 UNK         0.0600 
    213 H213       -5.4341  -22.3425  -50.8743 H         1 UNK         0.0600 
    214 H214       -6.4451  -23.7657  -50.6860 H         1 UNK         0.0600 
    215 H215       -2.2836  -24.7420  -48.8140 H         1 UNK         0.3000 
    216 H216       -0.0741  -24.7117  -49.0677 H         1 UNK         0.0600 
    217 H217        1.0015  -22.4793  -49.2375 H         1 UNK         0.0600 
    218 H218       -0.3788  -22.4239  -48.1590 H         1 UNK         0.0600 
    219 H219       -0.5064  -21.7712  -49.7929 H         1 UNK         0.0600 
    220 H220       -0.9701  -26.0578  -51.0427 H         1 UNK         0.3000 
    221 H221       -0.7438  -26.8948  -53.0656 H         1 UNK         0.0600 
    222 H222        1.8726  -25.3091  -53.2496 H         1 UNK         0.0600 
    223 H223        1.6818  -26.8901  -52.4931 H         1 UNK         0.0600 
    224 H224        1.4296  -26.7050  -54.2212 H         1 UNK         0.0600 
    225 H225       -2.6258  -25.1519  -53.0974 H         1 UNK         0.3000 
    226 H226       -3.9903  -23.9070  -54.2594 H         1 UNK         0.0600 
    227 H227       -3.6577  -25.7244  -55.9265 H         1 UNK         0.0600 
    228 H228       -4.0266  -24.1989  -56.7133 H         1 UNK         0.0600 
    229 H229       -2.3736  -24.7988  -56.7037 H         1 UNK         0.0600 
    230 H230       -2.3525  -22.3030  -52.9634 H         1 UNK         0.3000 
    231 H231       -1.4551  -20.1085  -54.7482 H         1 UNK         0.0600 
    232 H232       -1.2565  -20.5543  -51.7274 H         1 UNK         0.0600 
    233 H233       -0.6816  -19.1143  -52.5738 H         1 UNK         0.0600 
    234 H234        0.0389  -20.6815  -52.9017 H         1 UNK         0.0600 
    235 H235       -2.8951  -19.3782  -51.6948 H         1 UNK         0.3000 
    236 H236       -4.5956  -18.2716  -50.9209 H         1 UNK         0.0600 
    237 H237       -5.9348  -20.2026  -51.6831 H         1 UNK         0.0600 
    238 H238       -6.8773  -18.7255  -51.7783 H         1 UNK         0.0600 
    239 H239       -6.2156  -19.4340  -53.2442 H         1 UNK         0.0600 
    240 H240       -4.1225  -17.5899  -54.3341 H         1 UNK         0.3000 
    241 H241       -4.0477  -15.7510  -55.5417 H         1 UNK         0.0600 
    242 H242       -7.8372  -15.2809  -55.0421 H         1 UNK         0.3800 
    243 H243       -6.8555  -16.6376  -54.5508 H         1 UNK         0.3800 
    244 H244       -3.4509  -13.5508  -54.5296 H         1 UNK         0.0800 
    245 H245       -3.8347  -14.1648  -52.9448 H         1 UNK         0.0800 
    246 H246       -0.1464  -14.5471  -52.1370 H         1 UNK         0.0800 
    247 H247       -1.4598  -13.4018  -52.1224 H         1 UNK         0.0800 
@<TRIPOS>BOND
     1    1    2 1    
     2    1  127 1    
     3    1  128 1    
     4    1  129 1    
     5    2    3 2    
     6    2    4 am   BACKBONE|DICT|INTERRES
     7    4    5 1    
     8    4  130 1    
     9    5    6 1    
    10    5   65 1    
    11    5  131 1    
    12    6    7 1    
    13    6  132 1    
    14    6  133 1    
    15    7    8 1    
    16    8    9 1    
    17    8  134 1    
    18    8  135 1    
    19    9   10 ar   
    20    9   14 ar   
    21   10   11 ar   
    22   10  136 1    
    23   11   12 ar   
    24   11  126 1    
    25   12   13 ar   
    26   12  137 1    
    27   13   14 ar   
    28   13   15 1    
    29   14  138 1    
    30   15   16 1    
    31   15  139 1    
    32   15  140 1    
    33   16   17 1    
    34   17   18 1    
    35   17  141 1    
    36   17  142 1    
    37   18   19 1    
    38   18   67 1    
    39   18  143 1    
    40   19   20 am   BACKBONE|DICT|INTERRES
    41   19  144 1    
    42   20   21 2    
    43   20   22 1    
    44   22   23 1    
    45   22   24 1    
    46   22  145 1    
    47   23  146 1    
    48   23  147 1    
    49   23  148 1    
    50   24   25 am   BACKBONE|DICT|INTERRES
    51   24  149 1    
    52   25   26 2    
    53   25   27 1    
    54   27   28 1    
    55   27   29 1    
    56   27  150 1    
    57   28  151 1    
    58   28  152 1    
    59   28  153 1    
    60   29   30 am   BACKBONE|DICT|INTERRES
    61   29  154 1    
    62   30   31 2    
    63   30   32 1    
    64   32   33 1    
    65   32   34 1    
    66   32  155 1    
    67   33  156 1    
    68   33  157 1    
    69   33  158 1    
    70   34   35 am   BACKBONE|DICT|INTERRES
    71   34  159 1    
    72   35   36 2    
    73   35   37 1    
    74   37   38 1    
    75   37   39 1    
    76   37  160 1    
    77   38  161 1    
    78   38  162 1    
    79   38  163 1    
    80   39   40 am   BACKBONE|DICT|INTERRES
    81   39  164 1    
    82   40   41 2    
    83   40   42 1    
    84   42   43 1    
    85   42   44 1    
    86   42  165 1    
    87   43  166 1    
    88   43  167 1    
    89   43  168 1    
    90   44   45 am   BACKBONE|DICT|INTERRES
    91   44  169 1    
    92   45   46 2    
    93   45   47 1    
    94   47   48 1    
    95   47   49 1    
    96   47  170 1    
    97   48  171 1    
    98   48  172 1    
    99   48  173 1    
   100   49   50 am   BACKBONE|DICT|INTERRES
   101   49  174 1    
   102   50   51 2    
   103   50   52 1    
   104   52   53 1    
   105   52   54 1    
   106   52  175 1    
   107   53  176 1    
   108   53  177 1    
   109   53  178 1    
   110   54   55 am   BACKBONE|DICT|INTERRES
   111   54  179 1    
   112   55   56 2    
   113   55   57 1    
   114   57   58 1    
   115   57   59 1    
   116   57  180 1    
   117   58  181 1    
   118   58  182 1    
   119   58  183 1    
   120   59   60 am   BACKBONE|DICT|INTERRES
   121   59  184 1    
   122   60   61 2    
   123   60   62 1    
   124   62   63 1    
   125   62   64 1    
   126   62  185 1    
   127   63  186 1    
   128   63  187 1    
   129   63  188 1    
   130   64   65 am   BACKBONE|DICT|INTERRES
   131   64  189 1    
   132   65   66 2    
   133   67   68 2    
   134   67   69 am   BACKBONE|DICT|INTERRES
   135   69   70 1    
   136   69  190 1    
   137   70   71 1    
   138   70   72 1    
   139   70  191 1    
   140   71  192 1    
   141   71  193 1    
   142   71  194 1    
   143   72   73 2    
   144   72   74 am   BACKBONE|DICT|INTERRES
   145   74   75 1    
   146   74  195 1    
   147   75   76 1    
   148   75   77 1    
   149   75  196 1    
   150   76  197 1    
   151   76  198 1    
   152   76  199 1    
   153   77   78 2    
   154   77   79 am   BACKBONE|DICT|INTERRES
   155   79   80 1    
   156   79  200 1    
   157   80   81 1    
   158   80   82 1    
   159   80  201 1    
   160   81  202 1    
   161   81  203 1    
   162   81  204 1    
   163   82   83 2    
   164   82   84 am   BACKBONE|DICT|INTERRES
   165   84   85 1    
   166   84  205 1    
   167   85   86 1    
   168   85   87 1    
   169   85  206 1    
   170   86  207 1    
   171   86  208 1    
   172   86  209 1    
   173   87   88 2    
   174   87   89 am   BACKBONE|DICT|INTERRES
   175   89   90 1    
   176   89  210 1    
   177   90   91 1    
   178   90   92 1    
   179   90  211 1    
   180   91  212 1    
   181   91  213 1    
   182   91  214 1    
   183   92   93 2    
   184   92   94 am   BACKBONE|DICT|INTERRES
   185   94   95 1    
   186   94  215 1    
   187   95   96 1    
   188   95   97 1    
   189   95  216 1    
   190   96  217 1    
   191   96  218 1    
   192   96  219 1    
   193   97   98 2    
   194   97   99 am   BACKBONE|DICT|INTERRES
   195   99  100 1    
   196   99  220 1    
   197  100  101 1    
   198  100  102 1    
   199  100  221 1    
   200  101  222 1    
   201  101  223 1    
   202  101  224 1    
   203  102  103 2    
   204  102  104 am   BACKBONE|DICT|INTERRES
   205  104  105 1    
   206  104  225 1    
   207  105  106 1    
   208  105  107 1    
   209  105  226 1    
   210  106  227 1    
   211  106  228 1    
   212  106  229 1    
   213  107  108 2    
   214  107  109 am   BACKBONE|DICT|INTERRES
   215  109  110 1    
   216  109  230 1    
   217  110  111 1    
   218  110  112 1    
   219  110  231 1    
   220  111  232 1    
   221  111  233 1    
   222  111  234 1    
   223  112  113 2    
   224  112  114 am   BACKBONE|DICT|INTERRES
   225  114  115 1    
   226  114  235 1    
   227  115  116 1    
   228  115  117 1    
   229  115  236 1    
   230  116  237 1    
   231  116  238 1    
   232  116  239 1    
   233  117  118 2    
   234  117  119 am   BACKBONE|DICT|INTERRES
   235  119  120 1    
   236  119  240 1    
   237  120  121 1    
   238  120  124 1    
   239  120  241 1    
   240  121  122 am   BACKBONE|DICT|INTERRES
   241  121  123 2    
   242  122  242 1    
   243  122  243 1    
   244  124  125 1    
   245  124  244 1    
   246  124  245 1    
   247  125  126 1    
   248  126  246 1    
   249  126  247 1    
@<TRIPOS>SUBSTRUCTURE
     1 UNK         1 GROUP             0       ****    0 ROOT    
