@<TRIPOS>MOLECULE
3R540
247   249    1
SMALL
USER_CHARGES


@<TRIPOS>ATOM
      1 CA          7.5157  -12.6541  -51.4946 C.3       0 UNK        -0.1800 
      2 C           6.7129  -12.8971  -50.2240 C.2       0 UNK         0.5000 
      3 O           7.2858  -13.2675  -49.1989 O.2       0 UNK        -0.5000 
      4 N           5.3906  -12.6987  -50.2894 N.am      1 UNK        -0.5000 
      5 CA          4.4715  -12.8156  -49.1550 C.3       1 UNK         0.1400 
      6 C6          3.0036  -12.9207  -49.6389 C.3       23 UNK        -0.0398 
      7 S7          1.8342  -13.3427  -48.3023 S.3       23 UNK        -0.2404 
      8 C8          0.3855  -13.9006  -49.2532 C.3       23 UNK        -0.0205 
      9 C9          0.4208  -15.3579  -49.7130 C.ar      23 UNK        -0.0193 
     10 C10        -0.4418  -15.7352  -50.7455 C.ar      23 UNK        -0.1150 
     11 C11        -0.4891  -17.0561  -51.1944 C.ar      23 UNK        -0.0193 
     12 C12         0.3727  -17.9989  -50.6344 C.ar      23 UNK        -0.1150 
     13 C13         1.2101  -17.6569  -49.5682 C.ar      23 UNK        -0.0193 
     14 C14         1.2323  -16.3342  -49.1129 C.ar      23 UNK        -0.1150 
     15 C15         2.0682  -18.7295  -48.9021 C.3       23 UNK        -0.0205 
     16 S16         1.2471  -19.5184  -47.4691 S.3       23 UNK        -0.2404 
     17 C17        -0.3765  -19.9471  -48.1719 C.3       23 UNK        -0.0398 
     18 CA         -1.1311  -21.1197  -47.5072 C.3       11 UNK         0.1400 
     19 N          -1.3352  -20.9762  -46.0577 N.am      11 UNK        -0.5000 
     20 C          -2.0049  -21.8529  -45.2871 C.2       10 UNK         0.5000 
     21 O          -2.5015  -22.8975  -45.7105 O.2       10 UNK        -0.5000 
     22 CA         -2.2259  -21.4728  -43.8158 C.3       10 UNK         0.1400 
     23 CB         -0.9908  -21.8057  -42.9646 C.3       10 UNK        -0.1800 
     24 N          -2.5616  -20.0553  -43.6986 N.am      10 UNK        -0.5000 
     25 C          -3.7882  -19.5558  -43.9095 C.2       9 UNK         0.5000 
     26 O          -4.7815  -20.2545  -44.1109 O.2       9 UNK        -0.5000 
     27 CA         -3.9368  -18.0208  -43.9168 C.3       9 UNK         0.1400 
     28 CB         -4.3344  -17.5128  -42.5229 C.3       9 UNK        -0.1800 
     29 N          -2.7278  -17.3204  -44.3521 N.am      9 UNK        -0.5000 
     30 C          -2.2259  -17.3606  -45.5942 C.2       8 UNK         0.5000 
     31 O          -2.7598  -17.9629  -46.5266 O.2       8 UNK        -0.5000 
     32 CA         -0.8741  -16.6491  -45.8135 C.3       8 UNK         0.1400 
     33 CB         -1.1077  -15.1797  -46.1835 C.3       8 UNK        -0.1800 
     34 N           0.0480  -16.7098  -44.6707 N.am      8 UNK        -0.5000 
     35 C           0.4382  -17.8297  -44.0424 C.2       7 UNK         0.5000 
     36 O           0.0142  -18.9488  -44.3300 O.2       7 UNK        -0.5000 
     37 CA          1.4422  -17.6600  -42.8855 C.3       7 UNK         0.1400 
     38 CB          1.9735  -19.0004  -42.3368 C.3       7 UNK        -0.1800 
     39 N           2.5410  -16.7587  -43.2315 N.am      7 UNK        -0.5000 
     40 C           3.4590  -16.9108  -44.1984 C.2       6 UNK         0.5000 
     41 O           3.5518  -17.9098  -44.9110 O.2       6 UNK        -0.5000 
     42 CA          4.4445  -15.7450  -44.4136 C.3       6 UNK         0.1400 
     43 CB          4.2452  -15.1149  -45.8003 C.3       6 UNK        -0.1800 
     44 N           4.3055  -14.7018  -43.3929 N.am      6 UNK        -0.5000 
     45 C           5.0003  -14.6600  -42.2470 C.2       5 UNK         0.5000 
     46 O           5.9244  -15.4287  -41.9808 O.2       5 UNK        -0.5000 
     47 CA          4.5722  -13.6084  -41.2036 C.3       5 UNK         0.1400 
     48 CB          5.5009  -12.3861  -41.2338 C.3       5 UNK        -0.1800 
     49 N           3.1819  -13.1733  -41.3678 N.am      5 UNK        -0.5000 
     50 C           2.1213  -13.9145  -41.0128 C.2       4 UNK         0.5000 
     51 O           2.2139  -15.0331  -40.5085 O.2       4 UNK        -0.5000 
     52 CA          0.7219  -13.3441  -41.3111 C.3       4 UNK         0.1400 
     53 CB          0.1955  -12.5514  -40.1057 C.3       4 UNK        -0.1800 
     54 N           0.6740  -12.4952  -42.5015 N.am      4 UNK        -0.5000 
     55 C           0.9418  -12.8990  -43.7498 C.2       3 UNK         0.5000 
     56 O           1.2631  -14.0546  -44.0351 O.2       3 UNK        -0.5000 
     57 CA          0.8694  -11.8389  -44.8670 C.3       3 UNK         0.1400 
     58 CB          0.2210  -10.5045  -44.4353 C.3       3 UNK        -0.1800 
     59 N           2.1830  -11.5938  -45.4681 N.am      3 UNK        -0.5000 
     60 C           3.3084  -11.2012  -44.8505 C.2       2 UNK         0.5000 
     61 O           3.3855  -11.0060  -43.6363 O.2       2 UNK        -0.5000 
     62 CA          4.5539  -11.0230  -45.7439 C.3       2 UNK         0.1400 
     63 CB          5.8718  -11.2364  -44.9786 C.3       2 UNK        -0.1800 
     64 N           4.5060  -11.9521  -46.8713 N.am      2 UNK        -0.5000 
     65 C           4.6698  -11.6461  -48.1620 C.2       1 UNK         0.5000 
     66 O           4.9247  -10.5132  -48.5788 O.2       1 UNK        -0.5000 
     67 C          -2.4612  -21.2989  -48.2627 C.2       11 UNK         0.5000 
     68 O          -2.5444  -22.1491  -49.1454 O.2       11 UNK        -0.5000 
     69 N          -3.4842  -20.5271  -47.8680 N.am      12 UNK        -0.5000 
     70 CA         -4.8352  -20.5691  -48.4238 C.3       12 UNK         0.1400 
     71 CB         -5.7087  -19.5330  -47.7013 C.3       12 UNK        -0.1800 
     72 C          -5.5047  -21.9556  -48.3841 C.2       12 UNK         0.5000 
     73 O          -6.3282  -22.2379  -49.2547 O.2       12 UNK        -0.5000 
     74 N          -5.1283  -22.7882  -47.4059 N.am      13 UNK        -0.5000 
     75 CA         -5.5675  -24.1733  -47.2848 C.3       13 UNK         0.1400 
     76 CB         -5.8215  -24.4898  -45.8028 C.3       13 UNK        -0.1800 
     77 C          -4.5358  -25.1514  -47.8725 C.2       13 UNK         0.5000 
     78 O          -4.9317  -26.0958  -48.5552 O.2       13 UNK        -0.5000 
     79 N          -3.2481  -24.9378  -47.5714 N.am      14 UNK        -0.5000 
     80 CA         -2.1754  -25.9014  -47.8208 C.3       14 UNK         0.1400 
     81 CB         -1.0549  -25.6626  -46.7961 C.3       14 UNK        -0.1800 
     82 C          -1.5934  -25.8786  -49.2455 C.2       14 UNK         0.5000 
     83 O          -1.1475  -26.9252  -49.7185 O.2       14 UNK        -0.5000 
     84 N          -1.5495  -24.7053  -49.8896 N.am      15 UNK        -0.5000 
     85 CA         -0.9442  -24.5270  -51.2119 C.3       15 UNK         0.1400 
     86 CB         -0.5354  -23.0543  -51.3933 C.3       15 UNK        -0.1800 
     87 C          -1.8759  -24.9946  -52.3453 C.2       15 UNK         0.5000 
     88 O          -3.0639  -25.2306  -52.1141 O.2       15 UNK        -0.5000 
     89 N          -1.3075  -25.0956  -53.5583 N.am      16 UNK        -0.5000 
     90 CA         -1.9545  -25.5198  -54.8099 C.3       16 UNK         0.1400 
     91 CB         -3.0101  -24.4861  -55.2572 C.3       16 UNK        -0.1800 
     92 C          -2.5190  -26.9529  -54.7186 C.2       16 UNK         0.5000 
     93 O          -3.6430  -27.2096  -55.1521 O.2       16 UNK        -0.5000 
     94 N          -1.7356  -27.8441  -54.0925 N.am      17 UNK        -0.5000 
     95 CA         -2.0717  -29.1928  -53.6157 C.3       17 UNK         0.1400 
     96 CB         -2.6047  -30.1082  -54.7356 C.3       17 UNK        -0.1800 
     97 C          -3.0110  -29.1602  -52.3945 C.2       17 UNK         0.5000 
     98 O          -2.6875  -29.7648  -51.3717 O.2       17 UNK        -0.5000 
     99 N          -4.1182  -28.4206  -52.5055 N.am      18 UNK        -0.5000 
    100 CA        -5.0187  -28.0426  -51.4257 C.3       18 UNK         0.1400 
    101 CB        -5.8389  -29.2535  -50.9391 C.3       18 UNK        -0.1800 
    102 C         -5.9527  -26.9308  -51.9256 C.2       18 UNK         0.5000 
    103 O         -6.3334  -26.9366  -53.0988 O.2       18 UNK        -0.5000 
    104 N         -6.3514  -26.0474  -51.0027 N.am      19 UNK        -0.5000 
    105 CA        -7.3610  -24.9959  -51.1508 C.3       19 UNK         0.1400 
    106 CB        -8.7628  -25.6202  -51.3155 C.3       19 UNK        -0.1800 
    107 C         -7.0286  -23.9614  -52.2473 C.2       19 UNK         0.5000 
    108 O         -7.8269  -23.7469  -53.1622 O.2       19 UNK        -0.5000 
    109 N         -5.8605  -23.3162  -52.1213 N.am      20 UNK        -0.5000 
    110 CA        -5.4307  -22.1984  -52.9689 C.3       20 UNK         0.1400 
    111 CB        -3.9749  -21.8395  -52.6448 C.3       20 UNK        -0.1800 
    112 C         -6.3124  -20.9394  -52.8442 C.2       20 UNK         0.5000 
    113 O         -6.4027  -20.1770  -53.8071 O.2       20 UNK        -0.5000 
    114 N         -6.9397  -20.7496  -51.6719 N.am      21 UNK        -0.5000 
    115 CA        -7.8535  -19.6545  -51.3270 C.3       21 UNK         0.1400 
    116 CB        -9.1504  -19.7416  -52.1586 C.3       21 UNK        -0.1800 
    117 C         -7.1845  -18.2629  -51.3822 C.2       21 UNK         0.5000 
    118 O         -7.7855  -17.2986  -51.8586 O.2       21 UNK        -0.5000 
    119 N         -5.9460  -18.1921  -50.8776 N.am      22 UNK        -0.5000 
    120 CA        -5.1111  -16.9806  -50.7864 C.3       22 UNK         0.1400 
    121 C         -5.6578  -15.8526  -49.8581 C.2       22 UNK         0.5000 
    122 N         -6.6469  -16.0993  -49.0077 N.am      22 UNK        -0.7600 
    123 O         -5.1727  -14.7262  -49.9150 O.2       22 UNK        -0.5000 
    124 C124       -3.6512  -17.3238  -50.3893 C.3       23 UNK        -0.0398 
    125 S125       -2.8382  -18.4946  -51.5333 S.3       23 UNK        -0.2404 
    126 C126       -1.5012  -17.4783  -52.2502 C.3       23 UNK        -0.0205 
    127 H127        8.0359  -13.5653  -51.7900 H         1 UNK         0.0600 
    128 H128        8.2592  -11.8753  -51.3250 H         1 UNK         0.0600 
    129 H129        6.8796  -12.3420  -52.3232 H         1 UNK         0.0600 
    130 H130        4.9855  -12.3637  -51.1517 H         1 UNK         0.3000 
    131 H131        4.7174  -13.7471  -48.6396 H         1 UNK         0.0600 
    132 H132        2.6808  -11.9910  -50.1110 H         1 UNK         0.0800 
    133 H133        2.9276  -13.6950  -50.4040 H         1 UNK         0.0800 
    134 H134       -0.5047  -13.7546  -48.6425 H         1 UNK         0.0800 
    135 H135        0.2656  -13.2440  -50.1165 H         1 UNK         0.0800 
    136 H136       -1.1013  -14.9996  -51.1847 H         1 UNK         0.1150 
    137 H137        0.3477  -19.0154  -51.0002 H         1 UNK         0.1150 
    138 H138        1.8745  -16.0800  -48.2822 H         1 UNK         0.1150 
    139 H139        2.3320  -19.4998  -49.6284 H         1 UNK         0.0800 
    140 H140        3.0107  -18.2929  -48.5684 H         1 UNK         0.0800 
    141 H141       -0.2141  -20.2134  -49.2161 H         1 UNK         0.0800 
    142 H142       -0.9832  -19.0400  -48.1761 H         1 UNK         0.0800 
    143 H143       -0.5440  -22.0285  -47.6547 H         1 UNK         0.0600 
    144 H144       -0.9173  -20.1619  -45.6177 H         1 UNK         0.3000 
    145 H145       -3.0590  -22.0674  -43.4343 H         1 UNK         0.0600 
    146 H146       -1.1271  -21.4920  -41.9296 H         1 UNK         0.0600 
    147 H147       -0.8081  -22.8808  -42.9577 H         1 UNK         0.0600 
    148 H148       -0.0876  -21.3291  -43.3446 H         1 UNK         0.0600 
    149 H149       -1.7749  -19.4199  -43.6282 H         1 UNK         0.3000 
    150 H150       -4.7399  -17.7724  -44.6141 H         1 UNK         0.0600 
    151 H151       -5.2495  -17.9958  -42.1777 H         1 UNK         0.0600 
    152 H152       -4.5194  -16.4385  -42.5321 H         1 UNK         0.0600 
    153 H153       -3.5578  -17.7148  -41.7840 H         1 UNK         0.0600 
    154 H154       -2.2206  -16.8054  -43.6481 H         1 UNK         0.3000 
    155 H155       -0.3804  -17.1362  -46.6551 H         1 UNK         0.0600 
    156 H156       -1.7591  -15.0953  -47.0543 H         1 UNK         0.0600 
    157 H157       -0.1665  -14.6882  -46.4264 H         1 UNK         0.0600 
    158 H158       -1.5724  -14.6265  -45.3667 H         1 UNK         0.0600 
    159 H159        0.4725  -15.8295  -44.3927 H         1 UNK         0.3000 
    160 H160        0.8941  -17.1721  -42.0783 H         1 UNK         0.0600 
    161 H161        2.4693  -19.5889  -43.1094 H         1 UNK         0.0600 
    162 H162        1.1597  -19.6067  -41.9378 H         1 UNK         0.0600 
    163 H163        2.6850  -18.8404  -41.5267 H         1 UNK         0.0600 
    164 H164        2.5647  -15.8958  -42.7073 H         1 UNK         0.3000 
    165 H165        5.4506  -16.1680  -44.3808 H         1 UNK         0.0600 
    166 H166        3.2946  -14.5854  -45.8690 H         1 UNK         0.0600 
    167 H167        5.0555  -14.4215  -46.0182 H         1 UNK         0.0600 
    168 H168        4.2554  -15.8717  -46.5862 H         1 UNK         0.0600 
    169 H169        3.5367  -14.0563  -43.5147 H         1 UNK         0.3000 
    170 H170        4.6723  -14.0727  -40.2201 H         1 UNK         0.0600 
    171 H171        6.5412  -12.6812  -41.0913 H         1 UNK         0.0600 
    172 H172        5.4385  -11.8543  -42.1811 H         1 UNK         0.0600 
    173 H173        5.2510  -11.6828  -40.4394 H         1 UNK         0.0600 
    174 H174        3.0341  -12.2817  -41.8268 H         1 UNK         0.3000 
    175 H175        0.0534  -14.1907  -41.4813 H         1 UNK         0.0600 
    176 H176        0.8086  -11.6722  -39.9035 H         1 UNK         0.0600 
    177 H177       -0.8289  -12.2169  -40.2699 H         1 UNK         0.0600 
    178 H178        0.1946  -13.1656  -39.2041 H         1 UNK         0.0600 
    179 H179        0.4465  -11.5228  -42.3530 H         1 UNK         0.3000 
    180 H180        0.2446  -12.2696  -45.6505 H         1 UNK         0.0600 
    181 H181        0.8063   -9.9846  -43.6760 H         1 UNK         0.0600 
    182 H182       -0.7820  -10.6630  -44.0369 H         1 UNK         0.0600 
    183 H183        0.1213   -9.8314  -45.2869 H         1 UNK         0.0600 
    184 H184        2.2330  -11.7683  -46.4628 H         1 UNK         0.3000 
    185 H185        4.5278   -9.9924  -46.1030 H         1 UNK         0.0600 
    186 H186        5.9731  -10.5217  -44.1613 H         1 UNK         0.0600 
    187 H187        5.9323  -12.2401  -44.5563 H         1 UNK         0.0600 
    188 H188        6.7319  -11.0986  -45.6339 H         1 UNK         0.0600 
    189 H189        4.2783  -12.9066  -46.6316 H         1 UNK         0.3000 
    190 H190       -3.3046  -19.8143  -47.1675 H         1 UNK         0.3000 
    191 H191       -4.7505  -20.2874  -49.4735 H         1 UNK         0.0600 
    192 H192       -5.2885  -18.5307  -47.7805 H         1 UNK         0.0600 
    193 H193       -5.8078  -19.7665  -46.6408 H         1 UNK         0.0600 
    194 H194       -6.7137  -19.5015  -48.1232 H         1 UNK         0.0600 
    195 H195       -4.4147  -22.4818  -46.7572 H         1 UNK         0.3000 
    196 H196       -6.5086  -24.3173  -47.8197 H         1 UNK         0.0600 
    197 H197       -6.1542  -25.5207  -45.6747 H         1 UNK         0.0600 
    198 H198       -6.5974  -23.8441  -45.3913 H         1 UNK         0.0600 
    199 H199       -4.9224  -24.3564  -45.1995 H         1 UNK         0.0600 
    200 H200       -3.0039  -24.1412  -46.9885 H         1 UNK         0.3000 
    201 H201       -2.5696  -26.9057  -47.6494 H         1 UNK         0.0600 
    202 H202       -1.4273  -25.7532  -45.7755 H         1 UNK         0.0600 
    203 H203       -0.6169  -24.6695  -46.9049 H         1 UNK         0.0600 
    204 H204       -0.2519  -26.3912  -46.9151 H         1 UNK         0.0600 
    205 H205       -1.9911  -23.8847  -49.4821 H         1 UNK         0.3000 
    206 H206       -0.0354  -25.1310  -51.2579 H         1 UNK         0.0600 
    207 H207        0.0895  -22.7132  -50.5677 H         1 UNK         0.0600 
    208 H208        0.0373  -22.9130  -52.3102 H         1 UNK         0.0600 
    209 H209       -1.4006  -22.3953  -51.4495 H         1 UNK         0.0600 
    210 H210       -0.3257  -24.8709  -53.6410 H         1 UNK         0.3000 
    211 H211       -1.1741  -25.5448  -55.5716 H         1 UNK         0.0600 
    212 H212       -3.8678  -24.4671  -54.5839 H         1 UNK         0.0600 
    213 H213       -2.5895  -23.4813  -55.2956 H         1 UNK         0.0600 
    214 H214       -3.3856  -24.7193  -56.2540 H         1 UNK         0.0600 
    215 H215       -0.8439  -27.5010  -53.7642 H         1 UNK         0.3000 
    216 H216       -1.1282  -29.6220  -53.2745 H         1 UNK         0.0600 
    217 H217       -1.9297  -30.1190  -55.5913 H         1 UNK         0.0600 
    218 H218       -3.5900  -29.8025  -55.0875 H         1 UNK         0.0600 
    219 H219       -2.6963  -31.1351  -54.3800 H         1 UNK         0.0600 
    220 H220       -4.2964  -27.9452  -53.3872 H         1 UNK         0.3000 
    221 H221       -4.4138  -27.6543  -50.6043 H         1 UNK         0.0600 
    222 H222       -6.4083  -29.7030  -51.7534 H         1 UNK         0.0600 
    223 H223       -5.2030  -30.0259  -50.5075 H         1 UNK         0.0600 
    224 H224       -6.5488  -28.9562  -50.1662 H         1 UNK         0.0600 
    225 H225       -5.9235  -26.1147  -50.0806 H         1 UNK         0.3000 
    226 H226       -7.3678  -24.4498  -50.2078 H         1 UNK         0.0600 
    227 H227       -8.9905  -26.2991  -50.4937 H         1 UNK         0.0600 
    228 H228       -9.5345  -24.8495  -51.3219 H         1 UNK         0.0600 
    229 H229       -8.8519  -26.1801  -52.2470 H         1 UNK         0.0600 
    230 H230       -5.2421  -23.5770  -51.3663 H         1 UNK         0.3000 
    231 H231       -5.4784  -22.5279  -54.0087 H         1 UNK         0.0600 
    232 H232       -3.6487  -20.9656  -53.2101 H         1 UNK         0.0600 
    233 H233       -3.3054  -22.6517  -52.9126 H         1 UNK         0.0600 
    234 H234       -3.8373  -21.6186  -51.5858 H         1 UNK         0.0600 
    235 H235       -6.7818  -21.4336  -50.9360 H         1 UNK         0.3000 
    236 H236       -8.1293  -19.8131  -50.2837 H         1 UNK         0.0600 
    237 H237       -9.6015  -20.7310  -52.0813 H         1 UNK         0.0600 
    238 H238       -9.8892  -19.0204  -51.8075 H         1 UNK         0.0600 
    239 H239       -8.9710  -19.5371  -53.2144 H         1 UNK         0.0600 
    240 H240       -5.5095  -19.0461  -50.5722 H         1 UNK         0.3000 
    241 H241       -5.0844  -16.5480  -51.7882 H         1 UNK         0.0600 
    242 H242       -7.0745  -17.0083  -48.9609 H         1 UNK         0.3800 
    243 H243       -6.9889  -15.3543  -48.4214 H         1 UNK         0.3800 
    244 H244       -3.0588  -16.4111  -50.3327 H         1 UNK         0.0800 
    245 H245       -3.6175  -17.7555  -49.3878 H         1 UNK         0.0800 
    246 H246       -0.9944  -18.0547  -53.0253 H         1 UNK         0.0800 
    247 H247       -1.9347  -16.6089  -52.7469 H         1 UNK         0.0800 
@<TRIPOS>BOND
     1    1    2 1    
     2    1  127 1    
     3    1  128 1    
     4    1  129 1    
     5    2    3 2    
     6    2    4 am   BACKBONE|DICT|INTERRES
     7    4    5 1    
     8    4  130 1    
     9    5    6 1    
    10    5   65 1    
    11    5  131 1    
    12    6    7 1    
    13    6  132 1    
    14    6  133 1    
    15    7    8 1    
    16    8    9 1    
    17    8  134 1    
    18    8  135 1    
    19    9   10 ar   
    20    9   14 ar   
    21   10   11 ar   
    22   10  136 1    
    23   11   12 ar   
    24   11  126 1    
    25   12   13 ar   
    26   12  137 1    
    27   13   14 ar   
    28   13   15 1    
    29   14  138 1    
    30   15   16 1    
    31   15  139 1    
    32   15  140 1    
    33   16   17 1    
    34   17   18 1    
    35   17  141 1    
    36   17  142 1    
    37   18   19 1    
    38   18   67 1    
    39   18  143 1    
    40   19   20 am   BACKBONE|DICT|INTERRES
    41   19  144 1    
    42   20   21 2    
    43   20   22 1    
    44   22   23 1    
    45   22   24 1    
    46   22  145 1    
    47   23  146 1    
    48   23  147 1    
    49   23  148 1    
    50   24   25 am   BACKBONE|DICT|INTERRES
    51   24  149 1    
    52   25   26 2    
    53   25   27 1    
    54   27   28 1    
    55   27   29 1    
    56   27  150 1    
    57   28  151 1    
    58   28  152 1    
    59   28  153 1    
    60   29   30 am   BACKBONE|DICT|INTERRES
    61   29  154 1    
    62   30   31 2    
    63   30   32 1    
    64   32   33 1    
    65   32   34 1    
    66   32  155 1    
    67   33  156 1    
    68   33  157 1    
    69   33  158 1    
    70   34   35 am   BACKBONE|DICT|INTERRES
    71   34  159 1    
    72   35   36 2    
    73   35   37 1    
    74   37   38 1    
    75   37   39 1    
    76   37  160 1    
    77   38  161 1    
    78   38  162 1    
    79   38  163 1    
    80   39   40 am   BACKBONE|DICT|INTERRES
    81   39  164 1    
    82   40   41 2    
    83   40   42 1    
    84   42   43 1    
    85   42   44 1    
    86   42  165 1    
    87   43  166 1    
    88   43  167 1    
    89   43  168 1    
    90   44   45 am   BACKBONE|DICT|INTERRES
    91   44  169 1    
    92   45   46 2    
    93   45   47 1    
    94   47   48 1    
    95   47   49 1    
    96   47  170 1    
    97   48  171 1    
    98   48  172 1    
    99   48  173 1    
   100   49   50 am   BACKBONE|DICT|INTERRES
   101   49  174 1    
   102   50   51 2    
   103   50   52 1    
   104   52   53 1    
   105   52   54 1    
   106   52  175 1    
   107   53  176 1    
   108   53  177 1    
   109   53  178 1    
   110   54   55 am   BACKBONE|DICT|INTERRES
   111   54  179 1    
   112   55   56 2    
   113   55   57 1    
   114   57   58 1    
   115   57   59 1    
   116   57  180 1    
   117   58  181 1    
   118   58  182 1    
   119   58  183 1    
   120   59   60 am   BACKBONE|DICT|INTERRES
   121   59  184 1    
   122   60   61 2    
   123   60   62 1    
   124   62   63 1    
   125   62   64 1    
   126   62  185 1    
   127   63  186 1    
   128   63  187 1    
   129   63  188 1    
   130   64   65 am   BACKBONE|DICT|INTERRES
   131   64  189 1    
   132   65   66 2    
   133   67   68 2    
   134   67   69 am   BACKBONE|DICT|INTERRES
   135   69   70 1    
   136   69  190 1    
   137   70   71 1    
   138   70   72 1    
   139   70  191 1    
   140   71  192 1    
   141   71  193 1    
   142   71  194 1    
   143   72   73 2    
   144   72   74 am   BACKBONE|DICT|INTERRES
   145   74   75 1    
   146   74  195 1    
   147   75   76 1    
   148   75   77 1    
   149   75  196 1    
   150   76  197 1    
   151   76  198 1    
   152   76  199 1    
   153   77   78 2    
   154   77   79 am   BACKBONE|DICT|INTERRES
   155   79   80 1    
   156   79  200 1    
   157   80   81 1    
   158   80   82 1    
   159   80  201 1    
   160   81  202 1    
   161   81  203 1    
   162   81  204 1    
   163   82   83 2    
   164   82   84 am   BACKBONE|DICT|INTERRES
   165   84   85 1    
   166   84  205 1    
   167   85   86 1    
   168   85   87 1    
   169   85  206 1    
   170   86  207 1    
   171   86  208 1    
   172   86  209 1    
   173   87   88 2    
   174   87   89 am   BACKBONE|DICT|INTERRES
   175   89   90 1    
   176   89  210 1    
   177   90   91 1    
   178   90   92 1    
   179   90  211 1    
   180   91  212 1    
   181   91  213 1    
   182   91  214 1    
   183   92   93 2    
   184   92   94 am   BACKBONE|DICT|INTERRES
   185   94   95 1    
   186   94  215 1    
   187   95   96 1    
   188   95   97 1    
   189   95  216 1    
   190   96  217 1    
   191   96  218 1    
   192   96  219 1    
   193   97   98 2    
   194   97   99 am   BACKBONE|DICT|INTERRES
   195   99  100 1    
   196   99  220 1    
   197  100  101 1    
   198  100  102 1    
   199  100  221 1    
   200  101  222 1    
   201  101  223 1    
   202  101  224 1    
   203  102  103 2    
   204  102  104 am   BACKBONE|DICT|INTERRES
   205  104  105 1    
   206  104  225 1    
   207  105  106 1    
   208  105  107 1    
   209  105  226 1    
   210  106  227 1    
   211  106  228 1    
   212  106  229 1    
   213  107  108 2    
   214  107  109 am   BACKBONE|DICT|INTERRES
   215  109  110 1    
   216  109  230 1    
   217  110  111 1    
   218  110  112 1    
   219  110  231 1    
   220  111  232 1    
   221  111  233 1    
   222  111  234 1    
   223  112  113 2    
   224  112  114 am   BACKBONE|DICT|INTERRES
   225  114  115 1    
   226  114  235 1    
   227  115  116 1    
   228  115  117 1    
   229  115  236 1    
   230  116  237 1    
   231  116  238 1    
   232  116  239 1    
   233  117  118 2    
   234  117  119 am   BACKBONE|DICT|INTERRES
   235  119  120 1    
   236  119  240 1    
   237  120  121 1    
   238  120  124 1    
   239  120  241 1    
   240  121  122 am   BACKBONE|DICT|INTERRES
   241  121  123 2    
   242  122  242 1    
   243  122  243 1    
   244  124  125 1    
   245  124  244 1    
   246  124  245 1    
   247  125  126 1    
   248  126  246 1    
   249  126  247 1    
@<TRIPOS>SUBSTRUCTURE
     1 UNK         1 GROUP             0       ****    0 ROOT    
