@<TRIPOS>MOLECULE
3R540
247   249    1
SMALL
USER_CHARGES


@<TRIPOS>ATOM
      1 CA         -0.7807  -14.3134  -51.3846 C.3       0 UNK        -0.1800 
      2 C           0.4803  -13.7657  -50.7307 C.2       0 UNK         0.5000 
      3 O           1.1383  -12.8964  -51.3026 O.2       0 UNK        -0.5000 
      4 N           0.8196  -14.2705  -49.5381 N.am      1 UNK        -0.5000 
      5 CA          1.9361  -13.8001  -48.7129 C.3       1 UNK         0.1400 
      6 C6          2.2752  -14.8158  -47.5904 C.3       23 UNK        -0.0398 
      7 S7          4.0322  -14.8260  -47.0940 S.3       23 UNK        -0.2404 
      8 C8          4.8960  -15.4971  -48.5581 C.3       23 UNK        -0.0205 
      9 C9          4.2991  -16.8014  -49.0685 C.ar      23 UNK        -0.0193 
     10 C10         3.3486  -16.7755  -50.0932 C.ar      23 UNK        -0.1150 
     11 C11         2.7749  -17.9590  -50.5578 C.ar      23 UNK        -0.0193 
     12 C12         3.1963  -19.1806  -50.0327 C.ar      23 UNK        -0.1150 
     13 C13         4.1504  -19.2255  -49.0129 C.ar      23 UNK        -0.0193 
     14 C14         4.6950  -18.0302  -48.5287 C.ar      23 UNK        -0.1150 
     15 C15         4.5919  -20.5670  -48.4451 C.3       23 UNK        -0.0205 
     16 S16         3.4771  -21.1580  -47.1314 S.3       23 UNK        -0.2404 
     17 C17         1.9678  -21.5704  -48.0752 C.3       23 UNK        -0.0398 
     18 CA          1.1269  -22.6715  -47.3920 C.3       11 UNK         0.1400 
     19 N           0.5697  -22.2404  -46.1073 N.am      11 UNK        -0.5000 
     20 C          -0.0252  -23.0588  -45.2291 C.2       10 UNK         0.5000 
     21 O          -0.1279  -24.2761  -45.3905 O.2       10 UNK        -0.5000 
     22 CA         -0.6486  -22.4027  -43.9842 C.3       10 UNK         0.1400 
     23 CB          0.4322  -22.0585  -42.9487 C.3       10 UNK        -0.1800 
     24 N          -1.4337  -21.2079  -44.3062 N.am      10 UNK        -0.5000 
     25 C          -2.5555  -21.2214  -45.0405 C.2       9 UNK         0.5000 
     26 O          -3.0528  -22.2485  -45.4973 O.2       9 UNK        -0.5000 
     27 CA         -3.2298  -19.8717  -45.3450 C.3       9 UNK         0.1400 
     28 CB         -4.0965  -19.4129  -44.1638 C.3       9 UNK        -0.1800 
     29 N          -2.2820  -18.8178  -45.6979 N.am      9 UNK        -0.5000 
     30 C          -1.4863  -18.8345  -46.7772 C.2       8 UNK         0.5000 
     31 O          -1.4841  -19.7340  -47.6160 O.2       8 UNK        -0.5000 
     32 CA         -0.4757  -17.6791  -46.8978 C.3       8 UNK         0.1400 
     33 CB         -1.1797  -16.3901  -47.3539 C.3       8 UNK        -0.1800 
     34 N           0.2399  -17.4415  -45.6411 N.am      8 UNK        -0.5000 
     35 C           0.9745  -18.3662  -45.0023 C.2       7 UNK         0.5000 
     36 O           1.1678  -19.5041  -45.4250 O.2       7 UNK        -0.5000 
     37 CA          1.5209  -17.9820  -43.6200 C.3       7 UNK         0.1400 
     38 CB          2.8084  -17.1536  -43.7480 C.3       7 UNK        -0.1800 
     39 N           0.5174  -17.2608  -42.8354 N.am      7 UNK        -0.5000 
     40 C          -0.5732  -17.8380  -42.3073 C.2       6 UNK         0.5000 
     41 O          -0.8112  -19.0422  -42.3878 O.2       6 UNK        -0.5000 
     42 CA         -1.5883  -16.9178  -41.6030 C.3       6 UNK         0.1400 
     43 CB         -1.1863  -16.6922  -40.1381 C.3       6 UNK        -0.1800 
     44 N          -1.7385  -15.6240  -42.2677 N.am      6 UNK        -0.5000 
     45 C          -2.2505  -15.4524  -43.4948 C.2       5 UNK         0.5000 
     46 O          -2.7200  -16.3668  -44.1712 O.2       5 UNK        -0.5000 
     47 CA         -2.1683  -14.0304  -44.0864 C.3       5 UNK         0.1400 
     48 CB         -3.4377  -13.2327  -43.7558 C.3       5 UNK        -0.1800 
     49 N          -0.9925  -13.2773  -43.6367 N.am      5 UNK        -0.5000 
     50 C           0.2781  -13.6584  -43.8172 C.2       4 UNK         0.5000 
     51 O           0.5892  -14.6946  -44.4064 O.2       4 UNK        -0.5000 
     52 CA          1.3642  -12.7465  -43.2127 C.3       4 UNK         0.1400 
     53 CB          2.7675  -13.3723  -43.2870 C.3       4 UNK        -0.1800 
     54 N           1.4070  -11.4420  -43.8644 N.am      4 UNK        -0.5000 
     55 C           0.5482  -10.4320  -43.6961 C.2       3 UNK         0.5000 
     56 O          -0.4219  -10.4895  -42.9383 O.2       3 UNK        -0.5000 
     57 CA          0.7984   -9.1467  -44.5136 C.3       3 UNK         0.1400 
     58 CB          1.7785   -8.2097  -43.7826 C.3       3 UNK        -0.1800 
     59 N           1.2093   -9.3682  -45.9094 N.am      3 UNK        -0.5000 
     60 C           2.3325   -9.9240  -46.3854 C.2       2 UNK         0.5000 
     61 O           3.2512  -10.3499  -45.6821 O.2       2 UNK        -0.5000 
     62 CA          2.4306  -10.0588  -47.9143 C.3       2 UNK         0.1400 
     63 CB          3.6197   -9.2551  -48.4632 C.3       2 UNK        -0.1800 
     64 N           2.5647  -11.4572  -48.3219 N.am      2 UNK        -0.5000 
     65 C           1.6237  -12.3962  -48.1552 C.2       1 UNK         0.5000 
     66 O           0.5344  -12.1889  -47.6147 O.2       1 UNK        -0.5000 
     67 C           0.0260  -23.1938  -48.3374 C.2       11 UNK         0.5000 
     68 O           0.2261  -24.2225  -48.9842 O.2       11 UNK        -0.5000 
     69 N          -1.1321  -22.5185  -48.3627 N.am      12 UNK        -0.5000 
     70 CA         -2.3113  -22.9499  -49.1084 C.3       12 UNK         0.1400 
     71 CB         -3.3877  -21.8659  -49.0669 C.3       12 UNK        -0.1800 
     72 C          -2.8829  -24.2819  -48.6015 C.2       12 UNK         0.5000 
     73 O          -3.1983  -25.1411  -49.4195 O.2       12 UNK        -0.5000 
     74 N          -2.9693  -24.4568  -47.2757 N.am      13 UNK        -0.5000 
     75 CA         -3.4197  -25.6927  -46.6331 C.3       13 UNK         0.1400 
     76 CB         -3.5372  -25.4821  -45.1163 C.3       13 UNK        -0.1800 
     77 C          -2.5124  -26.8942  -46.9525 C.2       13 UNK         0.5000 
     78 O          -3.0240  -27.9843  -47.2089 O.2       13 UNK        -0.5000 
     79 N          -1.1920  -26.6631  -46.9896 N.am      14 UNK        -0.5000 
     80 CA         -0.1914  -27.6455  -47.4126 C.3       14 UNK         0.1400 
     81 CB          1.2132  -27.1169  -47.0847 C.3       14 UNK        -0.1800 
     82 C          -0.3071  -28.0155  -48.9061 C.2       14 UNK         0.5000 
     83 O          -0.1073  -29.1777  -49.2609 O.2       14 UNK        -0.5000 
     84 N          -0.6538  -27.0318  -49.7471 N.am      15 UNK        -0.5000 
     85 CA         -0.8996  -27.1959  -51.1826 C.3       15 UNK         0.1400 
     86 CB         -0.7228  -25.8308  -51.8687 C.3       15 UNK        -0.1800 
     87 C          -2.2884  -27.7857  -51.5141 C.2       15 UNK         0.5000 
     88 O          -2.5183  -28.1531  -52.6670 O.2       15 UNK        -0.5000 
     89 N          -3.1852  -27.8442  -50.5179 N.am      16 UNK        -0.5000 
     90 CA         -4.6071  -28.1974  -50.6026 C.3       16 UNK         0.1400 
     91 CB         -4.7938  -29.6692  -51.0269 C.3       16 UNK        -0.1800 
     92 C          -5.4114  -27.1990  -51.4665 C.2       16 UNK         0.5000 
     93 O          -6.2632  -27.6030  -52.2610 O.2       16 UNK        -0.5000 
     94 N          -5.1114  -25.9081  -51.2924 N.am      17 UNK        -0.5000 
     95 CA         -5.7066  -24.7697  -51.9853 C.3       17 UNK         0.1400 
     96 CB         -4.5808  -24.0465  -52.7445 C.3       17 UNK        -0.1800 
     97 C          -6.3742  -23.8143  -50.9782 C.2       17 UNK         0.5000 
     98 O          -6.2481  -23.9946  -49.7643 O.2       17 UNK        -0.5000 
     99 N          -7.0628  -22.7943  -51.5048 N.am      18 UNK        -0.5000 
    100 CA        -7.6054  -21.6748  -50.7336 C.3       18 UNK         0.1400 
    101 CB        -8.7219  -21.0074  -51.5515 C.3       18 UNK        -0.1800 
    102 C         -6.5037  -20.6481  -50.4174 C.2       18 UNK         0.5000 
    103 O         -5.5818  -20.4788  -51.2192 O.2       18 UNK        -0.5000 
    104 N         -6.6360  -19.9368  -49.2894 N.am      19 UNK        -0.5000 
    105 CA        -5.6831  -18.9170  -48.8270 C.3       19 UNK         0.1400 
    106 CB        -6.1121  -18.4118  -47.4413 C.3       19 UNK        -0.1800 
    107 C         -5.5047  -17.7364  -49.8031 C.2       19 UNK         0.5000 
    108 O         -4.4152  -17.1694  -49.8772 O.2       19 UNK        -0.5000 
    109 N         -6.5671  -17.4153  -50.5550 N.am      20 UNK        -0.5000 
    110 CA        -6.5635  -16.4088  -51.6172 C.3       20 UNK         0.1400 
    111 CB        -8.0154  -16.0474  -51.9663 C.3       20 UNK        -0.1800 
    112 C         -5.8047  -16.8653  -52.8794 C.2       20 UNK         0.5000 
    113 O         -5.2590  -16.0210  -53.5907 O.2       20 UNK        -0.5000 
    114 N         -5.7806  -18.1813  -53.1369 N.am      21 UNK        -0.5000 
    115 CA        -5.0246  -18.7944  -54.2304 C.3       21 UNK         0.1400 
    116 CB        -5.6723  -20.1340  -54.6164 C.3       21 UNK        -0.1800 
    117 C         -3.5444  -18.9870  -53.8548 C.2       21 UNK         0.5000 
    118 O         -2.6814  -18.8819  -54.7264 O.2       21 UNK        -0.5000 
    119 N         -3.2827  -19.2384  -52.5642 N.am      22 UNK        -0.5000 
    120 CA        -1.9497  -19.3797  -51.9540 C.3       22 UNK         0.1400 
    121 C         -1.2263  -20.7261  -52.2755 C.2       22 UNK         0.5000 
    122 N         -1.8971  -21.7102  -52.8615 N.am      22 UNK        -0.7600 
    123 O         -0.0512  -20.9027  -51.9703 O.2       22 UNK        -0.5000 
    124 C124       -1.0660  -18.1186  -52.1781 C.3       23 UNK        -0.0398 
    125 S125        0.0538  -17.7775  -50.7818 S.3       23 UNK        -0.2404 
    126 C126        1.6718  -17.9217  -51.5975 C.3       23 UNK        -0.0205 
    127 H127       -1.4452  -13.4962  -51.6644 H         1 UNK         0.0600 
    128 H128       -1.3280  -14.9791  -50.7164 H         1 UNK         0.0600 
    129 H129       -0.5233  -14.8695  -52.2859 H         1 UNK         0.0600 
    130 H130        0.2271  -14.9712  -49.1199 H         1 UNK         0.3000 
    131 H131        2.7958  -13.7156  -49.3791 H         1 UNK         0.0600 
    132 H132        1.6740  -14.6294  -46.7012 H         1 UNK         0.0800 
    133 H133        2.0139  -15.8308  -47.8899 H         1 UNK         0.0800 
    134 H134        5.9437  -15.6555  -48.2982 H         1 UNK         0.0800 
    135 H135        4.9009  -14.7498  -49.3525 H         1 UNK         0.0800 
    136 H136        3.0302  -15.8322  -50.5122 H         1 UNK         0.1150 
    137 H137        2.7599  -20.0946  -50.4084 H         1 UNK         0.1150 
    138 H138        5.4276  -18.0554  -47.7343 H         1 UNK         0.1150 
    139 H139        4.6537  -21.3117  -49.2401 H         1 UNK         0.0800 
    140 H140        5.5990  -20.4809  -48.0343 H         1 UNK         0.0800 
    141 H141        2.2689  -21.9034  -49.0698 H         1 UNK         0.0800 
    142 H142        1.3772  -20.6621  -48.2125 H         1 UNK         0.0800 
    143 H143        1.7894  -23.5161  -47.1891 H         1 UNK         0.0600 
    144 H144        0.6561  -21.2502  -45.8863 H         1 UNK         0.3000 
    145 H145       -1.3248  -23.1314  -43.5324 H         1 UNK         0.0600 
    146 H146       -0.0110  -21.6796  -42.0278 H         1 UNK         0.0600 
    147 H147        1.0181  -22.9408  -42.6882 H         1 UNK         0.0600 
    148 H148        1.1241  -21.3040  -43.3231 H         1 UNK         0.0600 
    149 H149       -1.1061  -20.3294  -43.9183 H         1 UNK         0.3000 
    150 H150       -3.8847  -20.0223  -46.2045 H         1 UNK         0.0600 
    151 H151       -4.8293  -20.1754  -43.8972 H         1 UNK         0.0600 
    152 H152       -4.6468  -18.5043  -44.4091 H         1 UNK         0.0600 
    153 H153       -3.4943  -19.2098  -43.2779 H         1 UNK         0.0600 
    154 H154       -2.2466  -18.0141  -45.0771 H         1 UNK         0.3000 
    155 H155        0.2674  -17.9536  -47.6496 H         1 UNK         0.0600 
    156 H156       -0.5032  -15.5381  -47.3530 H         1 UNK         0.0600 
    157 H157       -1.5727  -16.5031  -48.3652 H         1 UNK         0.0600 
    158 H158       -2.0215  -16.1371  -46.7104 H         1 UNK         0.0600 
    159 H159        0.1508  -16.5237  -45.2184 H         1 UNK         0.3000 
    160 H160        1.7707  -18.9023  -43.0878 H         1 UNK         0.0600 
    161 H161        2.6593  -16.2521  -44.3415 H         1 UNK         0.0600 
    162 H162        3.5899  -17.7336  -44.2406 H         1 UNK         0.0600 
    163 H163        3.1896  -16.8585  -42.7705 H         1 UNK         0.0600 
    164 H164        0.6025  -16.2544  -42.8113 H         1 UNK         0.3000 
    165 H165       -2.5580  -17.4199  -41.6180 H         1 UNK         0.0600 
    166 H166       -1.9374  -16.1054  -39.6089 H         1 UNK         0.0600 
    167 H167       -1.0867  -17.6419  -39.6107 H         1 UNK         0.0600 
    168 H168       -0.2322  -16.1698  -40.0568 H         1 UNK         0.0600 
    169 H169       -1.3806  -14.8155  -41.7814 H         1 UNK         0.3000 
    170 H170       -2.0987  -14.1303  -45.1713 H         1 UNK         0.0600 
    171 H171       -4.3297  -13.7575  -44.1008 H         1 UNK         0.0600 
    172 H172       -3.5442  -13.0726  -42.6822 H         1 UNK         0.0600 
    173 H173       -3.4273  -12.2567  -44.2415 H         1 UNK         0.0600 
    174 H174       -1.1573  -12.3838  -43.1853 H         1 UNK         0.3000 
    175 H175        1.1204  -12.6011  -42.1584 H         1 UNK         0.0600 
    176 H176        3.0718  -13.5597  -44.3178 H         1 UNK         0.0600 
    177 H177        3.5144  -12.7214  -42.8323 H         1 UNK         0.0600 
    178 H178        2.8000  -14.3218  -42.7525 H         1 UNK         0.0600 
    179 H179        2.1732  -11.2847  -44.5142 H         1 UNK         0.3000 
    180 H180       -0.1607   -8.6296  -44.5715 H         1 UNK         0.0600 
    181 H181        2.7636   -8.6611  -43.6617 H         1 UNK         0.0600 
    182 H182        1.4101   -7.9647  -42.7857 H         1 UNK         0.0600 
    183 H183        1.9033   -7.2710  -44.3224 H         1 UNK         0.0600 
    184 H184        0.5083   -9.1054  -46.5886 H         1 UNK         0.3000 
    185 H185        1.5187   -9.6636  -48.3671 H         1 UNK         0.0600 
    186 H186        3.5414   -8.2037  -48.1836 H         1 UNK         0.0600 
    187 H187        4.5705   -9.6268  -48.0787 H         1 UNK         0.0600 
    188 H188        3.6575   -9.2992  -49.5518 H         1 UNK         0.0600 
    189 H189        3.4415  -11.7116  -48.7524 H         1 UNK         0.3000 
    190 H190       -1.2158  -21.6469  -47.8470 H         1 UNK         0.3000 
    191 H191       -2.0127  -23.0875  -50.1494 H         1 UNK         0.0600 
    192 H192       -3.7339  -21.6703  -48.0527 H         1 UNK         0.0600 
    193 H193       -4.2486  -22.1753  -49.6541 H         1 UNK         0.0600 
    194 H194       -3.0262  -20.9314  -49.4877 H         1 UNK         0.0600 
    195 H195       -2.7539  -23.6765  -46.6597 H         1 UNK         0.3000 
    196 H196       -4.4150  -25.9194  -47.0210 H         1 UNK         0.0600 
    197 H197       -3.8803  -26.3910  -44.6207 H         1 UNK         0.0600 
    198 H198       -4.2542  -24.6949  -44.8832 H         1 UNK         0.0600 
    199 H199       -2.5812  -25.2057  -44.6716 H         1 UNK         0.0600 
    200 H200       -0.8516  -25.7451  -46.7233 H         1 UNK         0.3000 
    201 H201       -0.3528  -28.5569  -46.8332 H         1 UNK         0.0600 
    202 H202        1.3170  -26.9085  -46.0197 H         1 UNK         0.0600 
    203 H203        1.4365  -26.1982  -47.6272 H         1 UNK         0.0600 
    204 H204        1.9771  -27.8487  -47.3501 H         1 UNK         0.0600 
    205 H205       -0.7476  -26.0913  -49.3799 H         1 UNK         0.3000 
    206 H206       -0.1500  -27.8783  -51.5882 H         1 UNK         0.0600 
    207 H207        0.2662  -25.4155  -51.6743 H         1 UNK         0.0600 
    208 H208       -0.8320  -25.9182  -52.9503 H         1 UNK         0.0600 
    209 H209       -1.4623  -25.1083  -51.5232 H         1 UNK         0.0600 
    210 H210       -2.8919  -27.4671  -49.6261 H         1 UNK         0.3000 
    211 H211       -4.9984  -28.0992  -49.5890 H         1 UNK         0.0600 
    212 H212       -4.4856  -29.8391  -52.0587 H         1 UNK         0.0600 
    213 H213       -5.8398  -29.9671  -50.9467 H         1 UNK         0.0600 
    214 H214       -4.2166  -30.3385  -50.3890 H         1 UNK         0.0600 
    215 H215       -4.4308  -25.6618  -50.5733 H         1 UNK         0.3000 
    216 H216       -6.4661  -25.1025  -52.6953 H         1 UNK         0.0600 
    217 H217       -4.9643  -23.2105  -53.3294 H         1 UNK         0.0600 
    218 H218       -4.0770  -24.7212  -53.4371 H         1 UNK         0.0600 
    219 H219       -3.8301  -23.6543  -52.0574 H         1 UNK         0.0600 
    220 H220       -7.0949  -22.6957  -52.5085 H         1 UNK         0.3000 
    221 H221       -8.0266  -22.0489  -49.7980 H         1 UNK         0.0600 
    222 H222       -8.3483  -20.6069  -52.4951 H         1 UNK         0.0600 
    223 H223       -9.5183  -21.7157  -51.7809 H         1 UNK         0.0600 
    224 H224       -9.1734  -20.1817  -51.0000 H         1 UNK         0.0600 
    225 H225       -7.4267  -20.1162  -48.6872 H         1 UNK         0.3000 
    226 H226       -4.7081  -19.3942  -48.7216 H         1 UNK         0.0600 
    227 H227       -6.1879  -19.2311  -46.7263 H         1 UNK         0.0600 
    228 H228       -5.3855  -17.7016  -47.0434 H         1 UNK         0.0600 
    229 H229       -7.0790  -17.9084  -47.4778 H         1 UNK         0.0600 
    230 H230       -7.4258  -17.9263  -50.4144 H         1 UNK         0.3000 
    231 H231       -6.0692  -15.5110  -51.2398 H         1 UNK         0.0600 
    232 H232       -8.0513  -15.2792  -52.7399 H         1 UNK         0.0600 
    233 H233       -8.5445  -15.6562  -51.0971 H         1 UNK         0.0600 
    234 H234       -8.5683  -16.9119  -52.3362 H         1 UNK         0.0600 
    235 H235       -6.1958  -18.8171  -52.4697 H         1 UNK         0.3000 
    236 H236       -5.0659  -18.1394  -55.1035 H         1 UNK         0.0600 
    237 H237       -6.7124  -19.9972  -54.9126 H         1 UNK         0.0600 
    238 H238       -5.1512  -20.5881  -55.4601 H         1 UNK         0.0600 
    239 H239       -5.6498  -20.8503  -53.7961 H         1 UNK         0.0600 
    240 H240       -4.0695  -19.3985  -51.9440 H         1 UNK         0.3000 
    241 H241       -2.1615  -19.4287  -50.8869 H         1 UNK         0.0600 
    242 H242       -2.8595  -21.5824  -53.1253 H         1 UNK         0.3800 
    243 H243       -1.4202  -22.5712  -53.0725 H         1 UNK         0.3800 
    244 H244       -0.5113  -18.1894  -53.1150 H         1 UNK         0.0800 
    245 H245       -1.6982  -17.2351  -52.2768 H         1 UNK         0.0800 
    246 H246        1.7032  -18.8273  -52.2051 H         1 UNK         0.0800 
    247 H247        1.8150  -17.0811  -52.2780 H         1 UNK         0.0800 
@<TRIPOS>BOND
     1    1    2 1    
     2    1  127 1    
     3    1  128 1    
     4    1  129 1    
     5    2    3 2    
     6    2    4 am   BACKBONE|DICT|INTERRES
     7    4    5 1    
     8    4  130 1    
     9    5    6 1    
    10    5   65 1    
    11    5  131 1    
    12    6    7 1    
    13    6  132 1    
    14    6  133 1    
    15    7    8 1    
    16    8    9 1    
    17    8  134 1    
    18    8  135 1    
    19    9   10 ar   
    20    9   14 ar   
    21   10   11 ar   
    22   10  136 1    
    23   11   12 ar   
    24   11  126 1    
    25   12   13 ar   
    26   12  137 1    
    27   13   14 ar   
    28   13   15 1    
    29   14  138 1    
    30   15   16 1    
    31   15  139 1    
    32   15  140 1    
    33   16   17 1    
    34   17   18 1    
    35   17  141 1    
    36   17  142 1    
    37   18   19 1    
    38   18   67 1    
    39   18  143 1    
    40   19   20 am   BACKBONE|DICT|INTERRES
    41   19  144 1    
    42   20   21 2    
    43   20   22 1    
    44   22   23 1    
    45   22   24 1    
    46   22  145 1    
    47   23  146 1    
    48   23  147 1    
    49   23  148 1    
    50   24   25 am   BACKBONE|DICT|INTERRES
    51   24  149 1    
    52   25   26 2    
    53   25   27 1    
    54   27   28 1    
    55   27   29 1    
    56   27  150 1    
    57   28  151 1    
    58   28  152 1    
    59   28  153 1    
    60   29   30 am   BACKBONE|DICT|INTERRES
    61   29  154 1    
    62   30   31 2    
    63   30   32 1    
    64   32   33 1    
    65   32   34 1    
    66   32  155 1    
    67   33  156 1    
    68   33  157 1    
    69   33  158 1    
    70   34   35 am   BACKBONE|DICT|INTERRES
    71   34  159 1    
    72   35   36 2    
    73   35   37 1    
    74   37   38 1    
    75   37   39 1    
    76   37  160 1    
    77   38  161 1    
    78   38  162 1    
    79   38  163 1    
    80   39   40 am   BACKBONE|DICT|INTERRES
    81   39  164 1    
    82   40   41 2    
    83   40   42 1    
    84   42   43 1    
    85   42   44 1    
    86   42  165 1    
    87   43  166 1    
    88   43  167 1    
    89   43  168 1    
    90   44   45 am   BACKBONE|DICT|INTERRES
    91   44  169 1    
    92   45   46 2    
    93   45   47 1    
    94   47   48 1    
    95   47   49 1    
    96   47  170 1    
    97   48  171 1    
    98   48  172 1    
    99   48  173 1    
   100   49   50 am   BACKBONE|DICT|INTERRES
   101   49  174 1    
   102   50   51 2    
   103   50   52 1    
   104   52   53 1    
   105   52   54 1    
   106   52  175 1    
   107   53  176 1    
   108   53  177 1    
   109   53  178 1    
   110   54   55 am   BACKBONE|DICT|INTERRES
   111   54  179 1    
   112   55   56 2    
   113   55   57 1    
   114   57   58 1    
   115   57   59 1    
   116   57  180 1    
   117   58  181 1    
   118   58  182 1    
   119   58  183 1    
   120   59   60 am   BACKBONE|DICT|INTERRES
   121   59  184 1    
   122   60   61 2    
   123   60   62 1    
   124   62   63 1    
   125   62   64 1    
   126   62  185 1    
   127   63  186 1    
   128   63  187 1    
   129   63  188 1    
   130   64   65 am   BACKBONE|DICT|INTERRES
   131   64  189 1    
   132   65   66 2    
   133   67   68 2    
   134   67   69 am   BACKBONE|DICT|INTERRES
   135   69   70 1    
   136   69  190 1    
   137   70   71 1    
   138   70   72 1    
   139   70  191 1    
   140   71  192 1    
   141   71  193 1    
   142   71  194 1    
   143   72   73 2    
   144   72   74 am   BACKBONE|DICT|INTERRES
   145   74   75 1    
   146   74  195 1    
   147   75   76 1    
   148   75   77 1    
   149   75  196 1    
   150   76  197 1    
   151   76  198 1    
   152   76  199 1    
   153   77   78 2    
   154   77   79 am   BACKBONE|DICT|INTERRES
   155   79   80 1    
   156   79  200 1    
   157   80   81 1    
   158   80   82 1    
   159   80  201 1    
   160   81  202 1    
   161   81  203 1    
   162   81  204 1    
   163   82   83 2    
   164   82   84 am   BACKBONE|DICT|INTERRES
   165   84   85 1    
   166   84  205 1    
   167   85   86 1    
   168   85   87 1    
   169   85  206 1    
   170   86  207 1    
   171   86  208 1    
   172   86  209 1    
   173   87   88 2    
   174   87   89 am   BACKBONE|DICT|INTERRES
   175   89   90 1    
   176   89  210 1    
   177   90   91 1    
   178   90   92 1    
   179   90  211 1    
   180   91  212 1    
   181   91  213 1    
   182   91  214 1    
   183   92   93 2    
   184   92   94 am   BACKBONE|DICT|INTERRES
   185   94   95 1    
   186   94  215 1    
   187   95   96 1    
   188   95   97 1    
   189   95  216 1    
   190   96  217 1    
   191   96  218 1    
   192   96  219 1    
   193   97   98 2    
   194   97   99 am   BACKBONE|DICT|INTERRES
   195   99  100 1    
   196   99  220 1    
   197  100  101 1    
   198  100  102 1    
   199  100  221 1    
   200  101  222 1    
   201  101  223 1    
   202  101  224 1    
   203  102  103 2    
   204  102  104 am   BACKBONE|DICT|INTERRES
   205  104  105 1    
   206  104  225 1    
   207  105  106 1    
   208  105  107 1    
   209  105  226 1    
   210  106  227 1    
   211  106  228 1    
   212  106  229 1    
   213  107  108 2    
   214  107  109 am   BACKBONE|DICT|INTERRES
   215  109  110 1    
   216  109  230 1    
   217  110  111 1    
   218  110  112 1    
   219  110  231 1    
   220  111  232 1    
   221  111  233 1    
   222  111  234 1    
   223  112  113 2    
   224  112  114 am   BACKBONE|DICT|INTERRES
   225  114  115 1    
   226  114  235 1    
   227  115  116 1    
   228  115  117 1    
   229  115  236 1    
   230  116  237 1    
   231  116  238 1    
   232  116  239 1    
   233  117  118 2    
   234  117  119 am   BACKBONE|DICT|INTERRES
   235  119  120 1    
   236  119  240 1    
   237  120  121 1    
   238  120  124 1    
   239  120  241 1    
   240  121  122 am   BACKBONE|DICT|INTERRES
   241  121  123 2    
   242  122  242 1    
   243  122  243 1    
   244  124  125 1    
   245  124  244 1    
   246  124  245 1    
   247  125  126 1    
   248  126  246 1    
   249  126  247 1    
@<TRIPOS>SUBSTRUCTURE
     1 UNK         1 GROUP             0       ****    0 ROOT    
