@<TRIPOS>MOLECULE
3R540
247   249    1
SMALL
USER_CHARGES


@<TRIPOS>ATOM
      1 CA          6.3312  -15.2477  -44.8238 C.3       0 UNK        -0.1800 
      2 C           5.3475  -14.0973  -44.6741 C.2       0 UNK         0.5000 
      3 O           5.1680  -13.5835  -43.5704 O.2       0 UNK        -0.5000 
      4 N           4.7223  -13.6764  -45.7820 N.am      1 UNK        -0.5000 
      5 CA          3.6768  -12.6419  -45.8265 C.3       1 UNK         0.1400 
      6 C6          2.9922  -12.5552  -47.2089 C.3       23 UNK        -0.0398 
      7 S7          2.1177  -14.0994  -47.6280 S.3       23 UNK        -0.2404 
      8 C8          3.1490  -14.7314  -48.9849 C.3       23 UNK        -0.0205 
      9 C9          2.5661  -16.0050  -49.5741 C.ar      23 UNK        -0.0193 
     10 C10         1.4456  -15.9349  -50.4055 C.ar      23 UNK        -0.1150 
     11 C11         0.9017  -17.0936  -50.9640 C.ar      23 UNK        -0.0193 
     12 C12         1.5007  -18.3292  -50.7034 C.ar      23 UNK        -0.1150 
     13 C13         2.6285  -18.4126  -49.8807 C.ar      23 UNK        -0.0193 
     14 C14         3.1504  -17.2475  -49.3093 C.ar      23 UNK        -0.1150 
     15 C15         3.3026  -19.7553  -49.6356 C.3       23 UNK        -0.0205 
     16 S16         2.6625  -20.5906  -48.1515 S.3       23 UNK        -0.2404 
     17 C17         0.9907  -21.0600  -48.7053 C.3       23 UNK        -0.0398 
     18 CA          0.3371  -22.1120  -47.7807 C.3       11 UNK         0.1400 
     19 N           0.0123  -21.5784  -46.4537 N.am      11 UNK        -0.5000 
     20 C          -0.4362  -22.3112  -45.4238 C.2       10 UNK         0.5000 
     21 O          -0.5613  -23.5349  -45.4601 O.2       10 UNK        -0.5000 
     22 CA         -0.8879  -21.5449  -44.1666 C.3       10 UNK         0.1400 
     23 CB          0.3120  -21.1331  -43.3012 C.3       10 UNK        -0.1800 
     24 N          -1.6940  -20.3696  -44.5003 N.am      10 UNK        -0.5000 
     25 C          -2.8906  -20.4240  -45.1026 C.2       9 UNK         0.5000 
     26 O          -3.4730  -21.4765  -45.3615 O.2       9 UNK        -0.5000 
     27 CA         -3.5202  -19.0877  -45.5345 C.3       9 UNK         0.1400 
     28 CB         -4.3291  -18.4595  -44.3897 C.3       9 UNK        -0.1800 
     29 N          -2.5170  -18.1378  -46.0147 N.am      9 UNK        -0.5000 
     30 C          -1.8574  -18.2555  -47.1762 C.2       8 UNK         0.5000 
     31 O          -2.0636  -19.1540  -47.9923 O.2       8 UNK        -0.5000 
     32 CA         -0.7543  -17.2170  -47.4500 C.3       8 UNK         0.1400 
     33 CB         -1.3562  -15.9517  -48.0781 C.3       8 UNK        -0.1800 
     34 N          -0.0023  -16.8663  -46.2420 N.am      8 UNK        -0.5000 
     35 C           0.7867  -17.7301  -45.5834 C.2       7 UNK         0.5000 
     36 O           0.9566  -18.8936  -45.9397 O.2       7 UNK        -0.5000 
     37 CA          1.4360  -17.2535  -44.2684 C.3       7 UNK         0.1400 
     38 CB          2.7712  -16.5530  -44.5490 C.3       7 UNK        -0.1800 
     39 N           0.5773  -16.3656  -43.4852 N.am      7 UNK        -0.5000 
     40 C          -0.6562  -16.6753  -43.0567 C.2       6 UNK         0.5000 
     41 O          -1.1480  -17.7973  -43.1752 O.2       6 UNK        -0.5000 
     42 CA         -1.5114  -15.5454  -42.4445 C.3       6 UNK         0.1400 
     43 CB         -1.5689  -15.6874  -40.9164 C.3       6 UNK        -0.1800 
     44 N          -1.0503  -14.1952  -42.7758 N.am      6 UNK        -0.5000 
     45 C          -0.9007  -13.6850  -44.0074 C.2       5 UNK         0.5000 
     46 O          -1.2401  -14.2732  -45.0346 O.2       5 UNK        -0.5000 
     47 CA         -0.1934  -12.3175  -44.1122 C.3       5 UNK         0.1400 
     48 CB         -1.2127  -11.2059  -44.4011 C.3       5 UNK        -0.1800 
     49 N           0.5984  -11.9449  -42.9306 N.am      5 UNK        -0.5000 
     50 C           1.6439  -12.6282  -42.4437 C.2       4 UNK         0.5000 
     51 O           2.0333  -13.7026  -42.9038 O.2       4 UNK        -0.5000 
     52 CA          2.3326  -12.0462  -41.2060 C.3       4 UNK         0.1400 
     53 CB          2.0628  -12.9246  -39.9700 C.3       4 UNK        -0.1800 
     54 N           3.7658  -11.9445  -41.4601 N.am      4 UNK        -0.5000 
     55 C           4.6000  -11.1361  -40.7930 C.2       3 UNK         0.5000 
     56 O           4.2505  -10.4095  -39.8617 O.2       3 UNK        -0.5000 
     57 CA          6.0634  -11.1067  -41.2608 C.3       3 UNK         0.1400 
     58 CB          6.8129  -12.3760  -40.8241 C.3       3 UNK        -0.1800 
     59 N           6.1370  -10.9589  -42.7129 N.am      3 UNK        -0.5000 
     60 C           6.1520   -9.7804  -43.3534 C.2       2 UNK         0.5000 
     61 O           6.1836   -8.6918  -42.7780 O.2       2 UNK        -0.5000 
     62 CA          6.1268   -9.8106  -44.8957 C.3       2 UNK         0.1400 
     63 CB          7.5542   -9.7284  -45.4581 C.3       2 UNK        -0.1800 
     64 N           5.4716  -11.0014  -45.4362 N.am      2 UNK        -0.5000 
     65 C           4.1567  -11.2505  -45.3602 C.2       1 UNK         0.5000 
     66 O           3.3360  -10.4476  -44.9151 O.2       1 UNK        -0.5000 
     67 C          -0.8952  -22.7382  -48.4644 C.2       11 UNK         0.5000 
     68 O          -0.7769  -23.8252  -49.0285 O.2       11 UNK        -0.5000 
     69 N          -2.0575  -22.0737  -48.3748 N.am      12 UNK        -0.5000 
     70 CA         -3.3364  -22.5720  -48.8858 C.3       12 UNK         0.1400 
     71 CB         -4.4196  -21.4960  -48.7180 C.3       12 UNK        -0.1800 
     72 C          -3.7713  -23.8890  -48.2194 C.2       12 UNK         0.5000 
     73 O          -4.1552  -24.8251  -48.9212 O.2       12 UNK        -0.5000 
     74 N          -3.6609  -23.9484  -46.8853 N.am      13 UNK        -0.5000 
     75 CA         -3.9452  -25.1341  -46.0773 C.3       13 UNK         0.1400 
     76 CB         -3.9134  -24.7571  -44.5885 C.3       13 UNK        -0.1800 
     77 C          -2.9857  -26.3034  -46.3665 C.2       13 UNK         0.5000 
     78 O          -3.4309  -27.4504  -46.4128 O.2       13 UNK        -0.5000 
     79 N          -1.6977  -25.9938  -46.5728 N.am      14 UNK        -0.5000 
     80 CA         -0.6625  -26.9585  -46.9443 C.3       14 UNK         0.1400 
     81 CB          0.7229  -26.3096  -46.8031 C.3       14 UNK        -0.1800 
     82 C          -0.8594  -27.5245  -48.3627 C.2       14 UNK         0.5000 
     83 O          -0.6805  -28.7268  -48.5626 O.2       14 UNK        -0.5000 
     84 N          -1.2299  -26.6566  -49.3152 N.am      15 UNK        -0.5000 
     85 CA         -1.5358  -27.0218  -50.6985 C.3       15 UNK         0.1400 
     86 CB         -1.6364  -25.7508  -51.5578 C.3       15 UNK        -0.1800 
     87 C          -2.8233  -27.8557  -50.8142 C.2       15 UNK         0.5000 
     88 O          -2.8325  -28.8588  -51.5287 O.2       15 UNK        -0.5000 
     89 N          -3.8776  -27.4178  -50.1081 N.am      16 UNK        -0.5000 
     90 CA         -5.2147  -28.0194  -50.0334 C.3       16 UNK         0.1400 
     91 CB         -5.1558  -29.3866  -49.3212 C.3       16 UNK        -0.1800 
     92 C          -5.9497  -28.0803  -51.3924 C.2       16 UNK         0.5000 
     93 O          -6.8070  -28.9431  -51.5942 O.2       16 UNK        -0.5000 
     94 N          -5.6014  -27.1612  -52.3020 N.am      17 UNK        -0.5000 
     95 CA         -6.2121  -27.0054  -53.6206 C.3       17 UNK         0.1400 
     96 CB         -5.2335  -26.2316  -54.5207 C.3       17 UNK        -0.1800 
     97 C          -7.5715  -26.2851  -53.5379 C.2       17 UNK         0.5000 
     98 O          -7.8962  -25.6832  -52.5106 O.2       17 UNK        -0.5000 
     99 N          -8.3339  -26.3362  -54.6382 N.am      18 UNK        -0.5000 
    100 CA        -9.5859  -25.5992  -54.8148 C.3       18 UNK         0.1400 
    101 CB       -10.2638  -26.0514  -56.1176 C.3       18 UNK        -0.1800 
    102 C         -9.3234  -24.0819  -54.8245 C.2       18 UNK         0.5000 
    103 O         -8.5351  -23.6105  -55.6484 O.2       18 UNK        -0.5000 
    104 N         -9.9526  -23.3654  -53.8834 N.am      19 UNK        -0.5000 
    105 CA        -9.7827  -21.9457  -53.5435 C.3       19 UNK         0.1400 
    106 CB       -10.1219  -21.0205  -54.7290 C.3       19 UNK        -0.1800 
    107 C         -8.4009  -21.6201  -52.9395 C.2       19 UNK         0.5000 
    108 O         -8.3423  -21.0996  -51.8246 O.2       19 UNK        -0.5000 
    109 N         -7.3294  -21.9571  -53.6715 N.am      20 UNK        -0.5000 
    110 CA        -5.9149  -21.7776  -53.3342 C.3       20 UNK         0.1400 
    111 CB        -5.5108  -22.7618  -52.2138 C.3       20 UNK        -0.1800 
    112 C         -5.5608  -20.3011  -53.0396 C.2       20 UNK         0.5000 
    113 O         -6.0698  -19.4109  -53.7258 O.2       20 UNK        -0.5000 
    114 N         -4.6754  -20.0688  -52.0569 N.am      21 UNK        -0.5000 
    115 CA        -4.2642  -18.7642  -51.5147 C.3       21 UNK         0.1400 
    116 CB        -5.4102  -18.1564  -50.6796 C.3       21 UNK        -0.1800 
    117 C         -3.7196  -17.7844  -52.5767 C.2       21 UNK         0.5000 
    118 O         -3.9407  -16.5768  -52.4744 O.2       21 UNK        -0.5000 
    119 N         -3.0203  -18.3343  -53.5796 N.am      22 UNK        -0.5000 
    120 CA        -2.4906  -17.6302  -54.7620 C.3       22 UNK         0.1400 
    121 C         -3.5859  -17.0923  -55.7380 C.2       22 UNK         0.5000 
    122 N         -4.8454  -17.5008  -55.6278 N.am      22 UNK        -0.7600 
    123 O         -3.2869  -16.3151  -56.6410 O.2       22 UNK        -0.5000 
    124 C124       -1.4240  -16.5519  -54.4098 C.3       23 UNK        -0.0398 
    125 S125        0.0622  -17.2341  -53.5952 S.3       23 UNK        -0.2404 
    126 C126       -0.3397  -17.0092  -51.8348 C.3       23 UNK        -0.0205 
    127 H127        6.0305  -16.0796  -44.1870 H         1 UNK         0.0600 
    128 H128        7.3290  -14.9292  -44.5226 H         1 UNK         0.0600 
    129 H129        6.3817  -15.6072  -45.8517 H         1 UNK         0.0600 
    130 H130        4.9167  -14.1356  -46.6590 H         1 UNK         0.3000 
    131 H131        2.9120  -12.9464  -45.1153 H         1 UNK         0.0600 
    132 H132        2.2477  -11.7567  -47.2184 H         1 UNK         0.0800 
    133 H133        3.7163  -12.3039  -47.9856 H         1 UNK         0.0800 
    134 H134        3.2241  -13.9754  -49.7680 H         1 UNK         0.0800 
    135 H135        4.1628  -14.9067  -48.6229 H         1 UNK         0.0800 
    136 H136        0.9913  -14.9748  -50.6067 H         1 UNK         0.1150 
    137 H137        1.0901  -19.2246  -51.1483 H         1 UNK         0.1150 
    138 H138        4.0195  -17.3086  -48.6696 H         1 UNK         0.1150 
    139 H139        3.1846  -20.4048  -50.5043 H         1 UNK         0.0800 
    140 H140        4.3769  -19.6080  -49.5156 H         1 UNK         0.0800 
    141 H141        1.0756  -21.4462  -49.7230 H         1 UNK         0.0800 
    142 H142        0.3726  -20.1631  -48.7628 H         1 UNK         0.0800 
    143 H143        1.0558  -22.9208  -47.6332 H         1 UNK         0.0600 
    144 H144        0.1623  -20.5813  -46.3192 H         1 UNK         0.3000 
    145 H145       -1.5133  -22.2164  -43.5747 H         1 UNK         0.0600 
    146 H146       -0.0092  -20.5883  -42.4132 H         1 UNK         0.0600 
    147 H147        0.8645  -22.0109  -42.9643 H         1 UNK         0.0600 
    148 H148        1.0100  -20.5008  -43.8481 H         1 UNK         0.0600 
    149 H149       -1.3094  -19.4608  -44.2634 H         1 UNK         0.3000 
    150 H150       -4.2096  -19.2935  -46.3556 H         1 UNK         0.0600 
    151 H151       -5.1221  -19.1330  -44.0623 H         1 UNK         0.0600 
    152 H152       -4.8027  -17.5297  -44.7051 H         1 UNK         0.0600 
    153 H153       -3.7083  -18.2423  -43.5209 H         1 UNK         0.0600 
    154 H154       -2.2491  -17.3987  -45.3813 H         1 UNK         0.3000 
    155 H155       -0.0542  -17.6533  -48.1651 H         1 UNK         0.0600 
    156 H156       -2.0679  -15.4675  -47.4086 H         1 UNK         0.0600 
    157 H157       -0.5826  -15.2255  -48.3239 H         1 UNK         0.0600 
    158 H158       -1.8827  -16.1894  -49.0034 H         1 UNK         0.0600 
    159 H159       -0.1396  -15.9329  -45.8718 H         1 UNK         0.3000 
    160 H160        1.6370  -18.1366  -43.6594 H         1 UNK         0.0600 
    161 H161        2.6231  -15.6250  -45.1005 H         1 UNK         0.0600 
    162 H162        3.4338  -17.1867  -45.1400 H         1 UNK         0.0600 
    163 H163        3.2906  -16.3090  -43.6221 H         1 UNK         0.0600 
    164 H164        0.9300  -15.4278  -43.3253 H         1 UNK         0.3000 
    165 H165       -2.5227  -15.6556  -42.8408 H         1 UNK         0.0600 
    166 H166       -2.2418  -14.9515  -40.4758 H         1 UNK         0.0600 
    167 H167       -1.9357  -16.6737  -40.6285 H         1 UNK         0.0600 
    168 H168       -0.5848  -15.5579  -40.4640 H         1 UNK         0.0600 
    169 H169       -0.7345  -13.6319  -42.0009 H         1 UNK         0.3000 
    170 H170        0.4911  -12.3790  -44.9604 H         1 UNK         0.0600 
    171 H171       -1.8000  -11.4351  -45.2914 H         1 UNK         0.0600 
    172 H172       -1.9097  -11.0742  -43.5726 H         1 UNK         0.0600 
    173 H173       -0.7161  -10.2519  -44.5794 H         1 UNK         0.0600 
    174 H174        0.3364  -11.0785  -42.4823 H         1 UNK         0.3000 
    175 H175        1.9343  -11.0458  -41.0233 H         1 UNK         0.0600 
    176 H176        2.4815  -13.9246  -40.0910 H         1 UNK         0.0600 
    177 H177        2.4944  -12.4889  -39.0690 H         1 UNK         0.0600 
    178 H178        0.9921  -13.0352  -39.7942 H         1 UNK         0.0600 
    179 H179        4.1210  -12.5278  -42.2145 H         1 UNK         0.3000 
    180 H180        6.5540  -10.2561  -40.7824 H         1 UNK         0.0600 
    181 H181        6.3665  -13.2801  -41.2380 H         1 UNK         0.0600 
    182 H182        6.8036  -12.4764  -39.7381 H         1 UNK         0.0600 
    183 H183        7.8561  -12.3442  -41.1386 H         1 UNK         0.0600 
    184 H184        6.0387  -11.8130  -43.2506 H         1 UNK         0.3000 
    185 H185        5.5746   -8.9316  -45.2351 H         1 UNK         0.0600 
    186 H186        8.0654   -8.8351  -45.0967 H         1 UNK         0.0600 
    187 H187        8.1533  -10.5911  -45.1638 H         1 UNK         0.0600 
    188 H188        7.5473   -9.6789  -46.5472 H         1 UNK         0.0600 
    189 H189        6.0723  -11.7186  -45.8156 H         1 UNK         0.3000 
    190 H190       -2.0664  -21.1543  -47.9447 H         1 UNK         0.3000 
    191 H191       -3.2075  -22.7658  -49.9519 H         1 UNK         0.0600 
    192 H192       -4.6294  -21.2907  -47.6700 H         1 UNK         0.0600 
    193 H193       -5.3594  -21.8073  -49.1725 H         1 UNK         0.0600 
    194 H194       -4.1213  -20.5586  -49.1824 H         1 UNK         0.0600 
    195 H195       -3.3784  -23.1120  -46.3813 H         1 UNK         0.3000 
    196 H196       -4.9558  -25.4678  -46.3217 H         1 UNK         0.0600 
    197 H197       -4.1456  -25.6189  -43.9616 H         1 UNK         0.0600 
    198 H198       -4.6468  -23.9827  -44.3629 H         1 UNK         0.0600 
    199 H199       -2.9334  -24.3855  -44.2881 H         1 UNK         0.0600 
    200 H200       -1.3998  -25.0312  -46.4460 H         1 UNK         0.3000 
    201 H201       -0.7154  -27.7939  -46.2431 H         1 UNK         0.0600 
    202 H202        0.8978  -25.9731  -45.7810 H         1 UNK         0.0600 
    203 H203        0.8341  -25.4483  -47.4619 H         1 UNK         0.0600 
    204 H204        1.5135  -27.0184  -47.0523 H         1 UNK         0.0600 
    205 H205       -1.2869  -25.6687  -49.0825 H         1 UNK         0.3000 
    206 H206       -0.7098  -27.6251  -51.0808 H         1 UNK         0.0600 
    207 H207       -0.6955  -25.2003  -51.5552 H         1 UNK         0.0600 
    208 H208       -1.8671  -25.9961  -52.5953 H         1 UNK         0.0600 
    209 H209       -2.4155  -25.0785  -51.1966 H         1 UNK         0.0600 
    210 H210       -3.7761  -26.5487  -49.5882 H         1 UNK         0.3000 
    211 H211       -5.8050  -27.3498  -49.4063 H         1 UNK         0.0600 
    212 H212       -4.6344  -30.1334  -49.9204 H         1 UNK         0.0600 
    213 H213       -6.1574  -29.7686  -49.1209 H         1 UNK         0.0600 
    214 H214       -4.6426  -29.3078  -48.3625 H         1 UNK         0.0600 
    215 H215       -4.9194  -26.4684  -52.0339 H         1 UNK         0.3000 
    216 H216       -6.3745  -27.9953  -54.0524 H         1 UNK         0.0600 
    217 H217       -5.0397  -25.2277  -54.1432 H         1 UNK         0.0600 
    218 H218       -5.6243  -26.1288  -55.5336 H         1 UNK         0.0600 
    219 H219       -4.2769  -26.7493  -54.5965 H         1 UNK         0.0600 
    220 H220       -7.9869  -26.8242  -55.4510 H         1 UNK         0.3000 
    221 H221      -10.2476  -25.8466  -53.9819 H         1 UNK         0.0600 
    222 H222       -9.6365  -25.8564  -56.9884 H         1 UNK         0.0600 
    223 H223      -10.4873  -27.1182  -56.0967 H         1 UNK         0.0600 
    224 H224      -11.2070  -25.5248  -56.2683 H         1 UNK         0.0600 
    225 H225      -10.5452  -23.8736  -53.2414 H         1 UNK         0.3000 
    226 H226      -10.5181  -21.7446  -52.7626 H         1 UNK         0.0600 
    227 H227      -11.1235  -21.2199  -55.1098 H         1 UNK         0.0600 
    228 H228      -10.0929  -19.9745  -54.4217 H         1 UNK         0.0600 
    229 H229       -9.4206  -21.1320  -55.5559 H         1 UNK         0.0600 
    230 H230       -7.5192  -22.3982  -54.5671 H         1 UNK         0.3000 
    231 H231       -5.3554  -22.0492  -54.2302 H         1 UNK         0.0600 
    232 H232       -5.9815  -22.5070  -51.2650 H         1 UNK         0.0600 
    233 H233       -4.4309  -22.7848  -52.0677 H         1 UNK         0.0600 
    234 H234       -5.8177  -23.7780  -52.4573 H         1 UNK         0.0600 
    235 H235       -4.2909  -20.8725  -51.5837 H         1 UNK         0.3000 
    236 H236       -3.4309  -18.9582  -50.8376 H         1 UNK         0.0600 
    237 H237       -5.0811  -17.2591  -50.1540 H         1 UNK         0.0600 
    238 H238       -6.2593  -17.8797  -51.3055 H         1 UNK         0.0600 
    239 H239       -5.7674  -18.8579  -49.9260 H         1 UNK         0.0600 
    240 H240       -2.9008  -19.3364  -53.5809 H         1 UNK         0.3000 
    241 H241       -1.9805  -18.3992  -55.3428 H         1 UNK         0.0600 
    242 H242       -5.5322  -17.1504  -56.2762 H         1 UNK         0.3800 
    243 H243       -5.1359  -18.1428  -54.8966 H         1 UNK         0.3800 
    244 H244       -1.0687  -16.0651  -55.3193 H         1 UNK         0.0800 
    245 H245       -1.8530  -15.7535  -53.8041 H         1 UNK         0.0800 
    246 H246       -1.0429  -17.7798  -51.5202 H         1 UNK         0.0800 
    247 H247       -0.8408  -16.0513  -51.6865 H         1 UNK         0.0800 
@<TRIPOS>BOND
     1    1    2 1    
     2    1  127 1    
     3    1  128 1    
     4    1  129 1    
     5    2    3 2    
     6    2    4 am   BACKBONE|DICT|INTERRES
     7    4    5 1    
     8    4  130 1    
     9    5    6 1    
    10    5   65 1    
    11    5  131 1    
    12    6    7 1    
    13    6  132 1    
    14    6  133 1    
    15    7    8 1    
    16    8    9 1    
    17    8  134 1    
    18    8  135 1    
    19    9   10 ar   
    20    9   14 ar   
    21   10   11 ar   
    22   10  136 1    
    23   11   12 ar   
    24   11  126 1    
    25   12   13 ar   
    26   12  137 1    
    27   13   14 ar   
    28   13   15 1    
    29   14  138 1    
    30   15   16 1    
    31   15  139 1    
    32   15  140 1    
    33   16   17 1    
    34   17   18 1    
    35   17  141 1    
    36   17  142 1    
    37   18   19 1    
    38   18   67 1    
    39   18  143 1    
    40   19   20 am   BACKBONE|DICT|INTERRES
    41   19  144 1    
    42   20   21 2    
    43   20   22 1    
    44   22   23 1    
    45   22   24 1    
    46   22  145 1    
    47   23  146 1    
    48   23  147 1    
    49   23  148 1    
    50   24   25 am   BACKBONE|DICT|INTERRES
    51   24  149 1    
    52   25   26 2    
    53   25   27 1    
    54   27   28 1    
    55   27   29 1    
    56   27  150 1    
    57   28  151 1    
    58   28  152 1    
    59   28  153 1    
    60   29   30 am   BACKBONE|DICT|INTERRES
    61   29  154 1    
    62   30   31 2    
    63   30   32 1    
    64   32   33 1    
    65   32   34 1    
    66   32  155 1    
    67   33  156 1    
    68   33  157 1    
    69   33  158 1    
    70   34   35 am   BACKBONE|DICT|INTERRES
    71   34  159 1    
    72   35   36 2    
    73   35   37 1    
    74   37   38 1    
    75   37   39 1    
    76   37  160 1    
    77   38  161 1    
    78   38  162 1    
    79   38  163 1    
    80   39   40 am   BACKBONE|DICT|INTERRES
    81   39  164 1    
    82   40   41 2    
    83   40   42 1    
    84   42   43 1    
    85   42   44 1    
    86   42  165 1    
    87   43  166 1    
    88   43  167 1    
    89   43  168 1    
    90   44   45 am   BACKBONE|DICT|INTERRES
    91   44  169 1    
    92   45   46 2    
    93   45   47 1    
    94   47   48 1    
    95   47   49 1    
    96   47  170 1    
    97   48  171 1    
    98   48  172 1    
    99   48  173 1    
   100   49   50 am   BACKBONE|DICT|INTERRES
   101   49  174 1    
   102   50   51 2    
   103   50   52 1    
   104   52   53 1    
   105   52   54 1    
   106   52  175 1    
   107   53  176 1    
   108   53  177 1    
   109   53  178 1    
   110   54   55 am   BACKBONE|DICT|INTERRES
   111   54  179 1    
   112   55   56 2    
   113   55   57 1    
   114   57   58 1    
   115   57   59 1    
   116   57  180 1    
   117   58  181 1    
   118   58  182 1    
   119   58  183 1    
   120   59   60 am   BACKBONE|DICT|INTERRES
   121   59  184 1    
   122   60   61 2    
   123   60   62 1    
   124   62   63 1    
   125   62   64 1    
   126   62  185 1    
   127   63  186 1    
   128   63  187 1    
   129   63  188 1    
   130   64   65 am   BACKBONE|DICT|INTERRES
   131   64  189 1    
   132   65   66 2    
   133   67   68 2    
   134   67   69 am   BACKBONE|DICT|INTERRES
   135   69   70 1    
   136   69  190 1    
   137   70   71 1    
   138   70   72 1    
   139   70  191 1    
   140   71  192 1    
   141   71  193 1    
   142   71  194 1    
   143   72   73 2    
   144   72   74 am   BACKBONE|DICT|INTERRES
   145   74   75 1    
   146   74  195 1    
   147   75   76 1    
   148   75   77 1    
   149   75  196 1    
   150   76  197 1    
   151   76  198 1    
   152   76  199 1    
   153   77   78 2    
   154   77   79 am   BACKBONE|DICT|INTERRES
   155   79   80 1    
   156   79  200 1    
   157   80   81 1    
   158   80   82 1    
   159   80  201 1    
   160   81  202 1    
   161   81  203 1    
   162   81  204 1    
   163   82   83 2    
   164   82   84 am   BACKBONE|DICT|INTERRES
   165   84   85 1    
   166   84  205 1    
   167   85   86 1    
   168   85   87 1    
   169   85  206 1    
   170   86  207 1    
   171   86  208 1    
   172   86  209 1    
   173   87   88 2    
   174   87   89 am   BACKBONE|DICT|INTERRES
   175   89   90 1    
   176   89  210 1    
   177   90   91 1    
   178   90   92 1    
   179   90  211 1    
   180   91  212 1    
   181   91  213 1    
   182   91  214 1    
   183   92   93 2    
   184   92   94 am   BACKBONE|DICT|INTERRES
   185   94   95 1    
   186   94  215 1    
   187   95   96 1    
   188   95   97 1    
   189   95  216 1    
   190   96  217 1    
   191   96  218 1    
   192   96  219 1    
   193   97   98 2    
   194   97   99 am   BACKBONE|DICT|INTERRES
   195   99  100 1    
   196   99  220 1    
   197  100  101 1    
   198  100  102 1    
   199  100  221 1    
   200  101  222 1    
   201  101  223 1    
   202  101  224 1    
   203  102  103 2    
   204  102  104 am   BACKBONE|DICT|INTERRES
   205  104  105 1    
   206  104  225 1    
   207  105  106 1    
   208  105  107 1    
   209  105  226 1    
   210  106  227 1    
   211  106  228 1    
   212  106  229 1    
   213  107  108 2    
   214  107  109 am   BACKBONE|DICT|INTERRES
   215  109  110 1    
   216  109  230 1    
   217  110  111 1    
   218  110  112 1    
   219  110  231 1    
   220  111  232 1    
   221  111  233 1    
   222  111  234 1    
   223  112  113 2    
   224  112  114 am   BACKBONE|DICT|INTERRES
   225  114  115 1    
   226  114  235 1    
   227  115  116 1    
   228  115  117 1    
   229  115  236 1    
   230  116  237 1    
   231  116  238 1    
   232  116  239 1    
   233  117  118 2    
   234  117  119 am   BACKBONE|DICT|INTERRES
   235  119  120 1    
   236  119  240 1    
   237  120  121 1    
   238  120  124 1    
   239  120  241 1    
   240  121  122 am   BACKBONE|DICT|INTERRES
   241  121  123 2    
   242  122  242 1    
   243  122  243 1    
   244  124  125 1    
   245  124  244 1    
   246  124  245 1    
   247  125  126 1    
   248  126  246 1    
   249  126  247 1    
@<TRIPOS>SUBSTRUCTURE
     1 UNK         1 GROUP             0       ****    0 ROOT    
