@<TRIPOS>MOLECULE
3R540
247   249    1
SMALL
USER_CHARGES


@<TRIPOS>ATOM
      1 CA          8.4477  -15.8393  -46.9144 C.3       0 UNK        -0.1800 
      2 C           7.1762  -15.5842  -46.1179 C.2       0 UNK         0.5000 
      3 O           7.1166  -15.9141  -44.9324 O.2       0 UNK        -0.5000 
      4 N           6.1600  -14.9936  -46.7586 N.am      1 UNK        -0.5000 
      5 CA          4.8592  -14.6625  -46.1683 C.3       1 UNK         0.1400 
      6 C6          3.7462  -14.5706  -47.2431 C.3       23 UNK        -0.0398 
      7 S7          3.2542  -16.2244  -47.8266 S.3       23 UNK        -0.2404 
      8 C8          3.6130  -16.1719  -49.6095 C.3       23 UNK        -0.0205 
      9 C9          2.7281  -17.1804  -50.3225 C.ar      23 UNK        -0.0193 
     10 C10         1.5277  -16.7666  -50.9041 C.ar      23 UNK        -0.1150 
     11 C11         0.6344  -17.7029  -51.4303 C.ar      23 UNK        -0.0193 
     12 C12         0.9555  -19.0620  -51.3846 C.ar      23 UNK        -0.1150 
     13 C13         2.1627  -19.4880  -50.8225 C.ar      23 UNK        -0.0193 
     14 C14         3.0567  -18.5386  -50.3150 C.ar      23 UNK        -0.1150 
     15 C15         2.4540  -20.9792  -50.6943 C.3       23 UNK        -0.0205 
     16 S16         2.8621  -21.4886  -48.9870 S.3       23 UNK        -0.2404 
     17 C17         1.5148  -20.7390  -48.0023 C.3       23 UNK        -0.0398 
     18 CA          0.5112  -21.7651  -47.4355 C.3       11 UNK         0.1400 
     19 N          -0.2852  -21.1832  -46.3535 N.am      11 UNK        -0.5000 
     20 C          -1.1083  -21.8670  -45.5496 C.2       10 UNK         0.5000 
     21 O          -1.2669  -23.0845  -45.6178 O.2       10 UNK        -0.5000 
     22 CA         -1.9313  -21.0500  -44.5379 C.3       10 UNK         0.1400 
     23 CB         -1.0780  -20.6595  -43.3223 C.3       10 UNK        -0.1800 
     24 N          -2.5237  -19.8515  -45.1341 N.am      10 UNK        -0.5000 
     25 C          -3.4494  -19.8707  -46.1047 C.2       9 UNK         0.5000 
     26 O          -3.9250  -20.9017  -46.5797 O.2       9 UNK        -0.5000 
     27 CA         -3.8892  -18.5114  -46.6737 C.3       9 UNK         0.1400 
     28 CB         -4.9097  -17.8355  -45.7474 C.3       9 UNK        -0.1800 
     29 N          -2.7638  -17.6081  -46.9147 N.am      9 UNK        -0.5000 
     30 C          -1.7704  -17.8437  -47.7844 C.2       8 UNK         0.5000 
     31 O          -1.7236  -18.8299  -48.5188 O.2       8 UNK        -0.5000 
     32 CA         -0.6147  -16.8300  -47.8082 C.3       8 UNK         0.1400 
     33 CB         -1.0226  -15.5589  -48.5641 C.3       8 UNK        -0.1800 
     34 N          -0.1516  -16.4710  -46.4693 N.am      8 UNK        -0.5000 
     35 C           0.3534  -17.3358  -45.5792 C.2       7 UNK         0.5000 
     36 O           0.5058  -18.5361  -45.7971 O.2       7 UNK        -0.5000 
     37 CA          0.6983  -16.7761  -44.1911 C.3       7 UNK         0.1400 
     38 CB          2.0799  -16.1078  -44.1947 C.3       7 UNK        -0.1800 
     39 N          -0.3181  -15.8386  -43.7161 N.am      7 UNK        -0.5000 
     40 C          -1.5556  -16.2023  -43.3506 C.2       6 UNK         0.5000 
     41 O          -1.9509  -17.3687  -43.3317 O.2       6 UNK        -0.5000 
     42 CA         -2.5255  -15.0632  -42.9930 C.3       6 UNK         0.1400 
     43 CB         -2.2887  -14.5722  -41.5575 C.3       6 UNK        -0.1800 
     44 N          -2.4226  -13.9363  -43.9212 N.am      6 UNK        -0.5000 
     45 C          -2.8020  -13.9913  -45.2062 C.2       5 UNK         0.5000 
     46 O          -3.2839  -14.9938  -45.7324 O.2       5 UNK        -0.5000 
     47 CA         -2.5780  -12.7303  -46.0610 C.3       5 UNK         0.1400 
     48 CB         -3.7924  -11.7955  -45.9623 C.3       5 UNK        -0.1800 
     49 N          -1.3666  -11.9818  -45.7230 N.am      5 UNK        -0.5000 
     50 C          -0.1163  -12.4644  -45.7277 C.2       4 UNK         0.5000 
     51 O           0.1644  -13.6377  -45.9789 O.2       4 UNK        -0.5000 
     52 CA          1.0198  -11.4838  -45.3757 C.3       4 UNK         0.1400 
     53 CB          0.5719  -10.0115  -45.2331 C.3       4 UNK        -0.1800 
     54 N           1.7549  -11.9059  -44.1821 N.am      4 UNK        -0.5000 
     55 C           1.2601  -12.1274  -42.9534 C.2       3 UNK         0.5000 
     56 O           0.0615  -12.0452  -42.6791 O.2       3 UNK        -0.5000 
     57 CA          2.2604  -12.5165  -41.8424 C.3       3 UNK         0.1400 
     58 CB          1.7507  -13.7110  -41.0175 C.3       3 UNK        -0.1800 
     59 N           3.5972  -12.8220  -42.3638 N.am      3 UNK        -0.5000 
     60 C           4.5836  -11.9263  -42.5159 C.2       2 UNK         0.5000 
     61 O           4.4935  -10.7457  -42.1782 O.2       2 UNK        -0.5000 
     62 CA          5.8777  -12.4230  -43.1922 C.3       2 UNK         0.1400 
     63 CB          6.8872  -12.9012  -42.1380 C.3       2 UNK        -0.1800 
     64 N           5.6630  -13.4955  -44.1688 N.am      2 UNK        -0.5000 
     65 C           4.9509  -13.3903  -45.2985 C.2       1 UNK         0.5000 
     66 O           4.3824  -12.3540  -45.6457 O.2       1 UNK        -0.5000 
     67 C          -0.3819  -22.3720  -48.5365 C.2       11 UNK         0.5000 
     68 O          -0.1270  -23.4938  -48.9741 O.2       11 UNK        -0.5000 
     69 N          -1.4506  -21.6603  -48.9216 N.am      12 UNK        -0.5000 
     70 CA         -2.4509  -22.1374  -49.8761 C.3       12 UNK         0.1400 
     71 CB         -3.3823  -20.9834  -50.2660 C.3       12 UNK        -0.1800 
     72 C          -3.2724  -23.3346  -49.3645 C.2       12 UNK         0.5000 
     73 O          -3.7898  -24.0960  -50.1810 O.2       12 UNK        -0.5000 
     74 N          -3.4126  -23.4795  -48.0422 N.am      13 UNK        -0.5000 
     75 CA         -4.0443  -24.6359  -47.4092 C.3       13 UNK         0.1400 
     76 CB         -4.5568  -24.2464  -46.0139 C.3       13 UNK        -0.1800 
     77 C          -3.0769  -25.8290  -47.3241 C.2       13 UNK         0.5000 
     78 O          -3.4900  -26.9618  -47.5668 O.2       13 UNK        -0.5000 
     79 N          -1.8129  -25.5559  -46.9788 N.am      14 UNK        -0.5000 
     80 CA         -0.7710  -26.5602  -46.7843 C.3       14 UNK         0.1400 
     81 CB          0.3736  -25.9493  -45.9595 C.3       14 UNK        -0.1800 
     82 C          -0.2365  -27.1460  -48.1022 C.2       14 UNK         0.5000 
     83 O          -0.1819  -28.3687  -48.2413 O.2       14 UNK        -0.5000 
     84 N           0.1828  -26.2718  -49.0256 N.am      15 UNK        -0.5000 
     85 CA          0.8876  -26.6512  -50.2484 C.3       15 UNK         0.1400 
     86 CB          1.9311  -25.5752  -50.5959 C.3       15 UNK        -0.1800 
     87 C          -0.0780  -26.8759  -51.4191 C.2       15 UNK         0.5000 
     88 O          -0.0266  -27.9306  -52.0532 O.2       15 UNK        -0.5000 
     89 N          -0.9295  -25.8788  -51.6977 N.am      16 UNK        -0.5000 
     90 CA         -1.8373  -25.8925  -52.8498 C.3       16 UNK         0.1400 
     91 CB         -2.1684  -24.4480  -53.2602 C.3       16 UNK        -0.1800 
     92 C          -3.1239  -26.7034  -52.6055 C.2       16 UNK         0.5000 
     93 O          -3.7724  -27.0983  -53.5750 O.2       16 UNK        -0.5000 
     94 N          -3.4725  -26.9223  -51.3276 N.am      17 UNK        -0.5000 
     95 CA         -4.6838  -27.5946  -50.8376 C.3       17 UNK         0.1400 
     96 CB         -4.6748  -29.0896  -51.2190 C.3       17 UNK        -0.1800 
     97 C          -5.9901  -26.8745  -51.2416 C.2       17 UNK         0.5000 
     98 O          -7.0303  -27.5187  -51.3902 O.2       17 UNK        -0.5000 
     99 N          -5.9070  -25.5501  -51.4153 N.am      18 UNK        -0.5000 
    100 CA        -6.9982  -24.6863  -51.8585 C.3       18 UNK         0.1400 
    101 CB        -6.4757  -23.7691  -52.9770 C.3       18 UNK        -0.1800 
    102 C         -7.5558  -23.8411  -50.7041 C.2       18 UNK         0.5000 
    103 O         -8.7667  -23.6310  -50.6426 O.2       18 UNK        -0.5000 
    104 N         -6.6584  -23.3465  -49.8344 N.am      19 UNK        -0.5000 
    105 CA        -6.9144  -22.4515  -48.6917 C.3       19 UNK         0.1400 
    106 CB        -7.7713  -23.1637  -47.6255 C.3       19 UNK        -0.1800 
    107 C         -7.4917  -21.0672  -49.0750 C.2       19 UNK         0.5000 
    108 O         -7.9706  -20.3405  -48.2043 O.2       19 UNK        -0.5000 
    109 N         -7.4211  -20.7153  -50.3655 N.am      20 UNK        -0.5000 
    110 CA        -8.0234  -19.5204  -50.9641 C.3       20 UNK         0.1400 
    111 CB        -8.5701  -19.9118  -52.3485 C.3       20 UNK        -0.1800 
    112 C         -7.0406  -18.3366  -51.0735 C.2       20 UNK         0.5000 
    113 O         -7.3418  -17.3636  -51.7660 O.2       20 UNK        -0.5000 
    114 N         -5.8705  -18.4538  -50.4275 N.am      21 UNK        -0.5000 
    115 CA        -4.7420  -17.5145  -50.4654 C.3       21 UNK         0.1400 
    116 CB        -5.0947  -16.1842  -49.7686 C.3       21 UNK        -0.1800 
    117 C         -4.1573  -17.3366  -51.8836 C.2       21 UNK         0.5000 
    118 O         -3.7582  -16.2335  -52.2543 O.2       21 UNK        -0.5000 
    119 N         -4.1093  -18.4538  -52.6251 N.am      22 UNK        -0.5000 
    120 CA        -3.4996  -18.6678  -53.9523 C.3       22 UNK         0.1400 
    121 C         -3.9895  -17.7607  -55.1245 C.2       22 UNK         0.5000 
    122 N         -5.0660  -17.0006  -54.9698 N.am      22 UNK        -0.7600 
    123 O         -3.4209  -17.7881  -56.2127 O.2       22 UNK        -0.5000 
    124 C124       -1.9567  -18.8929  -53.8902 C.3       23 UNK        -0.0398 
    125 S125       -0.9127  -17.3989  -53.7439 S.3       23 UNK        -0.2404 
    126 C126       -0.7211  -17.2483  -51.9415 C.3       23 UNK        -0.0205 
    127 H127        8.3548  -15.5003  -47.9465 H         1 UNK         0.0600 
    128 H128        8.6750  -16.9052  -46.9259 H         1 UNK         0.0600 
    129 H129        9.2874  -15.3152  -46.4581 H         1 UNK         0.0600 
    130 H130        6.2792  -14.7275  -47.7253 H         1 UNK         0.3000 
    131 H131        4.5877  -15.4677  -45.4840 H         1 UNK         0.0600 
    132 H132        4.0560  -13.9376  -48.0756 H         1 UNK         0.0800 
    133 H133        2.8427  -14.1124  -46.8363 H         1 UNK         0.0800 
    134 H134        3.4316  -15.1704  -50.0024 H         1 UNK         0.0800 
    135 H135        4.6666  -16.3957  -49.7819 H         1 UNK         0.0800 
    136 H136        1.2631  -15.7186  -50.8933 H         1 UNK         0.1150 
    137 H137        0.2476  -19.7898  -51.7538 H         1 UNK         0.1150 
    138 H138        3.9753  -18.8629  -49.8465 H         1 UNK         0.1150 
    139 H139        1.6017  -21.5703  -51.0336 H         1 UNK         0.0800 
    140 H140        3.2874  -21.2353  -51.3494 H         1 UNK         0.0800 
    141 H141        0.9909  -19.9580  -48.5536 H         1 UNK         0.0800 
    142 H142        2.0074  -20.2230  -47.1775 H         1 UNK         0.0800 
    143 H143        1.0832  -22.5844  -46.9949 H         1 UNK         0.0600 
    144 H144       -0.1775  -20.1814  -46.2050 H         1 UNK         0.3000 
    145 H145       -2.7475  -21.6852  -44.1873 H         1 UNK         0.0600 
    146 H146       -1.6775  -20.1482  -42.5689 H         1 UNK         0.0600 
    147 H147       -0.6446  -21.5419  -42.8500 H         1 UNK         0.0600 
    148 H148       -0.2569  -19.9983  -43.5996 H         1 UNK         0.0600 
    149 H149       -2.1997  -18.9587  -44.7803 H         1 UNK         0.3000 
    150 H150       -4.3791  -18.7004  -47.6298 H         1 UNK         0.0600 
    151 H151       -5.7597  -18.4918  -45.5563 H         1 UNK         0.0600 
    152 H152       -5.2999  -16.9207  -46.1936 H         1 UNK         0.0600 
    153 H153       -4.4689  -17.5751  -44.7842 H         1 UNK         0.0600 
    154 H154       -2.7548  -16.7452  -46.3776 H         1 UNK         0.3000 
    155 H155        0.2208  -17.2941  -48.3360 H         1 UNK         0.0600 
    156 H156       -1.4238  -15.7968  -49.5472 H         1 UNK         0.0600 
    157 H157       -0.1711  -14.8926  -48.7038 H         1 UNK         0.0600 
    158 H158       -1.7969  -15.0105  -48.0321 H         1 UNK         0.0600 
    159 H159       -0.1896  -15.4857  -46.2223 H         1 UNK         0.3000 
    160 H160        0.7380  -17.6200  -43.4989 H         1 UNK         0.0600 
    161 H161        2.0722  -15.1645  -44.7402 H         1 UNK         0.0600 
    162 H162        2.8177  -16.7597  -44.6638 H         1 UNK         0.0600 
    163 H163        2.4302  -15.9148  -43.1827 H         1 UNK         0.0600 
    164 H164       -0.1039  -14.8541  -43.7815 H         1 UNK         0.3000 
    165 H165       -3.5410  -15.4611  -43.0518 H         1 UNK         0.0600 
    166 H166       -3.0206  -13.8157  -41.2741 H         1 UNK         0.0600 
    167 H167       -2.3763  -15.3931  -40.8446 H         1 UNK         0.0600 
    168 H168       -1.2961  -14.1382  -41.4383 H         1 UNK         0.0600 
    169 H169       -1.9932  -13.0889  -43.5729 H         1 UNK         0.3000 
    170 H170       -2.4839  -13.0464  -47.1004 H         1 UNK         0.0600 
    171 H171       -4.7109  -12.3187  -46.2321 H         1 UNK         0.0600 
    172 H172       -3.9204  -11.4071  -44.9512 H         1 UNK         0.0600 
    173 H173       -3.6938  -10.9465  -46.6391 H         1 UNK         0.0600 
    174 H174       -1.4966  -11.0122  -45.4741 H         1 UNK         0.3000 
    175 H175        1.7257  -11.5335  -46.2059 H         1 UNK         0.0600 
    176 H176       -0.1248   -9.8684  -44.4063 H         1 UNK         0.0600 
    177 H177        1.4299   -9.3638  -45.0522 H         1 UNK         0.0600 
    178 H178        0.0916   -9.6535  -46.1446 H         1 UNK         0.0600 
    179 H179        2.7499  -12.0285  -44.3251 H         1 UNK         0.3000 
    180 H180        2.3267  -11.6614  -41.1668 H         1 UNK         0.0600 
    181 H181        1.4937  -14.5631  -41.6440 H         1 UNK         0.0600 
    182 H182        0.8544  -13.4395  -40.4589 H         1 UNK         0.0600 
    183 H183        2.4936  -14.0374  -40.2895 H         1 UNK         0.0600 
    184 H184        3.7623  -13.7707  -42.6658 H         1 UNK         0.3000 
    185 H185        6.3147  -11.5750  -43.7234 H         1 UNK         0.0600 
    186 H186        7.0929  -12.1166  -41.4086 H         1 UNK         0.0600 
    187 H187        6.5171  -13.7696  -41.5915 H         1 UNK         0.0600 
    188 H188        7.8376  -13.1739  -42.5973 H         1 UNK         0.0600 
    189 H189        6.1467  -14.3721  -44.0014 H         1 UNK         0.3000 
    190 H190       -1.5825  -20.7197  -48.5568 H         1 UNK         0.3000 
    191 H191       -1.9220  -22.4636  -50.7733 H         1 UNK         0.0600 
    192 H192       -2.8147  -20.1633  -50.7050 H         1 UNK         0.0600 
    193 H193       -4.1202  -21.3045  -51.0021 H         1 UNK         0.0600 
    194 H194       -3.9189  -20.5963  -49.3996 H         1 UNK         0.0600 
    195 H195       -3.0331  -22.7696  -47.4278 H         1 UNK         0.3000 
    196 H196       -4.9056  -24.9446  -48.0055 H         1 UNK         0.0600 
    197 H197       -5.1001  -25.0732  -45.5552 H         1 UNK         0.0600 
    198 H198       -5.2374  -23.3969  -46.0638 H         1 UNK         0.0600 
    199 H199       -3.7432  -23.9766  -45.3410 H         1 UNK         0.0600 
    200 H200       -1.5713  -24.6002  -46.7321 H         1 UNK         0.3000 
    201 H201       -1.1948  -27.3826  -46.2038 H         1 UNK         0.0600 
    202 H202        0.0212  -25.6222  -44.9811 H         1 UNK         0.0600 
    203 H203        0.8156  -25.0863  -46.4590 H         1 UNK         0.0600 
    204 H204        1.1688  -26.6769  -45.7926 H         1 UNK         0.0600 
    205 H205        0.0703  -25.2728  -48.8594 H         1 UNK         0.3000 
    206 H206        1.4303  -27.5841  -50.0800 H         1 UNK         0.0600 
    207 H207        2.6410  -25.4385  -49.7800 H         1 UNK         0.0600 
    208 H208        2.5030  -25.8593  -51.4801 H         1 UNK         0.0600 
    209 H209        1.4728  -24.6074  -50.8012 H         1 UNK         0.0600 
    210 H210       -0.9141  -25.0472  -51.1251 H         1 UNK         0.3000 
    211 H211       -1.3208  -26.3577  -53.6924 H         1 UNK         0.0600 
    212 H212       -2.7463  -23.9270  -52.5001 H         1 UNK         0.0600 
    213 H213       -2.7588  -24.4330  -54.1773 H         1 UNK         0.0600 
    214 H214       -1.2625  -23.8719  -53.4495 H         1 UNK         0.0600 
    215 H215       -2.8792  -26.5226  -50.6148 H         1 UNK         0.3000 
    216 H216       -4.6471  -27.5399  -49.7513 H         1 UNK         0.0600 
    217 H217       -5.4885  -29.6239  -50.7273 H         1 UNK         0.0600 
    218 H218       -3.7440  -29.5675  -50.9131 H         1 UNK         0.0600 
    219 H219       -4.7906  -29.2360  -52.2931 H         1 UNK         0.0600 
    220 H220       -5.0183  -25.1020  -51.2113 H         1 UNK         0.3000 
    221 H221       -7.8183  -25.2822  -52.2646 H         1 UNK         0.0600 
    222 H222       -5.6400  -23.1534  -52.6414 H         1 UNK         0.0600 
    223 H223       -6.1336  -24.3531  -53.8317 H         1 UNK         0.0600 
    224 H224       -7.2591  -23.0992  -53.3341 H         1 UNK         0.0600 
    225 H225       -5.6873  -23.6020  -49.9760 H         1 UNK         0.3000 
    226 H226       -5.9429  -22.2449  -48.2426 H         1 UNK         0.0600 
    227 H227       -7.3586  -24.1404  -47.3735 H         1 UNK         0.0600 
    228 H228       -7.8113  -22.5825  -46.7035 H         1 UNK         0.0600 
    229 H229       -8.7976  -23.3113  -47.9624 H         1 UNK         0.0600 
    230 H230       -7.0142  -21.3770  -51.0087 H         1 UNK         0.3000 
    231 H231       -8.8630  -19.1861  -50.3513 H         1 UNK         0.0600 
    232 H232       -7.7706  -20.2073  -53.0291 H         1 UNK         0.0600 
    233 H233       -9.1061  -19.0821  -52.8113 H         1 UNK         0.0600 
    234 H234       -9.2709  -20.7439  -52.2738 H         1 UNK         0.0600 
    235 H235       -5.7401  -19.2870  -49.8742 H         1 UNK         0.3000 
    236 H236       -3.9450  -17.9762  -49.8842 H         1 UNK         0.0600 
    237 H237       -5.4748  -16.3562  -48.7617 H         1 UNK         0.0600 
    238 H238       -4.2143  -15.5474  -49.6749 H         1 UNK         0.0600 
    239 H239       -5.8479  -15.6227  -50.3217 H         1 UNK         0.0600 
    240 H240       -4.5294  -19.2774  -52.2238 H         1 UNK         0.3000 
    241 H241       -3.9061  -19.6387  -54.2382 H         1 UNK         0.0600 
    242 H242       -5.3875  -16.4312  -55.7366 H         1 UNK         0.3800 
    243 H243       -5.5301  -16.9505  -54.0758 H         1 UNK         0.3800 
    244 H244       -1.7161  -19.5820  -53.0807 H         1 UNK         0.0800 
    245 H245       -1.6380  -19.4069  -54.7983 H         1 UNK         0.0800 
    246 H246       -1.4870  -17.8178  -51.4173 H         1 UNK         0.0800 
    247 H247       -0.8919  -16.2016  -51.6904 H         1 UNK         0.0800 
@<TRIPOS>BOND
     1    1    2 1    
     2    1  127 1    
     3    1  128 1    
     4    1  129 1    
     5    2    3 2    
     6    2    4 am   BACKBONE|DICT|INTERRES
     7    4    5 1    
     8    4  130 1    
     9    5    6 1    
    10    5   65 1    
    11    5  131 1    
    12    6    7 1    
    13    6  132 1    
    14    6  133 1    
    15    7    8 1    
    16    8    9 1    
    17    8  134 1    
    18    8  135 1    
    19    9   10 ar   
    20    9   14 ar   
    21   10   11 ar   
    22   10  136 1    
    23   11   12 ar   
    24   11  126 1    
    25   12   13 ar   
    26   12  137 1    
    27   13   14 ar   
    28   13   15 1    
    29   14  138 1    
    30   15   16 1    
    31   15  139 1    
    32   15  140 1    
    33   16   17 1    
    34   17   18 1    
    35   17  141 1    
    36   17  142 1    
    37   18   19 1    
    38   18   67 1    
    39   18  143 1    
    40   19   20 am   BACKBONE|DICT|INTERRES
    41   19  144 1    
    42   20   21 2    
    43   20   22 1    
    44   22   23 1    
    45   22   24 1    
    46   22  145 1    
    47   23  146 1    
    48   23  147 1    
    49   23  148 1    
    50   24   25 am   BACKBONE|DICT|INTERRES
    51   24  149 1    
    52   25   26 2    
    53   25   27 1    
    54   27   28 1    
    55   27   29 1    
    56   27  150 1    
    57   28  151 1    
    58   28  152 1    
    59   28  153 1    
    60   29   30 am   BACKBONE|DICT|INTERRES
    61   29  154 1    
    62   30   31 2    
    63   30   32 1    
    64   32   33 1    
    65   32   34 1    
    66   32  155 1    
    67   33  156 1    
    68   33  157 1    
    69   33  158 1    
    70   34   35 am   BACKBONE|DICT|INTERRES
    71   34  159 1    
    72   35   36 2    
    73   35   37 1    
    74   37   38 1    
    75   37   39 1    
    76   37  160 1    
    77   38  161 1    
    78   38  162 1    
    79   38  163 1    
    80   39   40 am   BACKBONE|DICT|INTERRES
    81   39  164 1    
    82   40   41 2    
    83   40   42 1    
    84   42   43 1    
    85   42   44 1    
    86   42  165 1    
    87   43  166 1    
    88   43  167 1    
    89   43  168 1    
    90   44   45 am   BACKBONE|DICT|INTERRES
    91   44  169 1    
    92   45   46 2    
    93   45   47 1    
    94   47   48 1    
    95   47   49 1    
    96   47  170 1    
    97   48  171 1    
    98   48  172 1    
    99   48  173 1    
   100   49   50 am   BACKBONE|DICT|INTERRES
   101   49  174 1    
   102   50   51 2    
   103   50   52 1    
   104   52   53 1    
   105   52   54 1    
   106   52  175 1    
   107   53  176 1    
   108   53  177 1    
   109   53  178 1    
   110   54   55 am   BACKBONE|DICT|INTERRES
   111   54  179 1    
   112   55   56 2    
   113   55   57 1    
   114   57   58 1    
   115   57   59 1    
   116   57  180 1    
   117   58  181 1    
   118   58  182 1    
   119   58  183 1    
   120   59   60 am   BACKBONE|DICT|INTERRES
   121   59  184 1    
   122   60   61 2    
   123   60   62 1    
   124   62   63 1    
   125   62   64 1    
   126   62  185 1    
   127   63  186 1    
   128   63  187 1    
   129   63  188 1    
   130   64   65 am   BACKBONE|DICT|INTERRES
   131   64  189 1    
   132   65   66 2    
   133   67   68 2    
   134   67   69 am   BACKBONE|DICT|INTERRES
   135   69   70 1    
   136   69  190 1    
   137   70   71 1    
   138   70   72 1    
   139   70  191 1    
   140   71  192 1    
   141   71  193 1    
   142   71  194 1    
   143   72   73 2    
   144   72   74 am   BACKBONE|DICT|INTERRES
   145   74   75 1    
   146   74  195 1    
   147   75   76 1    
   148   75   77 1    
   149   75  196 1    
   150   76  197 1    
   151   76  198 1    
   152   76  199 1    
   153   77   78 2    
   154   77   79 am   BACKBONE|DICT|INTERRES
   155   79   80 1    
   156   79  200 1    
   157   80   81 1    
   158   80   82 1    
   159   80  201 1    
   160   81  202 1    
   161   81  203 1    
   162   81  204 1    
   163   82   83 2    
   164   82   84 am   BACKBONE|DICT|INTERRES
   165   84   85 1    
   166   84  205 1    
   167   85   86 1    
   168   85   87 1    
   169   85  206 1    
   170   86  207 1    
   171   86  208 1    
   172   86  209 1    
   173   87   88 2    
   174   87   89 am   BACKBONE|DICT|INTERRES
   175   89   90 1    
   176   89  210 1    
   177   90   91 1    
   178   90   92 1    
   179   90  211 1    
   180   91  212 1    
   181   91  213 1    
   182   91  214 1    
   183   92   93 2    
   184   92   94 am   BACKBONE|DICT|INTERRES
   185   94   95 1    
   186   94  215 1    
   187   95   96 1    
   188   95   97 1    
   189   95  216 1    
   190   96  217 1    
   191   96  218 1    
   192   96  219 1    
   193   97   98 2    
   194   97   99 am   BACKBONE|DICT|INTERRES
   195   99  100 1    
   196   99  220 1    
   197  100  101 1    
   198  100  102 1    
   199  100  221 1    
   200  101  222 1    
   201  101  223 1    
   202  101  224 1    
   203  102  103 2    
   204  102  104 am   BACKBONE|DICT|INTERRES
   205  104  105 1    
   206  104  225 1    
   207  105  106 1    
   208  105  107 1    
   209  105  226 1    
   210  106  227 1    
   211  106  228 1    
   212  106  229 1    
   213  107  108 2    
   214  107  109 am   BACKBONE|DICT|INTERRES
   215  109  110 1    
   216  109  230 1    
   217  110  111 1    
   218  110  112 1    
   219  110  231 1    
   220  111  232 1    
   221  111  233 1    
   222  111  234 1    
   223  112  113 2    
   224  112  114 am   BACKBONE|DICT|INTERRES
   225  114  115 1    
   226  114  235 1    
   227  115  116 1    
   228  115  117 1    
   229  115  236 1    
   230  116  237 1    
   231  116  238 1    
   232  116  239 1    
   233  117  118 2    
   234  117  119 am   BACKBONE|DICT|INTERRES
   235  119  120 1    
   236  119  240 1    
   237  120  121 1    
   238  120  124 1    
   239  120  241 1    
   240  121  122 am   BACKBONE|DICT|INTERRES
   241  121  123 2    
   242  122  242 1    
   243  122  243 1    
   244  124  125 1    
   245  124  244 1    
   246  124  245 1    
   247  125  126 1    
   248  126  246 1    
   249  126  247 1    
@<TRIPOS>SUBSTRUCTURE
     1 UNK         1 GROUP             0       ****    0 ROOT    
