@<TRIPOS>MOLECULE
3R540
247   249    1
SMALL
USER_CHARGES


@<TRIPOS>ATOM
      1 CA          5.1948   -9.3517  -45.2316 C.3       0 UNK        -0.1800 
      2 C           4.5353  -10.6165  -45.7624 C.2       0 UNK         0.5000 
      3 O           3.5030  -11.0317  -45.2428 O.2       0 UNK        -0.5000 
      4 N           5.1245  -11.2282  -46.7987 N.am      1 UNK        -0.5000 
      5 CA          4.6691  -12.4725  -47.4309 C.3       1 UNK         0.1400 
      6 C6          3.2742  -12.3384  -48.1029 C.3       23 UNK        -0.0398 
      7 S7          3.0410  -13.5235  -49.4731 S.3       23 UNK        -0.2404 
      8 C8          1.6532  -14.5016  -48.8300 C.3       23 UNK        -0.0205 
      9 C9          1.3441  -15.6991  -49.7101 C.ar      23 UNK        -0.0193 
     10 C10         0.3533  -15.6165  -50.6902 C.ar      23 UNK        -0.1150 
     11 C11         0.0009  -16.7393  -51.4470 C.ar      23 UNK        -0.0193 
     12 C12         0.6807  -17.9449  -51.2372 C.ar      23 UNK        -0.1150 
     13 C13         1.6996  -18.0296  -50.2812 C.ar      23 UNK        -0.0193 
     14 C14         2.0218  -16.9045  -49.5183 C.ar      23 UNK        -0.1150 
     15 C15         2.4746  -19.3236  -50.0787 C.3       23 UNK        -0.0205 
     16 S16         1.9658  -20.1996  -48.5667 S.3       23 UNK        -0.2404 
     17 C17         0.3493  -20.8593  -49.0823 C.3       23 UNK        -0.0398 
     18 CA         -0.1690  -21.9704  -48.1399 C.3       11 UNK         0.1400 
     19 N          -0.4215  -21.4923  -46.7772 N.am      11 UNK        -0.5000 
     20 C          -0.7663  -22.2717  -45.7421 C.2       10 UNK         0.5000 
     21 O          -0.8587  -23.4969  -45.8057 O.2       10 UNK        -0.5000 
     22 CA         -1.1242  -21.5607  -44.4275 C.3       10 UNK         0.1400 
     23 CB          0.1368  -21.2126  -43.6217 C.3       10 UNK        -0.1800 
     24 N          -1.9166  -20.3551  -44.6655 N.am      10 UNK        -0.5000 
     25 C          -3.1935  -20.3623  -45.0729 C.2       9 UNK         0.5000 
     26 O          -3.8461  -21.3891  -45.2573 O.2       9 UNK        -0.5000 
     27 CA         -3.8406  -18.9944  -45.3551 C.3       9 UNK         0.1400 
     28 CB         -4.3783  -18.3711  -44.0586 C.3       9 UNK        -0.1800 
     29 N          -2.9270  -18.0528  -46.0024 N.am      9 UNK        -0.5000 
     30 C          -2.4280  -18.2128  -47.2359 C.2       8 UNK         0.5000 
     31 O          -2.6832  -19.1754  -47.9582 O.2       8 UNK        -0.5000 
     32 CA         -1.4433  -17.1342  -47.7220 C.3       8 UNK         0.1400 
     33 CB         -2.2180  -15.8847  -48.1691 C.3       8 UNK        -0.1800 
     34 N          -0.4369  -16.7336  -46.7328 N.am      8 UNK        -0.5000 
     35 C           0.3373  -17.5426  -45.9941 C.2       7 UNK         0.5000 
     36 O           0.2446  -18.7686  -46.0079 O.2       7 UNK        -0.5000 
     37 CA          1.3886  -16.8885  -45.0734 C.3       7 UNK         0.1400 
     38 CB          2.7984  -17.3821  -45.4278 C.3       7 UNK        -0.1800 
     39 N           1.3781  -15.4215  -45.0917 N.am      7 UNK        -0.5000 
     40 C           0.4686  -14.6646  -44.4677 C.2       6 UNK         0.5000 
     41 O          -0.4673  -15.1262  -43.8105 O.2       6 UNK        -0.5000 
     42 CA          0.6090  -13.1437  -44.6065 C.3       6 UNK         0.1400 
     43 CB         -0.3314  -12.6202  -45.7095 C.3       6 UNK        -0.1800 
     44 N           0.2885  -12.5602  -43.3075 N.am      6 UNK        -0.5000 
     45 C           0.4182  -11.2810  -42.9373 C.2       5 UNK         0.5000 
     46 O           0.7414  -10.3660  -43.6936 O.2       5 UNK        -0.5000 
     47 CA          0.1805  -10.9788  -41.4484 C.3       5 UNK         0.1400 
     48 CB         -0.9834  -11.7885  -40.8444 C.3       5 UNK        -0.1800 
     49 N           1.4080  -11.2763  -40.7149 N.am      5 UNK        -0.5000 
     50 C           2.3652  -10.3869  -40.4170 C.2       4 UNK         0.5000 
     51 O           2.2722   -9.1765  -40.6246 O.2       4 UNK        -0.5000 
     52 CA          3.6521  -10.9521  -39.7821 C.3       4 UNK         0.1400 
     53 CB          3.5202  -11.0096  -38.2523 C.3       4 UNK        -0.1800 
     54 N           3.9865  -12.2864  -40.2893 N.am      4 UNK        -0.5000 
     55 C           4.4668  -12.5219  -41.5173 C.2       3 UNK         0.5000 
     56 O           4.7760  -11.6316  -42.3128 O.2       3 UNK        -0.5000 
     57 CA          4.6103  -13.9968  -41.9233 C.3       3 UNK         0.1400 
     58 CB          3.2404  -14.7015  -41.9489 C.3       3 UNK        -0.1800 
     59 N           5.2344  -14.0680  -43.2414 N.am      3 UNK        -0.5000 
     60 C           5.8389  -15.1414  -43.7607 C.2       2 UNK         0.5000 
     61 O           5.9136  -16.2209  -43.1708 O.2       2 UNK        -0.5000 
     62 CA          6.5092  -14.9827  -45.1441 C.3       2 UNK         0.1400 
     63 CB          6.4874  -16.2857  -45.9710 C.3       2 UNK        -0.1800 
     64 N           6.0300  -13.8562  -45.9560 N.am      2 UNK        -0.5000 
     65 C           4.7997  -13.6687  -46.4590 C.2       1 UNK         0.5000 
     66 O           3.8220  -14.3636  -46.1762 O.2       1 UNK        -0.5000 
     67 C          -1.4165  -22.6481  -48.7391 C.2       11 UNK         0.5000 
     68 O          -1.3106  -23.7628  -49.2514 O.2       11 UNK        -0.5000 
     69 N          -2.5780  -21.9876  -48.6223 N.am      12 UNK        -0.5000 
     70 CA         -3.8735  -22.5088  -49.0557 C.3       12 UNK         0.1400 
     71 CB         -4.9474  -21.4240  -48.8939 C.3       12 UNK        -0.1800 
     72 C          -4.2772  -23.7896  -48.3055 C.2       12 UNK         0.5000 
     73 O          -4.7414  -24.7343  -48.9416 O.2       12 UNK        -0.5000 
     74 N          -4.0647  -23.8171  -46.9810 N.am      13 UNK        -0.5000 
     75 CA         -4.3212  -24.9780  -46.1269 C.3       13 UNK         0.1400 
     76 CB         -4.1697  -24.5880  -44.6493 C.3       13 UNK        -0.1800 
     77 C          -3.4257  -26.1816  -46.4694 C.2       13 UNK         0.5000 
     78 O          -3.9344  -27.2974  -46.5786 O.2       13 UNK        -0.5000 
     79 N          -2.1242  -25.9353  -46.6788 N.am      14 UNK        -0.5000 
     80 CA         -1.1398  -26.9415  -47.0894 C.3       14 UNK         0.1400 
     81 CB          0.2671  -26.3262  -47.0544 C.3       14 UNK        -0.1800 
     82 C          -1.4357  -27.5406  -48.4775 C.2       14 UNK         0.5000 
     83 O          -1.2339  -28.7377  -48.6828 O.2       14 UNK        -0.5000 
     84 N          -1.9475  -26.7038  -49.3878 N.am      15 UNK        -0.5000 
     85 CA         -2.4114  -27.0837  -50.7215 C.3       15 UNK         0.1400 
     86 CB         -2.3190  -25.8485  -51.6275 C.3       15 UNK        -0.1800 
     87 C          -3.8415  -27.6669  -50.7371 C.2       15 UNK         0.5000 
     88 O          -4.3367  -27.9968  -51.8153 O.2       15 UNK        -0.5000 
     89 N          -4.4983  -27.7568  -49.5690 N.am      16 UNK        -0.5000 
     90 CA         -5.8668  -28.2436  -49.3470 C.3       16 UNK         0.1400 
     91 CB         -5.9351  -29.7671  -49.5784 C.3       16 UNK        -0.1800 
     92 C          -6.9348  -27.4681  -50.1515 C.2       16 UNK         0.5000 
     93 O          -7.9367  -28.0491  -50.5718 O.2       16 UNK        -0.5000 
     94 N          -6.6752  -26.1716  -50.3749 N.am      17 UNK        -0.5000 
     95 CA         -7.4363  -25.2107  -51.1793 C.3       17 UNK         0.1400 
     96 CB         -8.8247  -24.9557  -50.5589 C.3       17 UNK        -0.1800 
     97 C          -7.5185  -25.5443  -52.6869 C.2       17 UNK         0.5000 
     98 O          -8.2684  -24.8817  -53.4056 O.2       17 UNK        -0.5000 
     99 N          -6.7397  -26.5290  -53.1617 N.am      18 UNK        -0.5000 
    100 CA        -6.6482  -26.9017  -54.5773 C.3       18 UNK         0.1400 
    101 CB        -6.1403  -28.3475  -54.6859 C.3       18 UNK        -0.1800 
    102 C         -5.7407  -25.9464  -55.3771 C.2       18 UNK         0.5000 
    103 O         -5.8350  -25.8965  -56.6041 O.2       18 UNK        -0.5000 
    104 N         -4.8900  -25.2025  -54.6656 N.am      19 UNK        -0.5000 
    105 CA        -4.0020  -24.1620  -55.1596 C.3       19 UNK         0.1400 
    106 CB        -2.7011  -24.7945  -55.6880 C.3       19 UNK        -0.1800 
    107 C         -3.7339  -23.1901  -53.9999 C.2       19 UNK         0.5000 
    108 O         -4.1521  -23.4557  -52.8697 O.2       19 UNK        -0.5000 
    109 N         -3.0510  -22.0779  -54.3029 N.am      20 UNK        -0.5000 
    110 CA        -2.5609  -21.0516  -53.3691 C.3       20 UNK         0.1400 
    111 CB        -1.4913  -21.6430  -52.4299 C.3       20 UNK        -0.1800 
    112 C         -3.6485  -20.2844  -52.5842 C.2       20 UNK         0.5000 
    113 O         -3.3130  -19.5085  -51.6894 O.2       20 UNK        -0.5000 
    114 N         -4.9242  -20.4630  -52.9499 N.am      21 UNK        -0.5000 
    115 CA        -6.0901  -19.8026  -52.3624 C.3       21 UNK         0.1400 
    116 CB        -7.3263  -20.6892  -52.5986 C.3       21 UNK        -0.1800 
    117 C         -6.2570  -18.3689  -52.9085 C.2       21 UNK         0.5000 
    118 O         -7.2863  -18.0385  -53.4999 O.2       21 UNK        -0.5000 
    119 N         -5.2137  -17.5536  -52.7260 N.am      22 UNK        -0.5000 
    120 CA        -5.1141  -16.1607  -53.1849 C.3       22 UNK         0.1400 
    121 C         -5.9210  -15.1243  -52.3461 C.2       22 UNK         0.5000 
    122 N         -6.4904  -15.4871  -51.2029 N.am      22 UNK        -0.7600 
    123 O         -6.0473  -13.9716  -52.7508 O.2       22 UNK        -0.5000 
    124 C124       -3.6335  -15.7377  -53.3734 C.3       23 UNK        -0.0398 
    125 S125       -2.6253  -15.8968  -51.8568 S.3       23 UNK        -0.2404 
    126 C126       -1.0924  -16.6410  -52.5061 C.3       23 UNK        -0.0205 
    127 H127        4.5072   -8.5096  -45.3098 H         1 UNK         0.0600 
    128 H128        5.4579   -9.4812  -44.1816 H         1 UNK         0.0600 
    129 H129        6.1024   -9.1040  -45.7826 H         1 UNK         0.0600 
    130 H130        5.9688  -10.8289  -47.1853 H         1 UNK         0.3000 
    131 H131        5.3930  -12.6578  -48.2263 H         1 UNK         0.0600 
    132 H132        2.4686  -12.4205  -47.3716 H         1 UNK         0.0800 
    133 H133        3.1720  -11.3427  -48.5363 H         1 UNK         0.0800 
    134 H134        0.7742  -13.8615  -48.7465 H         1 UNK         0.0800 
    135 H135        1.8826  -14.8482  -47.8236 H         1 UNK         0.0800 
    136 H136       -0.1646  -14.6808  -50.8475 H         1 UNK         0.1150 
    137 H137        0.4258  -18.8144  -51.8261 H         1 UNK         0.1150 
    138 H138        2.7989  -16.9696  -48.7704 H         1 UNK         0.1150 
    139 H139        2.3675  -19.9811  -50.9428 H         1 UNK         0.0800 
    140 H140        3.5385  -19.0935  -50.0058 H         1 UNK         0.0800 
    141 H141        0.4660  -21.2554  -50.0919 H         1 UNK         0.0800 
    142 H142       -0.3633  -20.0356  -49.1486 H         1 UNK         0.0800 
    143 H143        0.6052  -22.7377  -48.0703 H         1 UNK         0.0600 
    144 H144       -0.3152  -20.4934  -46.6182 H         1 UNK         0.3000 
    145 H145       -1.7240  -22.2484  -43.8278 H         1 UNK         0.0600 
    146 H146        0.8021  -20.5452  -44.1694 H         1 UNK         0.0600 
    147 H147       -0.1187  -20.7315  -42.6775 H         1 UNK         0.0600 
    148 H148        0.7041  -22.1134  -43.3844 H         1 UNK         0.0600 
    149 H149       -1.4191  -19.4759  -44.6394 H         1 UNK         0.3000 
    150 H150       -4.6840  -19.1610  -46.0287 H         1 UNK         0.0600 
    151 H151       -5.0758  -19.0465  -43.5612 H         1 UNK         0.0600 
    152 H152       -4.9139  -17.4431  -44.2598 H         1 UNK         0.0600 
    153 H153       -3.5757  -18.1500  -43.3539 H         1 UNK         0.0600 
    154 H154       -2.6458  -17.2433  -45.4685 H         1 UNK         0.3000 
    155 H155       -0.9113  -17.5410  -48.5836 H         1 UNK         0.0600 
    156 H156       -1.5613  -15.1537  -48.6387 H         1 UNK         0.0600 
    157 H157       -2.7141  -15.3954  -47.3301 H         1 UNK         0.0600 
    158 H158       -2.9878  -16.1435  -48.8969 H         1 UNK         0.0600 
    159 H159       -0.2892  -15.7427  -46.6289 H         1 UNK         0.3000 
    160 H160        1.1675  -17.2216  -44.0573 H         1 UNK         0.0600 
    161 H161        3.0889  -17.0719  -46.4311 H         1 UNK         0.0600 
    162 H162        2.8598  -18.4706  -45.3902 H         1 UNK         0.0600 
    163 H163        3.5362  -16.9926  -44.7269 H         1 UNK         0.0600 
    164 H164        2.1675  -14.9796  -45.5609 H         1 UNK         0.3000 
    165 H165        1.6435  -12.9015  -44.8557 H         1 UNK         0.0600 
    166 H166       -1.3794  -12.7716  -45.4480 H         1 UNK         0.0600 
    167 H167       -0.1813  -11.5566  -45.8929 H         1 UNK         0.0600 
    168 H168       -0.1518  -13.1333  -46.6538 H         1 UNK         0.0600 
    169 H169       -0.0282  -13.2404  -42.6285 H         1 UNK         0.3000 
    170 H170       -0.0699   -9.9194  -41.3592 H         1 UNK         0.0600 
    171 H171       -1.8959  -11.6553  -41.4271 H         1 UNK         0.0600 
    172 H172       -0.7701  -12.8569  -40.7994 H         1 UNK         0.0600 
    173 H173       -1.1986  -11.4555  -39.8289 H         1 UNK         0.0600 
    174 H174        1.5907  -12.2489  -40.5202 H         1 UNK         0.3000 
    175 H175        4.4710  -10.2717  -40.0264 H         1 UNK         0.0600 
    176 H176        4.4481  -11.3454  -37.7889 H         1 UNK         0.0600 
    177 H177        3.2922  -10.0242  -37.8436 H         1 UNK         0.0600 
    178 H178        2.7239  -11.6864  -37.9401 H         1 UNK         0.0600 
    179 H179        3.7871  -13.0656  -39.6785 H         1 UNK         0.3000 
    180 H180        5.2614  -14.4848  -41.1952 H         1 UNK         0.0600 
    181 H181        2.5470  -14.1722  -42.5984 H         1 UNK         0.0600 
    182 H182        2.7943  -14.7443  -40.9551 H         1 UNK         0.0600 
    183 H183        3.3175  -15.7276  -42.3085 H         1 UNK         0.0600 
    184 H184        5.2317  -13.1933  -43.7520 H         1 UNK         0.3000 
    185 H185        7.5550  -14.7620  -44.9265 H         1 UNK         0.0600 
    186 H186        7.0464  -16.1700  -46.8996 H         1 UNK         0.0600 
    187 H187        6.9430  -17.1120  -45.4243 H         1 UNK         0.0600 
    188 H188        5.4729  -16.5847  -46.2302 H         1 UNK         0.0600 
    189 H189        6.7412  -13.1852  -46.2106 H         1 UNK         0.3000 
    190 H190       -2.5783  -21.0501  -48.2270 H         1 UNK         0.3000 
    191 H191       -3.7948  -22.7530  -50.1172 H         1 UNK         0.0600 
    192 H192       -4.6746  -20.5204  -49.4381 H         1 UNK         0.0600 
    193 H193       -5.9081  -21.7642  -49.2824 H         1 UNK         0.0600 
    194 H194       -5.0893  -21.1496  -47.8480 H         1 UNK         0.0600 
    195 H195       -3.7227  -22.9810  -46.5187 H         1 UNK         0.3000 
    196 H196       -5.3573  -25.2830  -46.2883 H         1 UNK         0.0600 
    197 H197       -4.3625  -25.4412  -43.9978 H         1 UNK         0.0600 
    198 H198       -4.8763  -23.8047  -44.3748 H         1 UNK         0.0600 
    199 H199       -3.1657  -24.2259  -44.4283 H         1 UNK         0.0600 
    200 H200       -1.7716  -24.9924  -46.5313 H         1 UNK         0.3000 
    201 H201       -1.1738  -27.7565  -46.3635 H         1 UNK         0.0600 
    202 H202        0.5205  -25.9803  -46.0521 H         1 UNK         0.0600 
    203 H203        0.3506  -25.4758  -47.7320 H         1 UNK         0.0600 
    204 H204        1.0222  -27.0569  -47.3471 H         1 UNK         0.0600 
    205 H205       -2.0265  -25.7201  -49.1505 H         1 UNK         0.3000 
    206 H206       -1.7477  -27.8507  -51.1254 H         1 UNK         0.0600 
    207 H207       -1.2935  -25.4863  -51.7014 H         1 UNK         0.0600 
    208 H208       -2.6606  -26.0686  -52.6389 H         1 UNK         0.0600 
    209 H209       -2.9305  -25.0343  -51.2389 H         1 UNK         0.0600 
    210 H210       -4.0235  -27.4307  -48.7361 H         1 UNK         0.3000 
    211 H211       -6.0884  -28.0578  -48.2954 H         1 UNK         0.0600 
    212 H212       -5.7778  -30.0240  -50.6265 H         1 UNK         0.0600 
    213 H213       -6.9070  -30.1657  -49.2854 H         1 UNK         0.0600 
    214 H214       -5.1813  -30.2885  -48.9883 H         1 UNK         0.0600 
    215 H215       -5.8373  -25.7848  -49.9411 H         1 UNK         0.3000 
    216 H216       -6.8758  -24.2764  -51.1184 H         1 UNK         0.0600 
    217 H217       -8.7422  -24.6940  -49.5040 H         1 UNK         0.0600 
    218 H218       -9.4715  -25.8295  -50.6396 H         1 UNK         0.0600 
    219 H219       -9.3311  -24.1283  -51.0572 H         1 UNK         0.0600 
    220 H220       -6.1315  -27.0298  -52.5233 H         1 UNK         0.3000 
    221 H221       -7.6463  -26.8603  -55.0184 H         1 UNK         0.0600 
    222 H222       -5.1171  -28.4441  -54.3219 H         1 UNK         0.0600 
    223 H223       -6.7669  -29.0316  -54.1133 H         1 UNK         0.0600 
    224 H224       -6.1504  -28.6861  -55.7226 H         1 UNK         0.0600 
    225 H225       -4.9210  -25.2589  -53.6550 H         1 UNK         0.3000 
    226 H226       -4.4995  -23.6109  -55.9601 H         1 UNK         0.0600 
    227 H227       -2.9041  -25.5035  -56.4908 H         1 UNK         0.0600 
    228 H228       -2.0279  -24.0376  -56.0915 H         1 UNK         0.0600 
    229 H229       -2.1638  -25.3262  -54.9023 H         1 UNK         0.0600 
    230 H230       -2.7839  -21.9359  -55.2674 H         1 UNK         0.3000 
    231 H231       -2.0678  -20.2995  -53.9867 H         1 UNK         0.0600 
    232 H232       -1.0451  -20.8637  -51.8129 H         1 UNK         0.0600 
    233 H233       -0.6847  -22.1116  -52.9934 H         1 UNK         0.0600 
    234 H234       -1.9107  -22.3929  -51.7593 H         1 UNK         0.0600 
    235 H235       -5.1081  -21.1040  -53.7065 H         1 UNK         0.3000 
    236 H236       -5.9459  -19.7192  -51.2840 H         1 UNK         0.0600 
    237 H237       -8.2147  -20.2526  -52.1406 H         1 UNK         0.0600 
    238 H238       -7.5328  -20.8194  -53.6616 H         1 UNK         0.0600 
    239 H239       -7.1899  -21.6787  -52.1611 H         1 UNK         0.0600 
    240 H240       -4.4057  -17.9185  -52.2301 H         1 UNK         0.3000 
    241 H241       -5.5697  -16.1261  -54.1764 H         1 UNK         0.0600 
    242 H242       -6.3901  -16.4279  -50.8590 H         1 UNK         0.3800 
    243 H243       -7.0161  -14.8103  -50.6726 H         1 UNK         0.3800 
    244 H244       -3.1891  -16.3495  -54.1595 H         1 UNK         0.0800 
    245 H245       -3.5653  -14.7091  -53.7314 H         1 UNK         0.0800 
    246 H246       -1.3268  -17.6276  -52.9092 H         1 UNK         0.0800 
    247 H247       -0.7210  -16.0387  -53.3361 H         1 UNK         0.0800 
@<TRIPOS>BOND
     1    1    2 1    
     2    1  127 1    
     3    1  128 1    
     4    1  129 1    
     5    2    3 2    
     6    2    4 am   BACKBONE|DICT|INTERRES
     7    4    5 1    
     8    4  130 1    
     9    5    6 1    
    10    5   65 1    
    11    5  131 1    
    12    6    7 1    
    13    6  132 1    
    14    6  133 1    
    15    7    8 1    
    16    8    9 1    
    17    8  134 1    
    18    8  135 1    
    19    9   10 ar   
    20    9   14 ar   
    21   10   11 ar   
    22   10  136 1    
    23   11   12 ar   
    24   11  126 1    
    25   12   13 ar   
    26   12  137 1    
    27   13   14 ar   
    28   13   15 1    
    29   14  138 1    
    30   15   16 1    
    31   15  139 1    
    32   15  140 1    
    33   16   17 1    
    34   17   18 1    
    35   17  141 1    
    36   17  142 1    
    37   18   19 1    
    38   18   67 1    
    39   18  143 1    
    40   19   20 am   BACKBONE|DICT|INTERRES
    41   19  144 1    
    42   20   21 2    
    43   20   22 1    
    44   22   23 1    
    45   22   24 1    
    46   22  145 1    
    47   23  146 1    
    48   23  147 1    
    49   23  148 1    
    50   24   25 am   BACKBONE|DICT|INTERRES
    51   24  149 1    
    52   25   26 2    
    53   25   27 1    
    54   27   28 1    
    55   27   29 1    
    56   27  150 1    
    57   28  151 1    
    58   28  152 1    
    59   28  153 1    
    60   29   30 am   BACKBONE|DICT|INTERRES
    61   29  154 1    
    62   30   31 2    
    63   30   32 1    
    64   32   33 1    
    65   32   34 1    
    66   32  155 1    
    67   33  156 1    
    68   33  157 1    
    69   33  158 1    
    70   34   35 am   BACKBONE|DICT|INTERRES
    71   34  159 1    
    72   35   36 2    
    73   35   37 1    
    74   37   38 1    
    75   37   39 1    
    76   37  160 1    
    77   38  161 1    
    78   38  162 1    
    79   38  163 1    
    80   39   40 am   BACKBONE|DICT|INTERRES
    81   39  164 1    
    82   40   41 2    
    83   40   42 1    
    84   42   43 1    
    85   42   44 1    
    86   42  165 1    
    87   43  166 1    
    88   43  167 1    
    89   43  168 1    
    90   44   45 am   BACKBONE|DICT|INTERRES
    91   44  169 1    
    92   45   46 2    
    93   45   47 1    
    94   47   48 1    
    95   47   49 1    
    96   47  170 1    
    97   48  171 1    
    98   48  172 1    
    99   48  173 1    
   100   49   50 am   BACKBONE|DICT|INTERRES
   101   49  174 1    
   102   50   51 2    
   103   50   52 1    
   104   52   53 1    
   105   52   54 1    
   106   52  175 1    
   107   53  176 1    
   108   53  177 1    
   109   53  178 1    
   110   54   55 am   BACKBONE|DICT|INTERRES
   111   54  179 1    
   112   55   56 2    
   113   55   57 1    
   114   57   58 1    
   115   57   59 1    
   116   57  180 1    
   117   58  181 1    
   118   58  182 1    
   119   58  183 1    
   120   59   60 am   BACKBONE|DICT|INTERRES
   121   59  184 1    
   122   60   61 2    
   123   60   62 1    
   124   62   63 1    
   125   62   64 1    
   126   62  185 1    
   127   63  186 1    
   128   63  187 1    
   129   63  188 1    
   130   64   65 am   BACKBONE|DICT|INTERRES
   131   64  189 1    
   132   65   66 2    
   133   67   68 2    
   134   67   69 am   BACKBONE|DICT|INTERRES
   135   69   70 1    
   136   69  190 1    
   137   70   71 1    
   138   70   72 1    
   139   70  191 1    
   140   71  192 1    
   141   71  193 1    
   142   71  194 1    
   143   72   73 2    
   144   72   74 am   BACKBONE|DICT|INTERRES
   145   74   75 1    
   146   74  195 1    
   147   75   76 1    
   148   75   77 1    
   149   75  196 1    
   150   76  197 1    
   151   76  198 1    
   152   76  199 1    
   153   77   78 2    
   154   77   79 am   BACKBONE|DICT|INTERRES
   155   79   80 1    
   156   79  200 1    
   157   80   81 1    
   158   80   82 1    
   159   80  201 1    
   160   81  202 1    
   161   81  203 1    
   162   81  204 1    
   163   82   83 2    
   164   82   84 am   BACKBONE|DICT|INTERRES
   165   84   85 1    
   166   84  205 1    
   167   85   86 1    
   168   85   87 1    
   169   85  206 1    
   170   86  207 1    
   171   86  208 1    
   172   86  209 1    
   173   87   88 2    
   174   87   89 am   BACKBONE|DICT|INTERRES
   175   89   90 1    
   176   89  210 1    
   177   90   91 1    
   178   90   92 1    
   179   90  211 1    
   180   91  212 1    
   181   91  213 1    
   182   91  214 1    
   183   92   93 2    
   184   92   94 am   BACKBONE|DICT|INTERRES
   185   94   95 1    
   186   94  215 1    
   187   95   96 1    
   188   95   97 1    
   189   95  216 1    
   190   96  217 1    
   191   96  218 1    
   192   96  219 1    
   193   97   98 2    
   194   97   99 am   BACKBONE|DICT|INTERRES
   195   99  100 1    
   196   99  220 1    
   197  100  101 1    
   198  100  102 1    
   199  100  221 1    
   200  101  222 1    
   201  101  223 1    
   202  101  224 1    
   203  102  103 2    
   204  102  104 am   BACKBONE|DICT|INTERRES
   205  104  105 1    
   206  104  225 1    
   207  105  106 1    
   208  105  107 1    
   209  105  226 1    
   210  106  227 1    
   211  106  228 1    
   212  106  229 1    
   213  107  108 2    
   214  107  109 am   BACKBONE|DICT|INTERRES
   215  109  110 1    
   216  109  230 1    
   217  110  111 1    
   218  110  112 1    
   219  110  231 1    
   220  111  232 1    
   221  111  233 1    
   222  111  234 1    
   223  112  113 2    
   224  112  114 am   BACKBONE|DICT|INTERRES
   225  114  115 1    
   226  114  235 1    
   227  115  116 1    
   228  115  117 1    
   229  115  236 1    
   230  116  237 1    
   231  116  238 1    
   232  116  239 1    
   233  117  118 2    
   234  117  119 am   BACKBONE|DICT|INTERRES
   235  119  120 1    
   236  119  240 1    
   237  120  121 1    
   238  120  124 1    
   239  120  241 1    
   240  121  122 am   BACKBONE|DICT|INTERRES
   241  121  123 2    
   242  122  242 1    
   243  122  243 1    
   244  124  125 1    
   245  124  244 1    
   246  124  245 1    
   247  125  126 1    
   248  126  246 1    
   249  126  247 1    
@<TRIPOS>SUBSTRUCTURE
     1 UNK         1 GROUP             0       ****    0 ROOT    
