@<TRIPOS>MOLECULE
3R540
247   249    1
SMALL
USER_CHARGES


@<TRIPOS>ATOM
      1 CA         -0.3185  -10.7634  -50.4653 C.3       0 UNK        -0.1800 
      2 C          -0.9487  -11.0586  -49.1116 C.2       0 UNK         0.5000 
      3 O          -1.3515  -10.1323  -48.4084 O.2       0 UNK        -0.5000 
      4 N          -1.0368  -12.3460  -48.7538 N.am      1 UNK        -0.5000 
      5 CA         -1.6201  -12.8615  -47.5092 C.3       1 UNK         0.1400 
      6 C6         -3.1609  -12.6409  -47.4231 C.3       23 UNK        -0.0398 
      7 S7         -4.0367  -14.1325  -46.8327 S.3       23 UNK        -0.2404 
      8 C8         -4.7268  -14.8403  -48.3787 C.3       23 UNK        -0.0205 
      9 C9         -3.6911  -15.0624  -49.4791 C.ar      23 UNK        -0.0193 
     10 C10        -3.9740  -14.6870  -50.7968 C.ar      23 UNK        -0.1150 
     11 C11        -3.0020  -14.8056  -51.7960 C.ar      23 UNK        -0.0193 
     12 C12        -1.7237  -15.2538  -51.4545 C.ar      23 UNK        -0.1150 
     13 C13        -1.4440  -15.6940  -50.1597 C.ar      23 UNK        -0.0193 
     14 C14        -2.4463  -15.6261  -49.1875 C.ar      23 UNK        -0.1150 
     15 C15        -0.0430  -16.1884  -49.8186 C.3       23 UNK        -0.0205 
     16 S16        -0.0251  -17.6327  -48.7132 S.3       23 UNK        -0.2404 
     17 C17        -0.6177  -18.9566  -49.8166 C.3       23 UNK        -0.0398 
     18 CA         -1.4777  -20.0335  -49.1141 C.3       11 UNK         0.1400 
     19 N          -0.7761  -20.6648  -47.9894 N.am      11 UNK        -0.5000 
     20 C          -1.0574  -21.8956  -47.5398 C.2       10 UNK         0.5000 
     21 O          -2.0775  -22.5103  -47.8443 O.2       10 UNK        -0.5000 
     22 CA         -0.0204  -22.5566  -46.6185 C.3       10 UNK         0.1400 
     23 CB          1.3526  -22.6613  -47.3043 C.3       10 UNK        -0.1800 
     24 N           0.1052  -21.7904  -45.3855 N.am      10 UNK        -0.5000 
     25 C          -0.3541  -22.1874  -44.1910 C.2       9 UNK         0.5000 
     26 O          -0.7564  -23.3273  -43.9575 O.2       9 UNK        -0.5000 
     27 CA         -0.3983  -21.1372  -43.0591 C.3       9 UNK         0.1400 
     28 CB          0.7393  -21.3781  -42.0552 C.3       9 UNK        -0.1800 
     29 N          -0.3361  -19.7475  -43.5188 N.am      9 UNK        -0.5000 
     30 C          -1.2090  -19.1583  -44.3488 C.2       8 UNK         0.5000 
     31 O          -2.2039  -19.7211  -44.8043 O.2       8 UNK        -0.5000 
     32 CA         -0.8700  -17.7312  -44.8208 C.3       8 UNK         0.1400 
     33 CB         -1.5717  -16.6872  -43.9402 C.3       8 UNK        -0.1800 
     34 N           0.5639  -17.4339  -44.8528 N.am      8 UNK        -0.5000 
     35 C           1.5061  -18.1201  -45.5183 C.2       7 UNK         0.5000 
     36 O           1.2920  -19.1561  -46.1526 O.2       7 UNK        -0.5000 
     37 CA          2.9349  -17.5630  -45.4054 C.3       7 UNK         0.1400 
     38 CB          3.1567  -16.4434  -46.4339 C.3       7 UNK        -0.1800 
     39 N           3.2153  -17.0533  -44.0599 N.am      7 UNK        -0.5000 
     40 C           3.3650  -17.8348  -42.9786 C.2       6 UNK         0.5000 
     41 O           3.2880  -19.0631  -43.0231 O.2       6 UNK        -0.5000 
     42 CA          3.6022  -17.1394  -41.6211 C.3       6 UNK         0.1400 
     43 CB          4.4539  -17.9878  -40.6539 C.3       6 UNK        -0.1800 
     44 N           4.1314  -15.7777  -41.7376 N.am      6 UNK        -0.5000 
     45 C           5.3200  -15.3897  -42.2273 C.2       5 UNK         0.5000 
     46 O           6.1869  -16.1713  -42.6195 O.2       5 UNK        -0.5000 
     47 CA          5.5783  -13.8714  -42.3245 C.3       5 UNK         0.1400 
     48 CB          5.8635  -13.4659  -43.7804 C.3       5 UNK        -0.1800 
     49 N           4.4425  -13.0860  -41.8350 N.am      5 UNK        -0.5000 
     50 C           4.2996  -12.6352  -40.5806 C.2       4 UNK         0.5000 
     51 O           5.1582  -12.7609  -39.7072 O.2       4 UNK        -0.5000 
     52 CA          2.9604  -11.9512  -40.2330 C.3       4 UNK         0.1400 
     53 CB          3.0879  -10.4260  -40.3641 C.3       4 UNK        -0.1800 
     54 N           1.8396  -12.4074  -41.0607 N.am      4 UNK        -0.5000 
     55 C           1.3255  -13.6461  -41.0487 C.2       3 UNK         0.5000 
     56 O           1.7157  -14.5383  -40.2971 O.2       3 UNK        -0.5000 
     57 CA          0.2499  -13.9645  -42.1051 C.3       3 UNK         0.1400 
     58 CB         -1.1581  -13.7175  -41.5458 C.3       3 UNK        -0.1800 
     59 N           0.4197  -13.2034  -43.3453 N.am      3 UNK        -0.5000 
     60 C           1.4768  -13.2896  -44.1609 C.2       2 UNK         0.5000 
     61 O           2.3944  -14.0968  -43.9906 O.2       2 UNK        -0.5000 
     62 CA          1.5083  -12.2954  -45.3396 C.3       2 UNK         0.1400 
     63 CB          2.8925  -12.2223  -46.0069 C.3       2 UNK        -0.1800 
     64 N           0.5134  -12.6142  -46.3608 N.am      2 UNK        -0.5000 
     65 C          -0.8120  -12.4343  -46.2643 C.2       1 UNK         0.5000 
     66 O          -1.3663  -11.9596  -45.2706 O.2       1 UNK        -0.5000 
     67 C          -2.9074  -19.5378  -48.8042 C.2       11 UNK         0.5000 
     68 O          -3.7030  -19.4313  -49.7381 O.2       11 UNK        -0.5000 
     69 N          -3.2313  -19.2703  -47.5311 N.am      12 UNK        -0.5000 
     70 CA         -4.5787  -18.8754  -47.1047 C.3       12 UNK         0.1400 
     71 CB         -4.4861  -17.7658  -46.0476 C.3       12 UNK        -0.1800 
     72 C          -5.3669  -20.0735  -46.5486 C.2       12 UNK         0.5000 
     73 O          -6.5920  -20.1008  -46.6715 O.2       12 UNK        -0.5000 
     74 N          -4.6601  -21.0452  -45.9549 N.am      13 UNK        -0.5000 
     75 CA         -5.1919  -22.2717  -45.3589 C.3       13 UNK         0.1400 
     76 CB         -4.1103  -22.8714  -44.4462 C.3       13 UNK        -0.1800 
     77 C          -5.6667  -23.2704  -46.4337 C.2       13 UNK         0.5000 
     78 O          -4.9953  -24.2702  -46.6988 O.2       13 UNK        -0.5000 
     79 N          -6.7913  -22.9359  -47.0841 N.am      14 UNK        -0.5000 
     80 CA         -7.4187  -23.6394  -48.2129 C.3       14 UNK         0.1400 
     81 CB         -7.9662  -25.0096  -47.7620 C.3       14 UNK        -0.1800 
     82 C          -6.4935  -23.7554  -49.4440 C.2       14 UNK         0.5000 
     83 O          -6.6458  -24.6782  -50.2480 O.2       14 UNK        -0.5000 
     84 N          -5.5120  -22.8437  -49.5360 N.am      15 UNK        -0.5000 
     85 CA         -4.4081  -22.8274  -50.4970 C.3       15 UNK         0.1400 
     86 CB         -4.9303  -22.4216  -51.8885 C.3       15 UNK        -0.1800 
     87 C          -3.5951  -24.1392  -50.5072 C.2       15 UNK         0.5000 
     88 O          -3.1515  -24.5703  -51.5699 O.2       15 UNK        -0.5000 
     89 N          -3.4615  -24.7812  -49.3357 N.am      16 UNK        -0.5000 
     90 CA         -2.8474  -26.0948  -49.1186 C.3       16 UNK         0.1400 
     91 CB         -1.3234  -26.0235  -49.3522 C.3       16 UNK        -0.1800 
     92 C          -3.5376  -27.2033  -49.9448 C.2       16 UNK         0.5000 
     93 O          -2.8626  -28.0368  -50.5488 O.2       16 UNK        -0.5000 
     94 N          -4.8783  -27.1520  -49.9915 N.am      17 UNK        -0.5000 
     95 CA         -5.7685  -27.9529  -50.8407 C.3       17 UNK         0.1400 
     96 CB         -5.6954  -29.4520  -50.4816 C.3       17 UNK        -0.1800 
     97 C          -5.5368  -27.6632  -52.3395 C.2       17 UNK         0.5000 
     98 O          -5.4277  -28.5864  -53.1477 O.2       17 UNK        -0.5000 
     99 N          -5.4434  -26.3647  -52.6616 N.am      18 UNK        -0.5000 
    100 CA        -5.1906  -25.7653  -53.9791 C.3       18 UNK         0.1400 
    101 CB        -6.3193  -26.1158  -54.9701 C.3       18 UNK        -0.1800 
    102 C         -3.7879  -26.0328  -54.5715 C.2       18 UNK         0.5000 
    103 O         -3.5502  -25.6815  -55.7283 O.2       18 UNK        -0.5000 
    104 N         -2.8698  -26.6116  -53.7858 N.am      19 UNK        -0.5000 
    105 CA        -1.4818  -26.8632  -54.1796 C.3       19 UNK         0.1400 
    106 CB        -0.8900  -27.9493  -53.2696 C.3       19 UNK        -0.1800 
    107 C         -0.6040  -25.5968  -54.1371 C.2       19 UNK         0.5000 
    108 O          0.3956  -25.5322  -54.8535 O.2       19 UNK        -0.5000 
    109 N         -0.9851  -24.6218  -53.3043 N.am      20 UNK        -0.5000 
    110 CA        -0.2887  -23.3606  -53.0747 C.3       20 UNK         0.1400 
    111 CB         0.2748  -23.3534  -51.6397 C.3       20 UNK        -0.1800 
    112 C         -1.2500  -22.1890  -53.3358 C.2       20 UNK         0.5000 
    113 O         -1.3794  -21.3020  -52.4895 O.2       20 UNK        -0.5000 
    114 N         -1.9142  -22.2105  -54.5016 N.am      21 UNK        -0.5000 
    115 CA        -2.8411  -21.1892  -55.0053 C.3       21 UNK         0.1400 
    116 CB        -3.3895  -21.6502  -56.3659 C.3       21 UNK        -0.1800 
    117 C         -2.1865  -19.7952  -55.0881 C.2       21 UNK         0.5000 
    118 O         -1.4989  -19.4936  -56.0656 O.2       21 UNK        -0.5000 
    119 N         -2.3680  -19.0085  -54.0200 N.am      22 UNK        -0.5000 
    120 CA        -1.6453  -17.7617  -53.7225 C.3       22 UNK         0.1400 
    121 C         -0.1013  -17.9402  -53.5628 C.2       22 UNK         0.5000 
    122 N          0.3759  -19.1054  -53.1426 N.am      22 UNK        -0.7600 
    123 O          0.6736  -17.0140  -53.7837 O.2       22 UNK        -0.5000 
    124 C124       -2.0509  -16.5687  -54.6373 C.3       23 UNK        -0.0398 
    125 S125       -3.7151  -15.9217  -54.2455 S.3       23 UNK        -0.2404 
    126 C126       -3.3275  -14.4438  -53.2396 C.3       23 UNK        -0.0205 
    127 H127       -1.0203  -10.2151  -51.0939 H         1 UNK         0.0600 
    128 H128       -0.0361  -11.6767  -50.9898 H         1 UNK         0.0600 
    129 H129        0.5758  -10.1534  -50.3379 H         1 UNK         0.0600 
    130 H130       -0.7063  -13.0504  -49.3976 H         1 UNK         0.3000 
    131 H131       -1.4296  -13.9303  -47.5519 H         1 UNK         0.0600 
    132 H132       -3.4180  -11.7934  -46.7862 H         1 UNK         0.0800 
    133 H133       -3.5656  -12.3863  -48.4035 H         1 UNK         0.0800 
    134 H134       -5.2044  -15.7934  -48.1514 H         1 UNK         0.0800 
    135 H135       -5.5180  -14.1773  -48.7321 H         1 UNK         0.0800 
    136 H136       -4.9503  -14.2954  -51.0454 H         1 UNK         0.1150 
    137 H137       -0.9521  -15.2924  -52.2097 H         1 UNK         0.1150 
    138 H138       -2.2394  -15.9584  -48.1805 H         1 UNK         0.1150 
    139 H139        0.5138  -16.4354  -50.7243 H         1 UNK         0.0800 
    140 H140        0.5008  -15.3774  -49.3336 H         1 UNK         0.0800 
    141 H141        0.2592  -19.4300  -50.2598 H         1 UNK         0.0800 
    142 H142       -1.1687  -18.5220  -50.6511 H         1 UNK         0.0800 
    143 H143       -1.6153  -20.8208  -49.8584 H         1 UNK         0.0600 
    144 H144        0.0481  -20.1819  -47.6499 H         1 UNK         0.3000 
    145 H145       -0.3672  -23.5718  -46.4138 H         1 UNK         0.0600 
    146 H146        2.0539  -23.2221  -46.6864 H         1 UNK         0.0600 
    147 H147        1.2732  -23.1814  -48.2601 H         1 UNK         0.0600 
    148 H148        1.7920  -21.6817  -47.4964 H         1 UNK         0.0600 
    149 H149        0.4361  -20.8359  -45.4853 H         1 UNK         0.3000 
    150 H150       -1.3493  -21.2663  -42.5385 H         1 UNK         0.0600 
    151 H151        0.6883  -22.3858  -41.6408 H         1 UNK         0.0600 
    152 H152        0.6858  -20.6807  -41.2191 H         1 UNK         0.0600 
    153 H153        1.7173  -21.2666  -42.5248 H         1 UNK         0.0600 
    154 H154        0.4805  -19.2236  -43.2401 H         1 UNK         0.3000 
    155 H155       -1.2451  -17.6273  -45.8405 H         1 UNK         0.0600 
    156 H156       -2.6497  -16.8444  -43.9198 H         1 UNK         0.0600 
    157 H157       -1.4023  -15.6765  -44.3130 H         1 UNK         0.0600 
    158 H158       -1.2215  -16.7339  -42.9088 H         1 UNK         0.0600 
    159 H159        0.8607  -16.6063  -44.3579 H         1 UNK         0.3000 
    160 H160        3.6331  -18.3739  -45.6229 H         1 UNK         0.0600 
    161 H161        2.4603  -15.6170  -46.2891 H         1 UNK         0.0600 
    162 H162        3.0134  -16.8154  -47.4493 H         1 UNK         0.0600 
    163 H163        4.1690  -16.0437  -46.3718 H         1 UNK         0.0600 
    164 H164        3.2510  -16.0459  -43.9490 H         1 UNK         0.3000 
    165 H165        2.6141  -17.0343  -41.1716 H         1 UNK         0.0600 
    166 H166        5.4361  -18.2147  -41.0689 H         1 UNK         0.0600 
    167 H167        4.6003  -17.4741  -39.7037 H         1 UNK         0.0600 
    168 H168        3.9665  -18.9385  -40.4344 H         1 UNK         0.0600 
    169 H169        3.4982  -15.0538  -41.4230 H         1 UNK         0.3000 
    170 H170        6.4668  -13.6495  -41.7300 H         1 UNK         0.0600 
    171 H171        6.7729  -13.9433  -44.1472 H         1 UNK         0.0600 
    172 H172        5.0522  -13.7594  -44.4468 H         1 UNK         0.0600 
    173 H173        6.0042  -12.3889  -43.8726 H         1 UNK         0.0600 
    174 H174        3.6751  -12.9747  -42.4836 H         1 UNK         0.3000 
    175 H175        2.7301  -12.1885  -39.1922 H         1 UNK         0.0600 
    176 H176        3.2991  -10.1262  -41.3914 H         1 UNK         0.0600 
    177 H177        2.1729   -9.9246  -40.0482 H         1 UNK         0.0600 
    178 H178        3.8970  -10.0464  -39.7386 H         1 UNK         0.0600 
    179 H179        1.4533  -11.7368  -41.7088 H         1 UNK         0.3000 
    180 H180        0.3440  -15.0238  -42.3484 H         1 UNK         0.0600 
    181 H181       -1.3141  -12.6668  -41.2985 H         1 UNK         0.0600 
    182 H182       -1.3255  -14.2984  -40.6378 H         1 UNK         0.0600 
    183 H183       -1.9246  -14.0099  -42.2638 H         1 UNK         0.0600 
    184 H184       -0.3282  -12.5691  -43.6065 H         1 UNK         0.3000 
    185 H185        1.2839  -11.3050  -44.9382 H         1 UNK         0.0600 
    186 H186        3.6556  -11.9255  -45.2868 H         1 UNK         0.0600 
    187 H187        3.1925  -13.1817  -46.4301 H         1 UNK         0.0600 
    188 H188        2.9049  -11.4842  -46.8091 H         1 UNK         0.0600 
    189 H189        0.8756  -13.0066  -47.2171 H         1 UNK         0.3000 
    190 H190       -2.5499  -19.4239  -46.7978 H         1 UNK         0.3000 
    191 H191       -5.1353  -18.4704  -47.9524 H         1 UNK         0.0600 
    192 H192       -4.2242  -18.1566  -45.0652 H         1 UNK         0.0600 
    193 H193       -3.7444  -17.0169  -46.3210 H         1 UNK         0.0600 
    194 H194       -5.4440  -17.2559  -45.9410 H         1 UNK         0.0600 
    195 H195       -3.6615  -20.9098  -45.8624 H         1 UNK         0.3000 
    196 H196       -6.0516  -22.0138  -44.7371 H         1 UNK         0.0600 
    197 H197       -3.8074  -22.1658  -43.6723 H         1 UNK         0.0600 
    198 H198       -3.2211  -23.1462  -45.0146 H         1 UNK         0.0600 
    199 H199       -4.4723  -23.7706  -43.9466 H         1 UNK         0.0600 
    200 H200       -7.2028  -22.0385  -46.8462 H         1 UNK         0.3000 
    201 H201       -8.2657  -23.0276  -48.5259 H         1 UNK         0.0600 
    202 H202       -8.5540  -25.4768  -48.5530 H         1 UNK         0.0600 
    203 H203       -8.6177  -24.9072  -46.8943 H         1 UNK         0.0600 
    204 H204       -7.1647  -25.7010  -47.4999 H         1 UNK         0.0600 
    205 H205       -5.4674  -22.1418  -48.8121 H         1 UNK         0.3000 
    206 H206       -3.7079  -22.0615  -50.1690 H         1 UNK         0.0600 
    207 H207       -5.2964  -21.3950  -51.8815 H         1 UNK         0.0600 
    208 H208       -5.7443  -23.0630  -52.2235 H         1 UNK         0.0600 
    209 H209       -4.1420  -22.4795  -52.6346 H         1 UNK         0.0600 
    210 H210       -3.8548  -24.3483  -48.5062 H         1 UNK         0.3000 
    211 H211       -3.0126  -26.3415  -48.0690 H         1 UNK         0.0600 
    212 H212       -0.8721  -25.2243  -48.7640 H         1 UNK         0.0600 
    213 H213       -0.8398  -26.9561  -49.0601 H         1 UNK         0.0600 
    214 H214       -1.0810  -25.8454  -50.3999 H         1 UNK         0.0600 
    215 H215       -5.3306  -26.3852  -49.5105 H         1 UNK         0.3000 
    216 H216       -6.7822  -27.6149  -50.6204 H         1 UNK         0.0600 
    217 H217       -6.4577  -30.0166  -51.0195 H         1 UNK         0.0600 
    218 H218       -4.7294  -29.8883  -50.7365 H         1 UNK         0.0600 
    219 H219       -5.8653  -29.6107  -49.4168 H         1 UNK         0.0600 
    220 H220       -5.5476  -25.6994  -51.9041 H         1 UNK         0.3000 
    221 H221       -5.2284  -24.6880  -53.8213 H         1 UNK         0.0600 
    222 H222       -6.3057  -27.1708  -55.2445 H         1 UNK         0.0600 
    223 H223       -7.2987  -25.8901  -54.5483 H         1 UNK         0.0600 
    224 H224       -6.2254  -25.5398  -55.8914 H         1 UNK         0.0600 
    225 H225       -3.1233  -26.8367  -52.8332 H         1 UNK         0.3000 
    226 H226       -1.4742  -27.2404  -55.2044 H         1 UNK         0.0600 
    227 H227       -1.5006  -28.8525  -53.2807 H         1 UNK         0.0600 
    228 H228        0.1122  -28.2284  -53.5968 H         1 UNK         0.0600 
    229 H229       -0.8128  -27.6090  -52.2366 H         1 UNK         0.0600 
    230 H230       -1.8407  -24.7439  -52.7620 H         1 UNK         0.3000 
    231 H231        0.5449  -23.2465  -53.7702 H         1 UNK         0.0600 
    232 H232        0.8480  -22.4458  -51.4473 H         1 UNK         0.0600 
    233 H233        0.9412  -24.1998  -51.4736 H         1 UNK         0.0600 
    234 H234       -0.5201  -23.4029  -50.8944 H         1 UNK         0.0600 
    235 H235       -1.7378  -22.9864  -55.1229 H         1 UNK         0.3000 
    236 H236       -3.6868  -21.1190  -54.3216 H         1 UNK         0.0600 
    237 H237       -3.9338  -22.5905  -56.2725 H         1 UNK         0.0600 
    238 H238       -4.0806  -20.9139  -56.7779 H         1 UNK         0.0600 
    239 H239       -2.5916  -21.7968  -57.0951 H         1 UNK         0.0600 
    240 H240       -2.9086  -19.3785  -53.2510 H         1 UNK         0.3000 
    241 H241       -1.9707  -17.5196  -52.7137 H         1 UNK         0.0600 
    242 H242        1.3706  -19.2214  -53.0362 H         1 UNK         0.3800 
    243 H243       -0.2552  -19.8705  -52.9225 H         1 UNK         0.3800 
    244 H244       -1.3466  -15.7404  -54.5578 H         1 UNK         0.0800 
    245 H245       -2.0271  -16.8653  -55.6861 H         1 UNK         0.0800 
    246 H246       -4.1882  -13.7739  -53.2668 H         1 UNK         0.0800 
    247 H247       -2.5025  -13.8866  -53.6855 H         1 UNK         0.0800 
@<TRIPOS>BOND
     1    1    2 1    
     2    1  127 1    
     3    1  128 1    
     4    1  129 1    
     5    2    3 2    
     6    2    4 am   BACKBONE|DICT|INTERRES
     7    4    5 1    
     8    4  130 1    
     9    5    6 1    
    10    5   65 1    
    11    5  131 1    
    12    6    7 1    
    13    6  132 1    
    14    6  133 1    
    15    7    8 1    
    16    8    9 1    
    17    8  134 1    
    18    8  135 1    
    19    9   10 ar   
    20    9   14 ar   
    21   10   11 ar   
    22   10  136 1    
    23   11   12 ar   
    24   11  126 1    
    25   12   13 ar   
    26   12  137 1    
    27   13   14 ar   
    28   13   15 1    
    29   14  138 1    
    30   15   16 1    
    31   15  139 1    
    32   15  140 1    
    33   16   17 1    
    34   17   18 1    
    35   17  141 1    
    36   17  142 1    
    37   18   19 1    
    38   18   67 1    
    39   18  143 1    
    40   19   20 am   BACKBONE|DICT|INTERRES
    41   19  144 1    
    42   20   21 2    
    43   20   22 1    
    44   22   23 1    
    45   22   24 1    
    46   22  145 1    
    47   23  146 1    
    48   23  147 1    
    49   23  148 1    
    50   24   25 am   BACKBONE|DICT|INTERRES
    51   24  149 1    
    52   25   26 2    
    53   25   27 1    
    54   27   28 1    
    55   27   29 1    
    56   27  150 1    
    57   28  151 1    
    58   28  152 1    
    59   28  153 1    
    60   29   30 am   BACKBONE|DICT|INTERRES
    61   29  154 1    
    62   30   31 2    
    63   30   32 1    
    64   32   33 1    
    65   32   34 1    
    66   32  155 1    
    67   33  156 1    
    68   33  157 1    
    69   33  158 1    
    70   34   35 am   BACKBONE|DICT|INTERRES
    71   34  159 1    
    72   35   36 2    
    73   35   37 1    
    74   37   38 1    
    75   37   39 1    
    76   37  160 1    
    77   38  161 1    
    78   38  162 1    
    79   38  163 1    
    80   39   40 am   BACKBONE|DICT|INTERRES
    81   39  164 1    
    82   40   41 2    
    83   40   42 1    
    84   42   43 1    
    85   42   44 1    
    86   42  165 1    
    87   43  166 1    
    88   43  167 1    
    89   43  168 1    
    90   44   45 am   BACKBONE|DICT|INTERRES
    91   44  169 1    
    92   45   46 2    
    93   45   47 1    
    94   47   48 1    
    95   47   49 1    
    96   47  170 1    
    97   48  171 1    
    98   48  172 1    
    99   48  173 1    
   100   49   50 am   BACKBONE|DICT|INTERRES
   101   49  174 1    
   102   50   51 2    
   103   50   52 1    
   104   52   53 1    
   105   52   54 1    
   106   52  175 1    
   107   53  176 1    
   108   53  177 1    
   109   53  178 1    
   110   54   55 am   BACKBONE|DICT|INTERRES
   111   54  179 1    
   112   55   56 2    
   113   55   57 1    
   114   57   58 1    
   115   57   59 1    
   116   57  180 1    
   117   58  181 1    
   118   58  182 1    
   119   58  183 1    
   120   59   60 am   BACKBONE|DICT|INTERRES
   121   59  184 1    
   122   60   61 2    
   123   60   62 1    
   124   62   63 1    
   125   62   64 1    
   126   62  185 1    
   127   63  186 1    
   128   63  187 1    
   129   63  188 1    
   130   64   65 am   BACKBONE|DICT|INTERRES
   131   64  189 1    
   132   65   66 2    
   133   67   68 2    
   134   67   69 am   BACKBONE|DICT|INTERRES
   135   69   70 1    
   136   69  190 1    
   137   70   71 1    
   138   70   72 1    
   139   70  191 1    
   140   71  192 1    
   141   71  193 1    
   142   71  194 1    
   143   72   73 2    
   144   72   74 am   BACKBONE|DICT|INTERRES
   145   74   75 1    
   146   74  195 1    
   147   75   76 1    
   148   75   77 1    
   149   75  196 1    
   150   76  197 1    
   151   76  198 1    
   152   76  199 1    
   153   77   78 2    
   154   77   79 am   BACKBONE|DICT|INTERRES
   155   79   80 1    
   156   79  200 1    
   157   80   81 1    
   158   80   82 1    
   159   80  201 1    
   160   81  202 1    
   161   81  203 1    
   162   81  204 1    
   163   82   83 2    
   164   82   84 am   BACKBONE|DICT|INTERRES
   165   84   85 1    
   166   84  205 1    
   167   85   86 1    
   168   85   87 1    
   169   85  206 1    
   170   86  207 1    
   171   86  208 1    
   172   86  209 1    
   173   87   88 2    
   174   87   89 am   BACKBONE|DICT|INTERRES
   175   89   90 1    
   176   89  210 1    
   177   90   91 1    
   178   90   92 1    
   179   90  211 1    
   180   91  212 1    
   181   91  213 1    
   182   91  214 1    
   183   92   93 2    
   184   92   94 am   BACKBONE|DICT|INTERRES
   185   94   95 1    
   186   94  215 1    
   187   95   96 1    
   188   95   97 1    
   189   95  216 1    
   190   96  217 1    
   191   96  218 1    
   192   96  219 1    
   193   97   98 2    
   194   97   99 am   BACKBONE|DICT|INTERRES
   195   99  100 1    
   196   99  220 1    
   197  100  101 1    
   198  100  102 1    
   199  100  221 1    
   200  101  222 1    
   201  101  223 1    
   202  101  224 1    
   203  102  103 2    
   204  102  104 am   BACKBONE|DICT|INTERRES
   205  104  105 1    
   206  104  225 1    
   207  105  106 1    
   208  105  107 1    
   209  105  226 1    
   210  106  227 1    
   211  106  228 1    
   212  106  229 1    
   213  107  108 2    
   214  107  109 am   BACKBONE|DICT|INTERRES
   215  109  110 1    
   216  109  230 1    
   217  110  111 1    
   218  110  112 1    
   219  110  231 1    
   220  111  232 1    
   221  111  233 1    
   222  111  234 1    
   223  112  113 2    
   224  112  114 am   BACKBONE|DICT|INTERRES
   225  114  115 1    
   226  114  235 1    
   227  115  116 1    
   228  115  117 1    
   229  115  236 1    
   230  116  237 1    
   231  116  238 1    
   232  116  239 1    
   233  117  118 2    
   234  117  119 am   BACKBONE|DICT|INTERRES
   235  119  120 1    
   236  119  240 1    
   237  120  121 1    
   238  120  124 1    
   239  120  241 1    
   240  121  122 am   BACKBONE|DICT|INTERRES
   241  121  123 2    
   242  122  242 1    
   243  122  243 1    
   244  124  125 1    
   245  124  244 1    
   246  124  245 1    
   247  125  126 1    
   248  126  246 1    
   249  126  247 1    
@<TRIPOS>SUBSTRUCTURE
     1 UNK         1 GROUP             0       ****    0 ROOT    
