@<TRIPOS>MOLECULE
3R540
247   249    1
SMALL
USER_CHARGES


@<TRIPOS>ATOM
      1 CA         -0.6094  -10.5627  -50.6765 C.3       0 UNK        -0.1800 
      2 C          -0.8179  -12.0464  -50.4105 C.2       0 UNK         0.5000 
      3 O          -1.7127  -12.6516  -50.9990 O.2       0 UNK        -0.5000 
      4 N          -0.0071  -12.6253  -49.5146 N.am      1 UNK        -0.5000 
      5 CA          0.0427  -14.0379  -49.0988 C.3       1 UNK         0.1400 
      6 C6          0.3174  -15.0429  -50.2476 C.3       23 UNK        -0.0398 
      7 S7          1.8813  -14.6913  -51.1158 S.3       23 UNK        -0.2404 
      8 C8          2.9691  -15.9943  -50.4401 C.3       23 UNK        -0.0205 
      9 C9          2.7582  -17.4064  -50.9939 C.ar      23 UNK        -0.0193 
     10 C10         2.0010  -17.6732  -52.1440 C.ar      23 UNK        -0.1150 
     11 C11         1.8885  -18.9754  -52.6404 C.ar      23 UNK        -0.0193 
     12 C12         2.5370  -20.0207  -51.9776 C.ar      23 UNK        -0.1150 
     13 C13         3.2948  -19.7767  -50.8306 C.ar      23 UNK        -0.0193 
     14 C14         3.4009  -18.4681  -50.3487 C.ar      23 UNK        -0.1150 
     15 C15         4.0308  -20.9263  -50.1496 C.3       23 UNK        -0.0205 
     16 S16         3.6953  -21.0412  -48.3625 S.3       23 UNK        -0.2404 
     17 C17         1.8899  -21.3057  -48.3329 C.3       23 UNK        -0.0398 
     18 CA          1.4699  -22.6268  -47.6326 C.3       11 UNK         0.1400 
     19 N           2.0219  -22.8208  -46.2785 N.am      11 UNK        -0.5000 
     20 C           1.9210  -21.9851  -45.2380 C.2       10 UNK         0.5000 
     21 O           1.3597  -20.8915  -45.3004 O.2       10 UNK        -0.5000 
     22 CA          2.5063  -22.4522  -43.9021 C.3       10 UNK         0.1400 
     23 CB          3.9715  -22.0115  -43.7578 C.3       10 UNK        -0.1800 
     24 N           1.7142  -21.8509  -42.8361 N.am      10 UNK        -0.5000 
     25 C           1.3673  -22.4346  -41.6846 C.2       9 UNK         0.5000 
     26 O           1.6906  -23.5825  -41.3729 O.2       9 UNK        -0.5000 
     27 CA          0.5321  -21.5628  -40.7234 C.3       9 UNK         0.1400 
     28 CB          0.3537  -22.1817  -39.3215 C.3       9 UNK        -0.1800 
     29 N           1.0616  -20.1988  -40.6405 N.am      9 UNK        -0.5000 
     30 C           2.2709  -19.8163  -40.2034 C.2       8 UNK         0.5000 
     31 O           3.0921  -20.5713  -39.6814 O.2       8 UNK        -0.5000 
     32 CA          2.6408  -18.3358  -40.4098 C.3       8 UNK         0.1400 
     33 CB          3.4686  -18.1807  -41.6955 C.3       8 UNK        -0.1800 
     34 N           1.4749  -17.4526  -40.4813 N.am      8 UNK        -0.5000 
     35 C           0.7041  -17.1244  -39.4349 C.2       7 UNK         0.5000 
     36 O           0.9227  -17.4963  -38.2812 O.2       7 UNK        -0.5000 
     37 CA         -0.5284  -16.2491  -39.7285 C.3       7 UNK         0.1400 
     38 CB         -0.1310  -14.7696  -39.8449 C.3       7 UNK        -0.1800 
     39 N          -1.2417  -16.6596  -40.9389 N.am      7 UNK        -0.5000 
     40 C          -1.9045  -17.8165  -41.0806 C.2       6 UNK         0.5000 
     41 O          -2.0160  -18.6572  -40.1885 O.2       6 UNK        -0.5000 
     42 CA         -2.5186  -18.0993  -42.4642 C.3       6 UNK         0.1400 
     43 CB         -3.8745  -17.3955  -42.6257 C.3       6 UNK        -0.1800 
     44 N          -1.6327  -17.7050  -43.5581 N.am      6 UNK        -0.5000 
     45 C          -0.4684  -18.3042  -43.8422 C.2       5 UNK         0.5000 
     46 O          -0.0255  -19.2667  -43.2146 O.2       5 UNK        -0.5000 
     47 CA          0.3507  -17.6837  -44.9892 C.3       5 UNK         0.1400 
     48 CB         -0.1971  -18.1193  -46.3589 C.3       5 UNK        -0.1800 
     49 N           0.3658  -16.2210  -44.9309 N.am      5 UNK        -0.5000 
     50 C           0.9069  -15.5015  -43.9374 C.2       4 UNK         0.5000 
     51 O           1.4682  -15.9956  -42.9613 O.2       4 UNK        -0.5000 
     52 CA          0.7569  -13.9730  -44.0240 C.3       4 UNK         0.1400 
     53 CB          1.8076  -13.3811  -44.9755 C.3       4 UNK        -0.1800 
     54 N          -0.5759  -13.5474  -44.4522 N.am      4 UNK        -0.5000 
     55 C          -1.7188  -13.7958  -43.7949 C.2       3 UNK         0.5000 
     56 O          -1.7857  -14.4357  -42.7465 O.2       3 UNK        -0.5000 
     57 CA         -3.0020  -13.3008  -44.4708 C.3       3 UNK         0.1400 
     58 CB         -3.1051  -11.7645  -44.4167 C.3       3 UNK        -0.1800 
     59 N          -2.9926  -13.7936  -45.8421 N.am      3 UNK        -0.5000 
     60 C          -3.9803  -13.7696  -46.7367 C.2       2 UNK         0.5000 
     61 O          -5.0738  -13.2390  -46.5346 O.2       2 UNK        -0.5000 
     62 CA         -3.6818  -14.4816  -48.0761 C.3       2 UNK         0.1400 
     63 CB         -4.7902  -14.2736  -49.1230 C.3       2 UNK        -0.1800 
     64 N          -2.3914  -14.1226  -48.6774 N.am      2 UNK        -0.5000 
     65 C          -1.1719  -14.4839  -48.2586 C.2       1 UNK         0.5000 
     66 O          -0.9737  -15.1202  -47.2225 O.2       1 UNK        -0.5000 
     67 C          -0.0666  -22.7778  -47.6690 C.2       11 UNK         0.5000 
     68 O          -0.5796  -23.5123  -48.5126 O.2       11 UNK        -0.5000 
     69 N          -0.7586  -22.1149  -46.7314 N.am      12 UNK        -0.5000 
     70 CA         -2.2130  -22.0182  -46.5868 C.3       12 UNK         0.1400 
     71 CB         -2.5300  -21.1266  -45.3744 C.3       12 UNK        -0.1800 
     72 C          -2.9647  -23.3577  -46.4678 C.2       12 UNK         0.5000 
     73 O          -4.1533  -23.4053  -46.7901 O.2       12 UNK        -0.5000 
     74 N          -2.2723  -24.4020  -45.9965 N.am      13 UNK        -0.5000 
     75 CA         -2.7968  -25.7614  -45.8737 C.3       13 UNK         0.1400 
     76 CB         -2.1117  -26.4440  -44.6794 C.3       13 UNK        -0.1800 
     77 C          -2.5960  -26.5983  -47.1527 C.2       13 UNK         0.5000 
     78 O          -3.3236  -27.5727  -47.3477 O.2       13 UNK        -0.5000 
     79 N          -1.6136  -26.2301  -47.9872 N.am      14 UNK        -0.5000 
     80 CA         -1.2830  -26.9213  -49.2349 C.3       14 UNK         0.1400 
     81 CB          0.2270  -26.8046  -49.5000 C.3       14 UNK        -0.1800 
     82 C          -2.0925  -26.3489  -50.4083 C.2       14 UNK         0.5000 
     83 O          -2.6660  -27.1102  -51.1881 O.2       14 UNK        -0.5000 
     84 N          -2.1461  -25.0166  -50.4839 N.am      15 UNK        -0.5000 
     85 CA         -2.9925  -24.2427  -51.3794 C.3       15 UNK         0.1400 
     86 CB         -2.1013  -23.3482  -52.2554 C.3       15 UNK        -0.1800 
     87 C          -3.8886  -23.4008  -50.4697 C.2       15 UNK         0.5000 
     88 O          -3.3470  -22.6366  -49.6746 O.2       15 UNK        -0.5000 
     89 N          -5.2124  -23.5831  -50.5638 N.am      16 UNK        -0.5000 
     90 CA         -6.2412  -23.0268  -49.6747 C.3       16 UNK         0.1400 
     91 CB         -7.6245  -23.4079  -50.2296 C.3       16 UNK        -0.1800 
     92 C          -6.1297  -21.5042  -49.4394 C.2       16 UNK         0.5000 
     93 O          -6.6210  -20.7212  -50.2519 O.2       16 UNK        -0.5000 
     94 N          -5.4653  -21.1305  -48.3364 N.am      17 UNK        -0.5000 
     95 CA         -5.1062  -19.7642  -47.9314 C.3       17 UNK         0.1400 
     96 CB         -6.3618  -18.9038  -47.6763 C.3       17 UNK        -0.1800 
     97 C          -4.0851  -19.0706  -48.8649 C.2       17 UNK         0.5000 
     98 O          -3.9777  -17.8454  -48.8324 O.2       17 UNK        -0.5000 
     99 N          -3.3271  -19.8608  -49.6401 N.am      18 UNK        -0.5000 
    100 CA        -2.2886  -19.4585  -50.5926 C.3       18 UNK         0.1400 
    101 CB        -1.0513  -18.9328  -49.8301 C.3       18 UNK        -0.1800 
    102 C         -2.8135  -18.4985  -51.6861 C.2       18 UNK         0.5000 
    103 O         -3.9788  -18.5972  -52.0788 O.2       18 UNK        -0.5000 
    104 N         -1.9442  -17.6019  -52.1759 N.am      19 UNK        -0.5000 
    105 CA        -2.2241  -16.5646  -53.1733 C.3       19 UNK         0.1400 
    106 CB        -3.1350  -15.4760  -52.5602 C.3       19 UNK        -0.1800 
    107 C         -2.7655  -17.1633  -54.4900 C.2       19 UNK         0.5000 
    108 O         -2.0571  -17.9343  -55.1377 O.2       19 UNK        -0.5000 
    109 N         -4.0083  -16.8220  -54.8559 N.am      20 UNK        -0.5000 
    110 CA        -4.7001  -17.2975  -56.0550 C.3       20 UNK         0.1400 
    111 CB        -6.0165  -16.5216  -56.2113 C.3       20 UNK        -0.1800 
    112 C         -4.9656  -18.8160  -56.0699 C.2       20 UNK         0.5000 
    113 O         -5.0656  -19.3949  -57.1532 O.2       20 UNK        -0.5000 
    114 N         -5.0442  -19.4481  -54.8879 N.am      21 UNK        -0.5000 
    115 CA        -5.2461  -20.8933  -54.7428 C.3       21 UNK         0.1400 
    116 CB        -5.6172  -21.2218  -53.2911 C.3       21 UNK        -0.1800 
    117 C         -4.0342  -21.7312  -55.1925 C.2       21 UNK         0.5000 
    118 O         -4.1871  -22.9324  -55.4166 O.2       21 UNK        -0.5000 
    119 N         -2.8632  -21.0943  -55.3283 N.am      22 UNK        -0.5000 
    120 CA        -1.6469  -21.6959  -55.8921 C.3       22 UNK         0.1400 
    121 C         -1.7264  -21.9794  -57.4235 C.2       22 UNK         0.5000 
    122 N         -2.6961  -21.4435  -58.1581 N.am      22 UNK        -0.7600 
    123 O         -0.8907  -22.7047  -57.9557 O.2       22 UNK        -0.5000 
    124 C124       -0.3883  -20.8519  -55.5762 C.3       23 UNK        -0.0398 
    125 S125       -0.1146  -20.5504  -53.7972 S.3       23 UNK        -0.2404 
    126 C126        1.1404  -19.2382  -53.9397 C.3       23 UNK        -0.0205 
    127 H127       -0.3803  -10.4004  -51.7297 H         1 UNK         0.0600 
    128 H128        0.2093  -10.1544  -50.0835 H         1 UNK         0.0600 
    129 H129       -1.5155  -10.0075  -50.4339 H         1 UNK         0.0600 
    130 H130        0.6858  -12.0420  -49.0669 H         1 UNK         0.3000 
    131 H131        0.8974  -14.0959  -48.4229 H         1 UNK         0.0600 
    132 H132        0.3486  -16.0646  -49.8650 H         1 UNK         0.0800 
    133 H133       -0.4861  -15.0225  -50.9824 H         1 UNK         0.0800 
    134 H134        4.0009  -15.7059  -50.6445 H         1 UNK         0.0800 
    135 H135        2.8655  -16.0079  -49.3538 H         1 UNK         0.0800 
    136 H136        1.5224  -16.8686  -52.6820 H         1 UNK         0.1150 
    137 H137        2.4669  -21.0245  -52.3728 H         1 UNK         0.1150 
    138 H138        4.0027  -18.2745  -49.4716 H         1 UNK         0.1150 
    139 H139        5.1027  -20.7892  -50.2966 H         1 UNK         0.0800 
    140 H140        3.7766  -21.8807  -50.6134 H         1 UNK         0.0800 
    141 H141        1.5079  -21.2971  -49.3552 H         1 UNK         0.0800 
    142 H142        1.4410  -20.4388  -47.8471 H         1 UNK         0.0800 
    143 H143        1.8723  -23.4479  -48.2285 H         1 UNK         0.0600 
    144 H144        2.4978  -23.7006  -46.1373 H         1 UNK         0.3000 
    145 H145        2.4419  -23.5411  -43.8530 H         1 UNK         0.0600 
    146 H146        4.3882  -22.3374  -42.8046 H         1 UNK         0.0600 
    147 H147        4.5891  -22.4390  -44.5486 H         1 UNK         0.0600 
    148 H148        4.0704  -20.9264  -43.8118 H         1 UNK         0.0600 
    149 H149        1.3344  -20.9341  -43.0587 H         1 UNK         0.3000 
    150 H150       -0.4584  -21.4754  -41.1725 H         1 UNK         0.0600 
    151 H151       -0.1641  -23.1395  -39.3831 H         1 UNK         0.0600 
    152 H152       -0.2405  -21.5321  -38.6788 H         1 UNK         0.0600 
    153 H153        1.3094  -22.3597  -38.8281 H         1 UNK         0.0600 
    154 H154        0.5018  -19.4990  -41.1122 H         1 UNK         0.3000 
    155 H155        3.2582  -18.0251  -39.5645 H         1 UNK         0.0600 
    156 H156        2.8934  -18.4628  -42.5787 H         1 UNK         0.0600 
    157 H157        4.3584  -18.8111  -41.6684 H         1 UNK         0.0600 
    158 H158        3.8030  -17.1517  -41.8279 H         1 UNK         0.0600 
    159 H159        1.2697  -17.0483  -41.3918 H         1 UNK         0.3000 
    160 H160       -1.2151  -16.3489  -38.8854 H         1 UNK         0.0600 
    161 H161        0.5346  -14.5965  -40.6909 H         1 UNK         0.0600 
    162 H162        0.3848  -14.4312  -38.9454 H         1 UNK         0.0600 
    163 H163       -1.0081  -14.1355  -39.9754 H         1 UNK         0.0600 
    164 H164       -1.2494  -15.9949  -41.7070 H         1 UNK         0.3000 
    165 H165       -2.6858  -19.1761  -42.5394 H         1 UNK         0.0600 
    166 H166       -4.3394  -17.6497  -43.5785 H         1 UNK         0.0600 
    167 H167       -4.5650  -17.6965  -41.8369 H         1 UNK         0.0600 
    168 H168       -3.7767  -16.3106  -42.5786 H         1 UNK         0.0600 
    169 H169       -1.8982  -16.8911  -44.0910 H         1 UNK         0.3000 
    170 H170        1.3785  -18.0412  -44.8981 H         1 UNK         0.0600 
    171 H171       -0.2093  -19.2032  -46.4553 H         1 UNK         0.0600 
    172 H172       -1.2174  -17.7687  -46.5193 H         1 UNK         0.0600 
    173 H173        0.4199  -17.7322  -47.1700 H         1 UNK         0.0600 
    174 H174       -0.0808  -15.7380  -45.7058 H         1 UNK         0.3000 
    175 H175        0.9309  -13.5658  -43.0260 H         1 UNK         0.0600 
    176 H176        1.6649  -13.7270  -45.9998 H         1 UNK         0.0600 
    177 H177        1.7675  -12.2917  -44.9796 H         1 UNK         0.0600 
    178 H178        2.8151  -13.6667  -44.6699 H         1 UNK         0.0600 
    179 H179       -0.6183  -13.0061  -45.3025 H         1 UNK         0.3000 
    180 H180       -3.8547  -13.7376  -43.9473 H         1 UNK         0.0600 
    181 H181       -2.3195  -11.2840  -45.0006 H         1 UNK         0.0600 
    182 H182       -3.0202  -11.4048  -43.3905 H         1 UNK         0.0600 
    183 H183       -4.0639  -11.4157  -44.7994 H         1 UNK         0.0600 
    184 H184       -2.1526  -14.2949  -46.1231 H         1 UNK         0.3000 
    185 H185       -3.6480  -15.5447  -47.8392 H         1 UNK         0.0600 
    186 H186       -4.6084  -14.8804  -50.0095 H         1 UNK         0.0600 
    187 H187       -5.7644  -14.5692  -48.7317 H         1 UNK         0.0600 
    188 H188       -4.8582  -13.2308  -49.4345 H         1 UNK         0.0600 
    189 H189       -2.4315  -13.5685  -49.5290 H         1 UNK         0.3000 
    190 H190       -0.2081  -21.5562  -46.0841 H         1 UNK         0.3000 
    191 H191       -2.5873  -21.5196  -47.4793 H         1 UNK         0.0600 
    192 H192       -2.2387  -20.0941  -45.5589 H         1 UNK         0.0600 
    193 H193       -3.5972  -21.1200  -45.1490 H         1 UNK         0.0600 
    194 H194       -2.0107  -21.4667  -44.4774 H         1 UNK         0.0600 
    195 H195       -1.3090  -24.2576  -45.7341 H         1 UNK         0.3000 
    196 H196       -3.8691  -25.7208  -45.6699 H         1 UNK         0.0600 
    197 H197       -2.4950  -27.4549  -44.5342 H         1 UNK         0.0600 
    198 H198       -2.2911  -25.8943  -43.7552 H         1 UNK         0.0600 
    199 H199       -1.0329  -26.5194  -44.8217 H         1 UNK         0.0600 
    200 H200       -1.1241  -25.3611  -47.8137 H         1 UNK         0.3000 
    201 H201       -1.5238  -27.9827  -49.1424 H         1 UNK         0.0600 
    202 H202        0.8035  -27.2470  -48.6875 H         1 UNK         0.0600 
    203 H203        0.5438  -25.7668  -49.6081 H         1 UNK         0.0600 
    204 H204        0.5021  -27.3280  -50.4164 H         1 UNK         0.0600 
    205 H205       -1.6712  -24.4649  -49.7722 H         1 UNK         0.3000 
    206 H206       -3.6056  -24.8828  -52.0170 H         1 UNK         0.0600 
    207 H207       -1.4034  -22.7609  -51.6568 H         1 UNK         0.0600 
    208 H208       -1.5175  -23.9421  -52.9584 H         1 UNK         0.0600 
    209 H209       -2.7000  -22.6477  -52.8346 H         1 UNK         0.0600 
    210 H210       -5.5523  -24.2297  -51.2601 H         1 UNK         0.3000 
    211 H211       -6.1310  -23.5228  -48.7086 H         1 UNK         0.0600 
    212 H212       -7.7763  -23.0159  -51.2363 H         1 UNK         0.0600 
    213 H213       -8.4213  -23.0109  -49.5993 H         1 UNK         0.0600 
    214 H214       -7.7514  -24.4899  -50.2678 H         1 UNK         0.0600 
    215 H215       -5.0655  -21.8734  -47.7699 H         1 UNK         0.3000 
    216 H216       -4.5972  -19.8672  -46.9738 H         1 UNK         0.0600 
    217 H217       -6.0975  -17.9581  -47.2016 H         1 UNK         0.0600 
    218 H218       -7.0622  -19.4126  -47.0141 H         1 UNK         0.0600 
    219 H219       -6.8853  -18.6652  -48.6023 H         1 UNK         0.0600 
    220 H220       -3.4922  -20.8654  -49.5987 H         1 UNK         0.3000 
    221 H221       -1.9931  -20.3706  -51.1121 H         1 UNK         0.0600 
    222 H222       -1.2453  -17.9676  -49.3606 H         1 UNK         0.0600 
    223 H223       -0.7566  -19.6284  -49.0444 H         1 UNK         0.0600 
    224 H224       -0.1902  -18.8219  -50.4888 H         1 UNK         0.0600 
    225 H225       -0.9921  -17.6437  -51.8455 H         1 UNK         0.3000 
    226 H226       -1.2673  -16.1004  -53.4164 H         1 UNK         0.0600 
    227 H227       -2.7058  -15.0796  -51.6418 H         1 UNK         0.0600 
    228 H228       -3.2602  -14.6342  -53.2423 H         1 UNK         0.0600 
    229 H229       -4.1255  -15.8568  -52.3090 H         1 UNK         0.0600 
    230 H230       -4.5304  -16.2060  -54.2500 H         1 UNK         0.3000 
    231 H231       -4.0661  -17.0713  -56.9148 H         1 UNK         0.0600 
    232 H232       -6.6839  -16.6878  -55.3647 H         1 UNK         0.0600 
    233 H233       -6.5474  -16.8295  -57.1132 H         1 UNK         0.0600 
    234 H234       -5.8363  -15.4495  -56.2928 H         1 UNK         0.0600 
    235 H235       -4.8980  -18.9234  -54.0321 H         1 UNK         0.3000 
    236 H236       -6.0892  -21.1777  -55.3758 H         1 UNK         0.0600 
    237 H237       -6.4721  -20.6323  -52.9603 H         1 UNK         0.0600 
    238 H238       -5.8889  -22.2725  -53.1861 H         1 UNK         0.0600 
    239 H239       -4.7911  -21.0306  -52.6062 H         1 UNK         0.0600 
    240 H240       -2.8110  -20.1051  -55.1206 H         1 UNK         0.3000 
    241 H241       -1.5159  -22.6675  -55.4120 H         1 UNK         0.0600 
    242 H242       -3.3957  -20.8438  -57.7417 H         1 UNK         0.3800 
    243 H243       -2.7336  -21.6406  -59.1458 H         1 UNK         0.3800 
    244 H244       -0.4494  -19.8897  -56.0879 H         1 UNK         0.0800 
    245 H245        0.5047  -21.3461  -55.9633 H         1 UNK         0.0800 
    246 H246        0.6532  -18.3305  -54.2995 H         1 UNK         0.0800 
    247 H247        1.8721  -19.5188  -54.6985 H         1 UNK         0.0800 
@<TRIPOS>BOND
     1    1    2 1    
     2    1  127 1    
     3    1  128 1    
     4    1  129 1    
     5    2    3 2    
     6    2    4 am   BACKBONE|DICT|INTERRES
     7    4    5 1    
     8    4  130 1    
     9    5    6 1    
    10    5   65 1    
    11    5  131 1    
    12    6    7 1    
    13    6  132 1    
    14    6  133 1    
    15    7    8 1    
    16    8    9 1    
    17    8  134 1    
    18    8  135 1    
    19    9   10 ar   
    20    9   14 ar   
    21   10   11 ar   
    22   10  136 1    
    23   11   12 ar   
    24   11  126 1    
    25   12   13 ar   
    26   12  137 1    
    27   13   14 ar   
    28   13   15 1    
    29   14  138 1    
    30   15   16 1    
    31   15  139 1    
    32   15  140 1    
    33   16   17 1    
    34   17   18 1    
    35   17  141 1    
    36   17  142 1    
    37   18   19 1    
    38   18   67 1    
    39   18  143 1    
    40   19   20 am   BACKBONE|DICT|INTERRES
    41   19  144 1    
    42   20   21 2    
    43   20   22 1    
    44   22   23 1    
    45   22   24 1    
    46   22  145 1    
    47   23  146 1    
    48   23  147 1    
    49   23  148 1    
    50   24   25 am   BACKBONE|DICT|INTERRES
    51   24  149 1    
    52   25   26 2    
    53   25   27 1    
    54   27   28 1    
    55   27   29 1    
    56   27  150 1    
    57   28  151 1    
    58   28  152 1    
    59   28  153 1    
    60   29   30 am   BACKBONE|DICT|INTERRES
    61   29  154 1    
    62   30   31 2    
    63   30   32 1    
    64   32   33 1    
    65   32   34 1    
    66   32  155 1    
    67   33  156 1    
    68   33  157 1    
    69   33  158 1    
    70   34   35 am   BACKBONE|DICT|INTERRES
    71   34  159 1    
    72   35   36 2    
    73   35   37 1    
    74   37   38 1    
    75   37   39 1    
    76   37  160 1    
    77   38  161 1    
    78   38  162 1    
    79   38  163 1    
    80   39   40 am   BACKBONE|DICT|INTERRES
    81   39  164 1    
    82   40   41 2    
    83   40   42 1    
    84   42   43 1    
    85   42   44 1    
    86   42  165 1    
    87   43  166 1    
    88   43  167 1    
    89   43  168 1    
    90   44   45 am   BACKBONE|DICT|INTERRES
    91   44  169 1    
    92   45   46 2    
    93   45   47 1    
    94   47   48 1    
    95   47   49 1    
    96   47  170 1    
    97   48  171 1    
    98   48  172 1    
    99   48  173 1    
   100   49   50 am   BACKBONE|DICT|INTERRES
   101   49  174 1    
   102   50   51 2    
   103   50   52 1    
   104   52   53 1    
   105   52   54 1    
   106   52  175 1    
   107   53  176 1    
   108   53  177 1    
   109   53  178 1    
   110   54   55 am   BACKBONE|DICT|INTERRES
   111   54  179 1    
   112   55   56 2    
   113   55   57 1    
   114   57   58 1    
   115   57   59 1    
   116   57  180 1    
   117   58  181 1    
   118   58  182 1    
   119   58  183 1    
   120   59   60 am   BACKBONE|DICT|INTERRES
   121   59  184 1    
   122   60   61 2    
   123   60   62 1    
   124   62   63 1    
   125   62   64 1    
   126   62  185 1    
   127   63  186 1    
   128   63  187 1    
   129   63  188 1    
   130   64   65 am   BACKBONE|DICT|INTERRES
   131   64  189 1    
   132   65   66 2    
   133   67   68 2    
   134   67   69 am   BACKBONE|DICT|INTERRES
   135   69   70 1    
   136   69  190 1    
   137   70   71 1    
   138   70   72 1    
   139   70  191 1    
   140   71  192 1    
   141   71  193 1    
   142   71  194 1    
   143   72   73 2    
   144   72   74 am   BACKBONE|DICT|INTERRES
   145   74   75 1    
   146   74  195 1    
   147   75   76 1    
   148   75   77 1    
   149   75  196 1    
   150   76  197 1    
   151   76  198 1    
   152   76  199 1    
   153   77   78 2    
   154   77   79 am   BACKBONE|DICT|INTERRES
   155   79   80 1    
   156   79  200 1    
   157   80   81 1    
   158   80   82 1    
   159   80  201 1    
   160   81  202 1    
   161   81  203 1    
   162   81  204 1    
   163   82   83 2    
   164   82   84 am   BACKBONE|DICT|INTERRES
   165   84   85 1    
   166   84  205 1    
   167   85   86 1    
   168   85   87 1    
   169   85  206 1    
   170   86  207 1    
   171   86  208 1    
   172   86  209 1    
   173   87   88 2    
   174   87   89 am   BACKBONE|DICT|INTERRES
   175   89   90 1    
   176   89  210 1    
   177   90   91 1    
   178   90   92 1    
   179   90  211 1    
   180   91  212 1    
   181   91  213 1    
   182   91  214 1    
   183   92   93 2    
   184   92   94 am   BACKBONE|DICT|INTERRES
   185   94   95 1    
   186   94  215 1    
   187   95   96 1    
   188   95   97 1    
   189   95  216 1    
   190   96  217 1    
   191   96  218 1    
   192   96  219 1    
   193   97   98 2    
   194   97   99 am   BACKBONE|DICT|INTERRES
   195   99  100 1    
   196   99  220 1    
   197  100  101 1    
   198  100  102 1    
   199  100  221 1    
   200  101  222 1    
   201  101  223 1    
   202  101  224 1    
   203  102  103 2    
   204  102  104 am   BACKBONE|DICT|INTERRES
   205  104  105 1    
   206  104  225 1    
   207  105  106 1    
   208  105  107 1    
   209  105  226 1    
   210  106  227 1    
   211  106  228 1    
   212  106  229 1    
   213  107  108 2    
   214  107  109 am   BACKBONE|DICT|INTERRES
   215  109  110 1    
   216  109  230 1    
   217  110  111 1    
   218  110  112 1    
   219  110  231 1    
   220  111  232 1    
   221  111  233 1    
   222  111  234 1    
   223  112  113 2    
   224  112  114 am   BACKBONE|DICT|INTERRES
   225  114  115 1    
   226  114  235 1    
   227  115  116 1    
   228  115  117 1    
   229  115  236 1    
   230  116  237 1    
   231  116  238 1    
   232  116  239 1    
   233  117  118 2    
   234  117  119 am   BACKBONE|DICT|INTERRES
   235  119  120 1    
   236  119  240 1    
   237  120  121 1    
   238  120  124 1    
   239  120  241 1    
   240  121  122 am   BACKBONE|DICT|INTERRES
   241  121  123 2    
   242  122  242 1    
   243  122  243 1    
   244  124  125 1    
   245  124  244 1    
   246  124  245 1    
   247  125  126 1    
   248  126  246 1    
   249  126  247 1    
@<TRIPOS>SUBSTRUCTURE
     1 UNK         1 GROUP             0       ****    0 ROOT    
