@<TRIPOS>MOLECULE
3R540
247   249    1
SMALL
USER_CHARGES


@<TRIPOS>ATOM
      1 CA         -2.4797  -12.1140  -52.5886 C.3       0 UNK        -0.1800 
      2 C          -2.0780  -13.3997  -51.8812 C.2       0 UNK         0.5000 
      3 O          -2.4326  -14.4868  -52.3378 O.2       0 UNK        -0.5000 
      4 N          -1.3522  -13.2798  -50.7652 N.am      1 UNK        -0.5000 
      5 CA         -0.7579  -14.3949  -50.0224 C.3       1 UNK         0.1400 
      6 C6         -0.2981  -13.9507  -48.6142 C.3       23 UNK        -0.0398 
      7 S7         -1.6883  -13.4392  -47.5518 S.3       23 UNK        -0.2404 
      8 C8         -1.7747  -14.8186  -46.3694 C.3       23 UNK        -0.0205 
      9 C9         -2.4246  -16.0472  -46.9860 C.ar      23 UNK        -0.0193 
     10 C10        -3.8169  -16.1727  -46.9784 C.ar      23 UNK        -0.1150 
     11 C11        -4.4298  -17.2975  -47.5353 C.ar      23 UNK        -0.0193 
     12 C12        -3.6411  -18.3045  -48.0928 C.ar      23 UNK        -0.1150 
     13 C13        -2.2497  -18.1913  -48.1106 C.ar      23 UNK        -0.0193 
     14 C14        -1.6447  -17.0607  -47.5525 C.ar      23 UNK        -0.1150 
     15 C15        -1.4140  -19.2822  -48.7613 C.3       23 UNK        -0.0205 
     16 S16        -0.3429  -20.1515  -47.5859 S.3       23 UNK        -0.2404 
     17 C17        -1.5453  -20.8439  -46.4113 C.3       23 UNK        -0.0398 
     18 CA         -1.1338  -22.2588  -45.9222 C.3       11 UNK         0.1400 
     19 N          -1.2720  -22.4318  -44.4703 N.am      11 UNK        -0.5000 
     20 C          -2.3569  -22.2535  -43.7073 C.2       10 UNK         0.5000 
     21 O          -3.4600  -21.9535  -44.1639 O.2       10 UNK        -0.5000 
     22 CA         -2.2003  -22.4448  -42.1865 C.3       10 UNK         0.1400 
     23 CB         -2.5228  -23.8944  -41.7769 C.3       10 UNK        -0.1800 
     24 N          -0.9109  -21.9987  -41.6396 N.am      10 UNK        -0.5000 
     25 C           0.3168  -22.5148  -41.8098 C.2       9 UNK         0.5000 
     26 O           0.5415  -23.5076  -42.5037 O.2       9 UNK        -0.5000 
     27 CA          1.4865  -21.7721  -41.1291 C.3       9 UNK         0.1400 
     28 CB          2.7949  -21.8983  -41.9300 C.3       9 UNK        -0.1800 
     29 N           1.1726  -20.3524  -40.9720 N.am      9 UNK        -0.5000 
     30 C           0.9028  -19.7264  -39.8182 C.2       8 UNK         0.5000 
     31 O           0.9682  -20.2697  -38.7153 O.2       8 UNK        -0.5000 
     32 CA          0.4522  -18.2511  -39.9074 C.3       8 UNK         0.1400 
     33 CB          1.6248  -17.3132  -39.5843 C.3       8 UNK        -0.1800 
     34 N          -0.1035  -17.8858  -41.2140 N.am      8 UNK        -0.5000 
     35 C          -1.2251  -18.4015  -41.7423 C.2       7 UNK         0.5000 
     36 O          -1.9673  -19.1711  -41.1318 O.2       7 UNK        -0.5000 
     37 CA         -1.5422  -18.0619  -43.2141 C.3       7 UNK         0.1400 
     38 CB         -2.5852  -16.9383  -43.2902 C.3       7 UNK        -0.1800 
     39 N          -0.3643  -17.6838  -44.0027 N.am      7 UNK        -0.5000 
     40 C           0.7208  -18.4480  -44.1990 C.2       6 UNK         0.5000 
     41 O           0.7920  -19.6224  -43.8372 O.2       6 UNK        -0.5000 
     42 CA          1.9647  -17.7753  -44.8197 C.3       6 UNK         0.1400 
     43 CB          2.2393  -18.2906  -46.2367 C.3       6 UNK        -0.1800 
     44 N           1.9399  -16.3085  -44.8503 N.am      6 UNK        -0.5000 
     45 C           1.9014  -15.5027  -43.7796 C.2       5 UNK         0.5000 
     46 O           1.7757  -15.9194  -42.6272 O.2       5 UNK        -0.5000 
     47 CA          2.0001  -13.9897  -44.0454 C.3       5 UNK         0.1400 
     48 CB          2.7774  -13.2518  -42.9397 C.3       5 UNK        -0.1800 
     49 N           2.6131  -13.7030  -45.3458 N.am      5 UNK        -0.5000 
     50 C           2.2624  -12.7043  -46.1609 C.2       4 UNK         0.5000 
     51 O           1.3102  -11.9554  -45.9445 O.2       4 UNK        -0.5000 
     52 CA          3.1148  -12.4779  -47.4275 C.3       4 UNK         0.1400 
     53 CB          4.3767  -11.6617  -47.0884 C.3       4 UNK        -0.1800 
     54 N           3.4602  -13.6734  -48.2153 N.am      4 UNK        -0.5000 
     55 C           4.2431  -14.7106  -47.8840 C.2       3 UNK         0.5000 
     56 O           4.6825  -14.9099  -46.7507 O.2       3 UNK        -0.5000 
     57 CA          4.5546  -15.6932  -49.0245 C.3       3 UNK         0.1400 
     58 CB          5.4612  -16.8681  -48.6057 C.3       3 UNK        -0.1800 
     59 N           3.3078  -16.1811  -49.6121 N.am      3 UNK        -0.5000 
     60 C           3.1697  -16.5957  -50.8782 C.2       2 UNK         0.5000 
     61 O           4.0957  -16.6396  -51.6890 O.2       2 UNK        -0.5000 
     62 CA          1.7558  -17.0219  -51.3240 C.3       2 UNK         0.1400 
     63 CB          1.5642  -18.5324  -51.1145 C.3       2 UNK        -0.1800 
     64 N           0.6705  -16.2928  -50.6548 N.am      2 UNK        -0.5000 
     65 C           0.4390  -14.9800  -50.8015 C.2       1 UNK         0.5000 
     66 O           1.1506  -14.2330  -51.4775 O.2       1 UNK        -0.5000 
     67 C          -1.8217  -23.3806  -46.7298 C.2       11 UNK         0.5000 
     68 O          -1.2111  -23.9553  -47.6328 O.2       11 UNK        -0.5000 
     69 N          -3.0592  -23.7257  -46.3521 N.am      12 UNK        -0.5000 
     70 CA         -3.8321  -24.8520  -46.8783 C.3       12 UNK         0.1400 
     71 CB         -5.2596  -24.7880  -46.3177 C.3       12 UNK        -0.1800 
     72 C          -3.1875  -26.2170  -46.5746 C.2       12 UNK         0.5000 
     73 O          -3.3286  -27.1417  -47.3734 O.2       12 UNK        -0.5000 
     74 N          -2.4350  -26.2994  -45.4676 N.am      13 UNK        -0.5000 
     75 CA         -1.6298  -27.4601  -45.0764 C.3       13 UNK         0.1400 
     76 CB         -1.0811  -27.2282  -43.6603 C.3       13 UNK        -0.1800 
     77 C          -0.4784  -27.7663  -46.0576 C.2       13 UNK         0.5000 
     78 O          -0.0747  -28.9233  -46.1758 O.2       13 UNK        -0.5000 
     79 N           0.0073  -26.7318  -46.7572 N.am      14 UNK        -0.5000 
     80 CA          1.0144  -26.8224  -47.8156 C.3       14 UNK         0.1400 
     81 CB          1.9576  -25.6138  -47.6845 C.3       14 UNK        -0.1800 
     82 C           0.3781  -26.8625  -49.2213 C.2       14 UNK         0.5000 
     83 O           1.1123  -26.9025  -50.2088 O.2       14 UNK        -0.5000 
     84 N          -0.9628  -26.8090  -49.2910 N.am      15 UNK        -0.5000 
     85 CA         -1.8086  -26.6877  -50.4860 C.3       15 UNK         0.1400 
     86 CB         -1.6472  -27.9102  -51.4121 C.3       15 UNK        -0.1800 
     87 C          -1.6406  -25.3505  -51.2419 C.2       15 UNK         0.5000 
     88 O          -2.1325  -25.2176  -52.3631 O.2       15 UNK        -0.5000 
     89 N          -0.9857  -24.3640  -50.6143 N.am      16 UNK        -0.5000 
     90 CA         -0.7012  -23.0504  -51.1914 C.3       16 UNK         0.1400 
     91 CB          0.4346  -22.3919  -50.3982 C.3       16 UNK        -0.1800 
     92 C          -1.9410  -22.1424  -51.2506 C.2       16 UNK         0.5000 
     93 O          -1.9853  -21.2299  -52.0750 O.2       16 UNK        -0.5000 
     94 N          -2.9521  -22.4302  -50.4182 N.am      17 UNK        -0.5000 
     95 CA         -4.2463  -21.7407  -50.3985 C.3       17 UNK         0.1400 
     96 CB         -5.0396  -22.1884  -49.1628 C.3       17 UNK        -0.1800 
     97 C          -5.0781  -21.9248  -51.6848 C.2       17 UNK         0.5000 
     98 O          -5.9848  -21.1305  -51.9298 O.2       17 UNK        -0.5000 
     99 N          -4.7528  -22.9467  -52.4898 N.am      18 UNK        -0.5000 
    100 CA        -5.3243  -23.1572  -53.8198 C.3       18 UNK         0.1400 
    101 CB        -5.1151  -24.6238  -54.2267 C.3       18 UNK        -0.1800 
    102 C         -4.7206  -22.2130  -54.8798 C.2       18 UNK         0.5000 
    103 O         -5.3863  -21.9260  -55.8754 O.2       18 UNK        -0.5000 
    104 N         -3.4776  -21.7608  -54.6609 N.am      19 UNK        -0.5000 
    105 CA        -2.7526  -20.8549  -55.5512 C.3       19 UNK         0.1400 
    106 CB        -1.2627  -21.2342  -55.5504 C.3       19 UNK        -0.1800 
    107 C         -2.9359  -19.3855  -55.1366 C.2       19 UNK         0.5000 
    108 O         -3.0748  -18.5236  -56.0057 O.2       19 UNK        -0.5000 
    109 N         -2.9216  -19.1255  -53.8227 N.am      20 UNK        -0.5000 
    110 CA        -3.0974  -17.8038  -53.2237 C.3       20 UNK         0.1400 
    111 CB        -2.7666  -17.8981  -51.7274 C.3       20 UNK        -0.1800 
    112 C         -4.5154  -17.2366  -53.4237 C.2       20 UNK         0.5000 
    113 O         -5.4857  -17.9927  -53.5061 O.2       20 UNK        -0.5000 
    114 N         -4.6003  -15.9035  -53.4545 N.am      21 UNK        -0.5000 
    115 CA        -5.8477  -15.1380  -53.4863 C.3       21 UNK         0.1400 
    116 CB        -5.6758  -13.9620  -54.4610 C.3       21 UNK        -0.1800 
    117 C         -6.2467  -14.6318  -52.0849 C.2       21 UNK         0.5000 
    118 O         -7.3664  -14.1484  -51.9180 O.2       21 UNK        -0.5000 
    119 N         -5.3276  -14.7396  -51.1147 N.am      22 UNK        -0.5000 
    120 CA        -5.4663  -14.3615  -49.6951 C.3       22 UNK         0.1400 
    121 C         -5.4819  -12.8286  -49.4098 C.2       22 UNK         0.5000 
    122 N         -5.3567  -11.9580  -50.4031 N.am      22 UNK        -0.7600 
    123 O         -5.5855  -12.4168  -48.2579 O.2       22 UNK        -0.5000 
    124 C124       -6.6365  -15.0804  -48.9618 C.3       23 UNK        -0.0398 
    125 S125       -6.6376  -16.8986  -49.1434 S.3       23 UNK        -0.2404 
    126 C126       -5.9425  -17.4334  -47.5488 C.3       23 UNK        -0.0205 
    127 H127       -2.1038  -12.1182  -53.6116 H         1 UNK         0.0600 
    128 H128       -3.5637  -12.0232  -52.6245 H         1 UNK         0.0600 
    129 H129       -2.0824  -11.2331  -52.0839 H         1 UNK         0.0600 
    130 H130       -1.0967  -12.3584  -50.4421 H         1 UNK         0.3000 
    131 H131       -1.5137  -15.1761  -49.9147 H         1 UNK         0.0600 
    132 H132        0.3874  -13.1057  -48.6911 H         1 UNK         0.0800 
    133 H133        0.2608  -14.7418  -48.1131 H         1 UNK         0.0800 
    134 H134       -2.3552  -14.4960  -45.5037 H         1 UNK         0.0800 
    135 H135       -0.7784  -15.0513  -45.9922 H         1 UNK         0.0800 
    136 H136       -4.4229  -15.3889  -46.5459 H         1 UNK         0.1150 
    137 H137       -4.1196  -19.1709  -48.5243 H         1 UNK         0.1150 
    138 H138       -0.5689  -16.9747  -47.5571 H         1 UNK         0.1150 
    139 H139       -2.0484  -20.0107  -49.2612 H         1 UNK         0.0800 
    140 H140       -0.7911  -18.8398  -49.5345 H         1 UNK         0.0800 
    141 H141       -1.5783  -20.1437  -45.5783 H         1 UNK         0.0800 
    142 H142       -2.5506  -20.8343  -46.8361 H         1 UNK         0.0800 
    143 H143       -0.0629  -22.3857  -46.0903 H         1 UNK         0.0600 
    144 H144       -0.4312  -22.7328  -43.9860 H         1 UNK         0.3000 
    145 H145       -2.9489  -21.8019  -41.7208 H         1 UNK         0.0600 
    146 H146       -2.4808  -24.0161  -40.6946 H         1 UNK         0.0600 
    147 H147       -3.5277  -24.1741  -42.0960 H         1 UNK         0.0600 
    148 H148       -1.8317  -24.6100  -42.2214 H         1 UNK         0.0600 
    149 H149       -0.9729  -21.1412  -41.1043 H         1 UNK         0.3000 
    150 H150        1.6373  -22.2424  -40.1557 H         1 UNK         0.0600 
    151 H151        3.6071  -21.3576  -41.4440 H         1 UNK         0.0600 
    152 H152        2.6866  -21.5027  -42.9407 H         1 UNK         0.0600 
    153 H153        3.1064  -22.9401  -42.0150 H         1 UNK         0.0600 
    154 H154        1.0581  -19.8446  -41.8435 H         1 UNK         0.3000 
    155 H155       -0.3263  -18.0991  -39.1571 H         1 UNK         0.0600 
    156 H156        1.3091  -16.2697  -39.5895 H         1 UNK         0.0600 
    157 H157        2.4349  -17.4210  -40.3067 H         1 UNK         0.0600 
    158 H158        2.0349  -17.5243  -38.5958 H         1 UNK         0.0600 
    159 H159        0.4556  -17.2497  -41.7738 H         1 UNK         0.3000 
    160 H160       -1.9748  -18.9582  -43.6603 H         1 UNK         0.0600 
    161 H161       -2.1808  -15.9865  -42.9439 H         1 UNK         0.0600 
    162 H162       -3.4566  -17.1691  -42.6758 H         1 UNK         0.0600 
    163 H163       -2.9427  -16.8056  -44.3095 H         1 UNK         0.0600 
    164 H164       -0.3235  -16.7268  -44.3145 H         1 UNK         0.3000 
    165 H165        2.8096  -18.0688  -44.1934 H         1 UNK         0.0600 
    166 H166        1.4862  -17.9490  -46.9453 H         1 UNK         0.0600 
    167 H167        3.2088  -17.9468  -46.5895 H         1 UNK         0.0600 
    168 H168        2.2568  -19.3809  -46.2637 H         1 UNK         0.0600 
    169 H169        2.0371  -15.8776  -45.7563 H         1 UNK         0.3000 
    170 H170        0.9710  -13.6249  -44.0397 H         1 UNK         0.0600 
    171 H171        2.3183  -13.4050  -41.9622 H         1 UNK         0.0600 
    172 H172        3.8094  -13.5988  -42.8787 H         1 UNK         0.0600 
    173 H173        2.7956  -12.1770  -43.1208 H         1 UNK         0.0600 
    174 H174        3.4316  -14.2530  -45.6041 H         1 UNK         0.3000 
    175 H175        2.5092  -11.8614  -48.0938 H         1 UNK         0.0600 
    176 H176        4.9321  -11.4019  -47.9896 H         1 UNK         0.0600 
    177 H177        4.1147  -10.7281  -46.5888 H         1 UNK         0.0600 
    178 H178        5.0493  -12.2067  -46.4253 H         1 UNK         0.0600 
    179 H179        3.1403  -13.6435  -49.1740 H         1 UNK         0.3000 
    180 H180        5.0938  -15.1122  -49.7759 H         1 UNK         0.0600 
    181 H181        5.7311  -17.4841  -49.4634 H         1 UNK         0.0600 
    182 H182        6.3912  -16.5061  -48.1658 H         1 UNK         0.0600 
    183 H183        4.9816  -17.5133  -47.8725 H         1 UNK         0.0600 
    184 H184        2.4971  -16.1753  -49.0123 H         1 UNK         0.3000 
    185 H185        1.6795  -16.8192  -52.3945 H         1 UNK         0.0600 
    186 H186        0.6184  -18.8747  -51.5342 H         1 UNK         0.0600 
    187 H187        2.3544  -19.0979  -51.6104 H         1 UNK         0.0600 
    188 H188        1.5881  -18.8010  -50.0576 H         1 UNK         0.0600 
    189 H189        0.0438  -16.8440  -50.0898 H         1 UNK         0.3000 
    190 H190       -3.4797  -23.1896  -45.5970 H         1 UNK         0.3000 
    191 H191       -3.8797  -24.7511  -47.9638 H         1 UNK         0.0600 
    192 H192       -5.8718  -25.6002  -46.7120 H         1 UNK         0.0600 
    193 H193       -5.2681  -24.8665  -45.2298 H         1 UNK         0.0600 
    194 H194       -5.7485  -23.8522  -46.5890 H         1 UNK         0.0600 
    195 H195       -2.3767  -25.4882  -44.8710 H         1 UNK         0.3000 
    196 H196       -2.2850  -28.3335  -45.0541 H         1 UNK         0.0600 
    197 H197       -0.4882  -28.0807  -43.3263 H         1 UNK         0.0600 
    198 H198       -1.8892  -27.0956  -42.9408 H         1 UNK         0.0600 
    199 H199       -0.4410  -26.3457  -43.6150 H         1 UNK         0.0600 
    200 H200       -0.3988  -25.8163  -46.6171 H         1 UNK         0.3000 
    201 H201        1.6059  -27.7324  -47.6968 H         1 UNK         0.0600 
    202 H202        2.4192  -25.5797  -46.6975 H         1 UNK         0.0600 
    203 H203        1.4320  -24.6711  -47.8412 H         1 UNK         0.0600 
    204 H204        2.7648  -25.6638  -48.4164 H         1 UNK         0.0600 
    205 H205       -1.4738  -26.8189  -48.4173 H         1 UNK         0.3000 
    206 H206       -2.8366  -26.6912  -50.1216 H         1 UNK         0.0600 
    207 H207       -1.7756  -28.8418  -50.8609 H         1 UNK         0.0600 
    208 H208       -2.3942  -27.8998  -52.2067 H         1 UNK         0.0600 
    209 H209       -0.6674  -27.9334  -51.8894 H         1 UNK         0.0600 
    210 H210       -0.6811  -24.5140  -49.6600 H         1 UNK         0.3000 
    211 H211       -0.3575  -23.1888  -52.2187 H         1 UNK         0.0600 
    212 H212        0.2060  -22.3497  -49.3345 H         1 UNK         0.0600 
    213 H213        0.6200  -21.3731  -50.7400 H         1 UNK         0.0600 
    214 H214        1.3648  -22.9485  -50.5128 H         1 UNK         0.0600 
    215 H215       -2.8270  -23.1949  -49.7717 H         1 UNK         0.3000 
    216 H216       -4.0529  -20.6722  -50.3065 H         1 UNK         0.0600 
    217 H217       -5.9781  -21.6383  -49.0827 H         1 UNK         0.0600 
    218 H218       -4.4811  -22.0051  -48.2451 H         1 UNK         0.0600 
    219 H219       -5.2867  -23.2492  -49.2080 H         1 UNK         0.0600 
    220 H220       -4.0033  -23.5673  -52.2165 H         1 UNK         0.3000 
    221 H221       -6.3990  -22.9675  -53.7765 H         1 UNK         0.0600 
    222 H222       -4.0563  -24.8722  -54.3086 H         1 UNK         0.0600 
    223 H223       -5.5643  -25.3034  -53.5023 H         1 UNK         0.0600 
    224 H224       -5.5752  -24.8293  -55.1940 H         1 UNK         0.0600 
    225 H225       -3.0175  -21.9965  -53.7917 H         1 UNK         0.3000 
    226 H226       -3.1232  -20.9644  -56.5727 H         1 UNK         0.0600 
    227 H227       -0.6967  -20.5896  -56.2241 H         1 UNK         0.0600 
    228 H228       -0.8194  -21.1408  -54.5584 H         1 UNK         0.0600 
    229 H229       -1.1184  -22.2613  -55.8857 H         1 UNK         0.0600 
    230 H230       -2.7585  -19.8929  -53.1783 H         1 UNK         0.3000 
    231 H231       -2.3820  -17.1255  -53.6939 H         1 UNK         0.0600 
    232 H232       -2.8472  -16.9282  -51.2367 H         1 UNK         0.0600 
    233 H233       -1.7484  -18.2540  -51.5813 H         1 UNK         0.0600 
    234 H234       -3.4422  -18.5800  -51.2117 H         1 UNK         0.0600 
    235 H235       -3.7483  -15.3628  -53.3185 H         1 UNK         0.3000 
    236 H236       -6.6655  -15.7630  -53.8507 H         1 UNK         0.0600 
    237 H237       -4.8579  -13.3063  -54.1640 H         1 UNK         0.0600 
    238 H238       -5.4669  -14.3181  -55.4699 H         1 UNK         0.0600 
    239 H239       -6.5823  -13.3574  -54.5126 H         1 UNK         0.0600 
    240 H240       -4.4256  -15.1148  -51.3716 H         1 UNK         0.3000 
    241 H241       -4.5396  -14.7059  -49.2368 H         1 UNK         0.0600 
    242 H242       -5.3222  -12.2755  -51.3565 H         1 UNK         0.3800 
    243 H243       -5.3632  -10.9713  -50.1982 H         1 UNK         0.3800 
    244 H244       -7.5941  -14.7111  -49.3309 H         1 UNK         0.0800 
    245 H245       -6.6236  -14.8372  -47.8984 H         1 UNK         0.0800 
    246 H246       -6.3925  -16.8717  -46.7290 H         1 UNK         0.0800 
    247 H247       -6.2135  -18.4771  -47.3824 H         1 UNK         0.0800 
@<TRIPOS>BOND
     1    1    2 1    
     2    1  127 1    
     3    1  128 1    
     4    1  129 1    
     5    2    3 2    
     6    2    4 am   BACKBONE|DICT|INTERRES
     7    4    5 1    
     8    4  130 1    
     9    5    6 1    
    10    5   65 1    
    11    5  131 1    
    12    6    7 1    
    13    6  132 1    
    14    6  133 1    
    15    7    8 1    
    16    8    9 1    
    17    8  134 1    
    18    8  135 1    
    19    9   10 ar   
    20    9   14 ar   
    21   10   11 ar   
    22   10  136 1    
    23   11   12 ar   
    24   11  126 1    
    25   12   13 ar   
    26   12  137 1    
    27   13   14 ar   
    28   13   15 1    
    29   14  138 1    
    30   15   16 1    
    31   15  139 1    
    32   15  140 1    
    33   16   17 1    
    34   17   18 1    
    35   17  141 1    
    36   17  142 1    
    37   18   19 1    
    38   18   67 1    
    39   18  143 1    
    40   19   20 am   BACKBONE|DICT|INTERRES
    41   19  144 1    
    42   20   21 2    
    43   20   22 1    
    44   22   23 1    
    45   22   24 1    
    46   22  145 1    
    47   23  146 1    
    48   23  147 1    
    49   23  148 1    
    50   24   25 am   BACKBONE|DICT|INTERRES
    51   24  149 1    
    52   25   26 2    
    53   25   27 1    
    54   27   28 1    
    55   27   29 1    
    56   27  150 1    
    57   28  151 1    
    58   28  152 1    
    59   28  153 1    
    60   29   30 am   BACKBONE|DICT|INTERRES
    61   29  154 1    
    62   30   31 2    
    63   30   32 1    
    64   32   33 1    
    65   32   34 1    
    66   32  155 1    
    67   33  156 1    
    68   33  157 1    
    69   33  158 1    
    70   34   35 am   BACKBONE|DICT|INTERRES
    71   34  159 1    
    72   35   36 2    
    73   35   37 1    
    74   37   38 1    
    75   37   39 1    
    76   37  160 1    
    77   38  161 1    
    78   38  162 1    
    79   38  163 1    
    80   39   40 am   BACKBONE|DICT|INTERRES
    81   39  164 1    
    82   40   41 2    
    83   40   42 1    
    84   42   43 1    
    85   42   44 1    
    86   42  165 1    
    87   43  166 1    
    88   43  167 1    
    89   43  168 1    
    90   44   45 am   BACKBONE|DICT|INTERRES
    91   44  169 1    
    92   45   46 2    
    93   45   47 1    
    94   47   48 1    
    95   47   49 1    
    96   47  170 1    
    97   48  171 1    
    98   48  172 1    
    99   48  173 1    
   100   49   50 am   BACKBONE|DICT|INTERRES
   101   49  174 1    
   102   50   51 2    
   103   50   52 1    
   104   52   53 1    
   105   52   54 1    
   106   52  175 1    
   107   53  176 1    
   108   53  177 1    
   109   53  178 1    
   110   54   55 am   BACKBONE|DICT|INTERRES
   111   54  179 1    
   112   55   56 2    
   113   55   57 1    
   114   57   58 1    
   115   57   59 1    
   116   57  180 1    
   117   58  181 1    
   118   58  182 1    
   119   58  183 1    
   120   59   60 am   BACKBONE|DICT|INTERRES
   121   59  184 1    
   122   60   61 2    
   123   60   62 1    
   124   62   63 1    
   125   62   64 1    
   126   62  185 1    
   127   63  186 1    
   128   63  187 1    
   129   63  188 1    
   130   64   65 am   BACKBONE|DICT|INTERRES
   131   64  189 1    
   132   65   66 2    
   133   67   68 2    
   134   67   69 am   BACKBONE|DICT|INTERRES
   135   69   70 1    
   136   69  190 1    
   137   70   71 1    
   138   70   72 1    
   139   70  191 1    
   140   71  192 1    
   141   71  193 1    
   142   71  194 1    
   143   72   73 2    
   144   72   74 am   BACKBONE|DICT|INTERRES
   145   74   75 1    
   146   74  195 1    
   147   75   76 1    
   148   75   77 1    
   149   75  196 1    
   150   76  197 1    
   151   76  198 1    
   152   76  199 1    
   153   77   78 2    
   154   77   79 am   BACKBONE|DICT|INTERRES
   155   79   80 1    
   156   79  200 1    
   157   80   81 1    
   158   80   82 1    
   159   80  201 1    
   160   81  202 1    
   161   81  203 1    
   162   81  204 1    
   163   82   83 2    
   164   82   84 am   BACKBONE|DICT|INTERRES
   165   84   85 1    
   166   84  205 1    
   167   85   86 1    
   168   85   87 1    
   169   85  206 1    
   170   86  207 1    
   171   86  208 1    
   172   86  209 1    
   173   87   88 2    
   174   87   89 am   BACKBONE|DICT|INTERRES
   175   89   90 1    
   176   89  210 1    
   177   90   91 1    
   178   90   92 1    
   179   90  211 1    
   180   91  212 1    
   181   91  213 1    
   182   91  214 1    
   183   92   93 2    
   184   92   94 am   BACKBONE|DICT|INTERRES
   185   94   95 1    
   186   94  215 1    
   187   95   96 1    
   188   95   97 1    
   189   95  216 1    
   190   96  217 1    
   191   96  218 1    
   192   96  219 1    
   193   97   98 2    
   194   97   99 am   BACKBONE|DICT|INTERRES
   195   99  100 1    
   196   99  220 1    
   197  100  101 1    
   198  100  102 1    
   199  100  221 1    
   200  101  222 1    
   201  101  223 1    
   202  101  224 1    
   203  102  103 2    
   204  102  104 am   BACKBONE|DICT|INTERRES
   205  104  105 1    
   206  104  225 1    
   207  105  106 1    
   208  105  107 1    
   209  105  226 1    
   210  106  227 1    
   211  106  228 1    
   212  106  229 1    
   213  107  108 2    
   214  107  109 am   BACKBONE|DICT|INTERRES
   215  109  110 1    
   216  109  230 1    
   217  110  111 1    
   218  110  112 1    
   219  110  231 1    
   220  111  232 1    
   221  111  233 1    
   222  111  234 1    
   223  112  113 2    
   224  112  114 am   BACKBONE|DICT|INTERRES
   225  114  115 1    
   226  114  235 1    
   227  115  116 1    
   228  115  117 1    
   229  115  236 1    
   230  116  237 1    
   231  116  238 1    
   232  116  239 1    
   233  117  118 2    
   234  117  119 am   BACKBONE|DICT|INTERRES
   235  119  120 1    
   236  119  240 1    
   237  120  121 1    
   238  120  124 1    
   239  120  241 1    
   240  121  122 am   BACKBONE|DICT|INTERRES
   241  121  123 2    
   242  122  242 1    
   243  122  243 1    
   244  124  125 1    
   245  124  244 1    
   246  124  245 1    
   247  125  126 1    
   248  126  246 1    
   249  126  247 1    
@<TRIPOS>SUBSTRUCTURE
     1 UNK         1 GROUP             0       ****    0 ROOT    
