@<TRIPOS>MOLECULE
3R540
247   249    1
SMALL
USER_CHARGES


@<TRIPOS>ATOM
      1 CA          8.6633  -11.0655  -51.1694 C.3       0 UNK        -0.1800 
      2 C           7.2813  -11.4961  -50.6982 C.2       0 UNK         0.5000 
      3 O           6.4107  -10.6474  -50.5064 O.2       0 UNK        -0.5000 
      4 N           7.0820  -12.8092  -50.5155 N.am      1 UNK        -0.5000 
      5 CA          5.8424  -13.4423  -50.0447 C.3       1 UNK         0.1400 
      6 C6          4.6577  -13.2666  -51.0383 C.3       23 UNK        -0.0398 
      7 S7          3.5740  -14.7345  -51.0912 S.3       23 UNK        -0.2404 
      8 C8          2.0346  -14.0606  -50.4005 C.3       23 UNK        -0.0205 
      9 C9          1.0514  -15.1667  -50.0583 C.ar      23 UNK        -0.0193 
     10 C10        -0.0310  -15.4503  -50.8965 C.ar      23 UNK        -0.1150 
     11 C11        -0.9432  -16.4573  -50.5615 C.ar      23 UNK        -0.0193 
     12 C12        -0.7621  -17.1831  -49.3806 C.ar      23 UNK        -0.1150 
     13 C13         0.3192  -16.9090  -48.5378 C.ar      23 UNK        -0.0193 
     14 C14         1.2200  -15.8993  -48.8819 C.ar      23 UNK        -0.1150 
     15 C15         0.5037  -17.6757  -47.2398 C.3       23 UNK        -0.0205 
     16 S16         1.3577  -19.2631  -47.4882 S.3       23 UNK        -0.2404 
     17 C17        -0.0372  -20.3013  -48.0311 C.3       23 UNK        -0.0398 
     18 CA         -0.0082  -21.7441  -47.4722 C.3       11 UNK         0.1400 
     19 N           0.1949  -21.8179  -46.0210 N.am      11 UNK        -0.5000 
     20 C           0.4676  -22.9503  -45.3543 C.2       10 UNK         0.5000 
     21 O           0.6012  -24.0455  -45.8980 O.2       10 UNK        -0.5000 
     22 CA          0.5557  -22.8587  -43.8201 C.3       10 UNK         0.1400 
     23 CB          1.9589  -22.4112  -43.3858 C.3       10 UNK        -0.1800 
     24 N          -0.4456  -21.9555  -43.2537 N.am      10 UNK        -0.5000 
     25 C          -1.7711  -22.1563  -43.3275 C.2       9 UNK         0.5000 
     26 O          -2.2779  -23.1641  -43.8204 O.2       9 UNK        -0.5000 
     27 CA         -2.6912  -21.0291  -42.8144 C.3       9 UNK         0.1400 
     28 CB         -3.1346  -21.3146  -41.3725 C.3       9 UNK        -0.1800 
     29 N          -2.0819  -19.6995  -42.8730 N.am      9 UNK        -0.5000 
     30 C          -1.6191  -19.1042  -43.9812 C.2       8 UNK         0.5000 
     31 O          -1.7380  -19.5832  -45.1106 O.2       8 UNK        -0.5000 
     32 CA         -0.8434  -17.7848  -43.7928 C.3       8 UNK         0.1400 
     33 CB         -1.7140  -16.5874  -44.1958 C.3       8 UNK        -0.1800 
     34 N          -0.3046  -17.5642  -42.4453 N.am      8 UNK        -0.5000 
     35 C           0.5923  -18.3525  -41.8317 C.2       7 UNK         0.5000 
     36 O           0.9947  -19.4166  -42.3056 O.2       7 UNK        -0.5000 
     37 CA          1.0855  -17.8838  -40.4464 C.3       7 UNK         0.1400 
     38 CB          2.3801  -18.5912  -39.9926 C.3       7 UNK        -0.1800 
     39 N           1.2107  -16.4245  -40.3516 N.am      7 UNK        -0.5000 
     40 C           2.0464  -15.6332  -41.0399 C.2       6 UNK         0.5000 
     41 O           2.8987  -16.0436  -41.8289 O.2       6 UNK        -0.5000 
     42 CA          1.8841  -14.1185  -40.8008 C.3       6 UNK         0.1400 
     43 CB          3.2311  -13.3801  -40.8861 C.3       6 UNK        -0.1800 
     44 N           0.9580  -13.4997  -41.7480 N.am      6 UNK        -0.5000 
     45 C          -0.3498  -13.7493  -41.8852 C.2       5 UNK         0.5000 
     46 O          -0.9637  -14.5750  -41.2079 O.2       5 UNK        -0.5000 
     47 CA         -1.1080  -12.9496  -42.9667 C.3       5 UNK         0.1400 
     48 CB         -1.3847  -11.5044  -42.5099 C.3       5 UNK        -0.1800 
     49 N          -0.4795  -12.9936  -44.2943 N.am      5 UNK        -0.5000 
     50 C           0.7005  -12.4925  -44.6829 C.2       4 UNK         0.5000 
     51 O           1.4270  -11.7927  -43.9734 O.2       4 UNK        -0.5000 
     52 CA          1.1774  -12.9006  -46.0906 C.3       4 UNK         0.1400 
     53 CB          1.4101  -11.6550  -46.9602 C.3       4 UNK        -0.1800 
     54 N           2.4086  -13.6934  -46.0327 N.am      4 UNK        -0.5000 
     55 C           2.5780  -14.8170  -45.3141 C.2       3 UNK         0.5000 
     56 O           1.6573  -15.3796  -44.7223 O.2       3 UNK        -0.5000 
     57 CA          3.9909  -15.4395  -45.2515 C.3       3 UNK         0.1400 
     58 CB          4.0035  -16.8436  -45.8781 C.3       3 UNK        -0.1800 
     59 N           5.0270  -14.6307  -45.8963 N.am      3 UNK        -0.5000 
     60 C           5.5353  -13.4893  -45.4125 C.2       2 UNK         0.5000 
     61 O           5.2377  -13.0263  -44.3117 O.2       2 UNK        -0.5000 
     62 CA          6.5284  -12.7204  -46.3108 C.3       2 UNK         0.1400 
     63 CB          7.9555  -12.8294  -45.7510 C.3       2 UNK        -0.1800 
     64 N           6.5463  -13.1315  -47.7206 N.am      2 UNK        -0.5000 
     65 C           5.5233  -13.0386  -48.5841 C.2       1 UNK         0.5000 
     66 O           4.3998  -12.6527  -48.2584 O.2       1 UNK        -0.5000 
     67 C          -1.3130  -22.4527  -47.8687 C.2       11 UNK         0.5000 
     68 O          -1.3319  -23.2015  -48.8473 O.2       11 UNK        -0.5000 
     69 N          -2.3759  -22.1969  -47.0900 N.am      12 UNK        -0.5000 
     70 CA         -3.7064  -22.7782  -47.2572 C.3       12 UNK         0.1400 
     71 CB         -4.6740  -22.1560  -46.2396 C.3       12 UNK        -0.1800 
     72 C          -3.6843  -24.3107  -47.1577 C.2       12 UNK         0.5000 
     73 O          -4.2159  -24.9804  -48.0435 O.2       12 UNK        -0.5000 
     74 N          -3.0119  -24.8227  -46.1179 N.am      13 UNK        -0.5000 
     75 CA         -2.7774  -26.2475  -45.8936 C.3       13 UNK         0.1400 
     76 CB         -2.1481  -26.4418  -44.5056 C.3       13 UNK        -0.1800 
     77 C          -1.9006  -26.8992  -46.9794 C.2       13 UNK         0.5000 
     78 O          -2.1460  -28.0531  -47.3339 O.2       13 UNK        -0.5000 
     79 N          -0.9010  -26.1605  -47.4837 N.am      14 UNK        -0.5000 
     80 CA          0.0038  -26.6133  -48.5382 C.3       14 UNK         0.1400 
     81 CB          1.2202  -25.6791  -48.6372 C.3       14 UNK        -0.1800 
     82 C          -0.6927  -26.7566  -49.9017 C.2       14 UNK         0.5000 
     83 O          -0.5859  -27.8209  -50.5137 O.2       14 UNK        -0.5000 
     84 N          -1.3853  -25.7010  -50.3557 N.am      15 UNK        -0.5000 
     85 CA         -2.0404  -25.6791  -51.6674 C.3       15 UNK         0.1400 
     86 CB         -0.9897  -25.6036  -52.7949 C.3       15 UNK        -0.1800 
     87 C          -3.0576  -24.5448  -51.8589 C.2       15 UNK         0.5000 
     88 O          -3.9548  -24.7021  -52.6871 O.2       15 UNK        -0.5000 
     89 N          -2.9151  -23.4128  -51.1533 N.am      16 UNK        -0.5000 
     90 CA         -3.6436  -22.1768  -51.4669 C.3       16 UNK         0.1400 
     91 CB         -3.0041  -20.9789  -50.7471 C.3       16 UNK        -0.1800 
     92 C          -5.1618  -22.2285  -51.2131 C.2       16 UNK         0.5000 
     93 O          -5.8755  -21.3835  -51.7583 O.2       16 UNK        -0.5000 
     94 N          -5.6368  -23.1954  -50.4147 N.am      17 UNK        -0.5000 
     95 CA         -7.0639  -23.4643  -50.2221 C.3       17 UNK         0.1400 
     96 CB         -7.2942  -24.1271  -48.8572 C.3       17 UNK        -0.1800 
     97 C          -7.6335  -24.3479  -51.3445 C.2       17 UNK         0.5000 
     98 O          -8.7634  -24.1218  -51.7758 O.2       17 UNK        -0.5000 
     99 N          -6.8370  -25.3184  -51.8151 N.am      18 UNK        -0.5000 
    100 CA        -7.1867  -26.2266  -52.9099 C.3       18 UNK         0.1400 
    101 CB        -6.2268  -27.4266  -52.9060 C.3       18 UNK        -0.1800 
    102 C         -7.1683  -25.5126  -54.2721 C.2       18 UNK         0.5000 
    103 O         -8.0532  -25.7411  -55.0972 O.2       18 UNK        -0.5000 
    104 N         -6.1812  -24.6263  -54.4587 N.am      19 UNK        -0.5000 
    105 CA        -6.0629  -23.7277  -55.6073 C.3       19 UNK         0.1400 
    106 CB        -4.6289  -23.1762  -55.6502 C.3       19 UNK        -0.1800 
    107 C         -7.0771  -22.5661  -55.5711 C.2       19 UNK         0.5000 
    108 O         -7.2961  -21.9298  -56.6023 O.2       19 UNK        -0.5000 
    109 N         -7.6514  -22.3019  -54.3861 N.am      20 UNK        -0.5000 
    110 CA        -8.5740  -21.2092  -54.0560 C.3       20 UNK         0.1400 
    111 CB        -9.9185  -21.3832  -54.7916 C.3       20 UNK        -0.1800 
    112 C         -7.9430  -19.8148  -54.2606 C.2       20 UNK         0.5000 
    113 O         -8.6317  -18.8669  -54.6426 O.2       20 UNK        -0.5000 
    114 N         -6.6319  -19.7267  -54.0066 N.am      21 UNK        -0.5000 
    115 CA        -5.8348  -18.5104  -54.1102 C.3       21 UNK         0.1400 
    116 CB        -4.3632  -18.8868  -54.3533 C.3       21 UNK        -0.1800 
    117 C         -5.9857  -17.6506  -52.8473 C.2       21 UNK         0.5000 
    118 O         -6.3197  -16.4700  -52.9543 O.2       21 UNK        -0.5000 
    119 N         -5.7500  -18.2701  -51.6832 N.am      22 UNK        -0.5000 
    120 CA        -5.8129  -17.6357  -50.3542 C.3       22 UNK         0.1400 
    121 C         -6.5464  -18.5054  -49.2923 C.2       22 UNK         0.5000 
    122 N         -6.9934  -19.7183  -49.5972 N.am      22 UNK        -0.7600 
    123 O         -6.7375  -18.0608  -48.1642 O.2       22 UNK        -0.5000 
    124 C124       -4.4185  -17.1745  -49.8389 C.3       23 UNK        -0.0398 
    125 S125       -3.6314  -15.9082  -50.8979 S.3       23 UNK        -0.2404 
    126 C126       -2.1251  -16.7527  -51.4733 C.3       23 UNK        -0.0205 
    127 H127        9.3305  -11.9172  -51.3037 H         1 UNK         0.0600 
    128 H128        9.1146  -10.3919  -50.4410 H         1 UNK         0.0600 
    129 H129        8.5881  -10.5395  -52.1211 H         1 UNK         0.0600 
    130 H130        7.8456  -13.4451  -50.7011 H         1 UNK         0.3000 
    131 H131        6.0849  -14.5055  -50.0039 H         1 UNK         0.0600 
    132 H132        4.0857  -12.3594  -50.8353 H         1 UNK         0.0800 
    133 H133        5.0415  -13.1414  -52.0516 H         1 UNK         0.0800 
    134 H134        1.5951  -13.3549  -51.1070 H         1 UNK         0.0800 
    135 H135        2.2605  -13.4969  -49.4971 H         1 UNK         0.0800 
    136 H136       -0.1676  -14.8823  -51.8060 H         1 UNK         0.1150 
    137 H137       -1.4682  -17.9551  -49.1146 H         1 UNK         0.1150 
    138 H138        2.0553  -15.6772  -48.2339 H         1 UNK         0.1150 
    139 H139       -0.4647  -17.8289  -46.7651 H         1 UNK         0.0800 
    140 H140        1.0876  -17.0815  -46.5412 H         1 UNK         0.0800 
    141 H141       -0.0315  -20.3200  -49.1225 H         1 UNK         0.0800 
    142 H142       -0.9688  -19.8115  -47.7441 H         1 UNK         0.0800 
    143 H143        0.8192  -22.2728  -47.9500 H         1 UNK         0.0600 
    144 H144        0.0514  -20.9610  -45.5041 H         1 UNK         0.3000 
    145 H145        0.3746  -23.8565  -43.4150 H         1 UNK         0.0600 
    146 H146        2.7191  -23.1028  -43.7511 H         1 UNK         0.0600 
    147 H147        2.0443  -22.3765  -42.2996 H         1 UNK         0.0600 
    148 H148        2.2035  -21.4209  -43.7722 H         1 UNK         0.0600 
    149 H149       -0.0969  -21.0917  -42.8510 H         1 UNK         0.3000 
    150 H150       -3.5782  -21.0116  -43.4496 H         1 UNK         0.0600 
    151 H151       -2.2885  -21.3144  -40.6841 H         1 UNK         0.0600 
    152 H152       -3.6182  -22.2897  -41.2986 H         1 UNK         0.0600 
    153 H153       -3.8520  -20.5709  -41.0249 H         1 UNK         0.0600 
    154 H154       -1.9358  -19.2305  -41.9917 H         1 UNK         0.3000 
    155 H155        0.0149  -17.8270  -44.4637 H         1 UNK         0.0600 
    156 H156       -1.1154  -15.6806  -44.2456 H         1 UNK         0.0600 
    157 H157       -2.5260  -16.4214  -43.4869 H         1 UNK         0.0600 
    158 H158       -2.1587  -16.7332  -45.1812 H         1 UNK         0.0600 
    159 H159       -0.5740  -16.7026  -41.9870 H         1 UNK         0.3000 
    160 H160        0.3010  -18.1640  -39.7422 H         1 UNK         0.0600 
    161 H161        3.1995  -18.4301  -40.6934 H         1 UNK         0.0600 
    162 H162        2.2284  -19.6684  -39.9143 H         1 UNK         0.0600 
    163 H163        2.7008  -18.2377  -39.0128 H         1 UNK         0.0600 
    164 H164        0.5158  -15.9707  -39.7733 H         1 UNK         0.3000 
    165 H165        1.4869  -13.9707  -39.7947 H         1 UNK         0.0600 
    166 H166        3.9615  -13.8176  -40.2045 H         1 UNK         0.0600 
    167 H167        3.6514  -13.4239  -41.8923 H         1 UNK         0.0600 
    168 H168        3.1225  -12.3295  -40.6164 H         1 UNK         0.0600 
    169 H169        1.3615  -12.8330  -42.4006 H         1 UNK         0.3000 
    170 H170       -2.0766  -13.4373  -43.0883 H         1 UNK         0.0600 
    171 H171       -1.9718  -10.9628  -43.2516 H         1 UNK         0.0600 
    172 H172       -0.4662  -10.9438  -42.3350 H         1 UNK         0.0600 
    173 H173       -1.9507  -11.4956  -41.5777 H         1 UNK         0.0600 
    174 H174       -0.9660  -13.5770  -44.9599 H         1 UNK         0.3000 
    175 H175        0.4108  -13.5144  -46.5678 H         1 UNK         0.0600 
    176 H176        0.5169  -11.0300  -46.9949 H         1 UNK         0.0600 
    177 H177        2.2259  -11.0423  -46.5741 H         1 UNK         0.0600 
    178 H178        1.6542  -11.9231  -47.9862 H         1 UNK         0.0600 
    179 H179        3.2079  -13.3088  -46.5210 H         1 UNK         0.3000 
    180 H180        4.2460  -15.5399  -44.1947 H         1 UNK         0.0600 
    181 H181        3.7539  -16.8165  -46.9392 H         1 UNK         0.0600 
    182 H182        3.2821  -17.4978  -45.3864 H         1 UNK         0.0600 
    183 H183        4.9820  -17.3126  -45.7752 H         1 UNK         0.0600 
    184 H184        5.3312  -14.9321  -46.8097 H         1 UNK         0.3000 
    185 H185        6.2313  -11.6701  -46.2820 H         1 UNK         0.0600 
    186 H186        7.9970  -12.4956  -44.7133 H         1 UNK         0.0600 
    187 H187        8.3204  -13.8568  -45.7799 H         1 UNK         0.0600 
    188 H188        8.6507  -12.2086  -46.3166 H         1 UNK         0.0600 
    189 H189        7.4360  -13.4521  -48.0745 H         1 UNK         0.3000 
    190 H190       -2.2544  -21.5610  -46.3122 H         1 UNK         0.3000 
    191 H191       -4.0617  -22.5187  -48.2530 H         1 UNK         0.0600 
    192 H192       -4.7039  -21.0703  -46.3357 H         1 UNK         0.0600 
    193 H193       -5.6893  -22.5220  -46.3870 H         1 UNK         0.0600 
    194 H194       -4.3947  -22.3954  -45.2149 H         1 UNK         0.0600 
    195 H195       -2.6331  -24.1884  -45.4195 H         1 UNK         0.3000 
    196 H196       -3.7465  -26.7505  -45.9037 H         1 UNK         0.0600 
    197 H197       -1.9759  -27.4985  -44.2973 H         1 UNK         0.0600 
    198 H198       -2.7991  -26.0568  -43.7205 H         1 UNK         0.0600 
    199 H199       -1.1888  -25.9286  -44.4250 H         1 UNK         0.0600 
    200 H200       -0.7266  -25.2396  -47.0999 H         1 UNK         0.3000 
    201 H201        0.3747  -27.6007  -48.2549 H         1 UNK         0.0600 
    202 H202        1.8954  -26.0004  -49.4312 H         1 UNK         0.0600 
    203 H203        1.7916  -25.6790  -47.7092 H         1 UNK         0.0600 
    204 H204        0.9291  -24.6513  -48.8517 H         1 UNK         0.0600 
    205 H205       -1.4459  -24.8666  -49.7793 H         1 UNK         0.3000 
    206 H206       -2.6020  -26.6091  -51.7798 H         1 UNK         0.0600 
    207 H207       -0.3530  -26.4875  -52.8174 H         1 UNK         0.0600 
    208 H208       -1.4658  -25.5339  -53.7742 H         1 UNK         0.0600 
    209 H209       -0.3459  -24.7307  -52.6806 H         1 UNK         0.0600 
    210 H210       -2.1926  -23.3403  -50.4424 H         1 UNK         0.3000 
    211 H211       -3.5202  -22.0032  -52.5378 H         1 UNK         0.0600 
    212 H212       -1.9281  -20.9419  -50.9178 H         1 UNK         0.0600 
    213 H213       -3.4183  -20.0419  -51.1178 H         1 UNK         0.0600 
    214 H214       -3.1749  -21.0006  -49.6729 H         1 UNK         0.0600 
    215 H215       -4.9863  -23.8400  -49.9849 H         1 UNK         0.3000 
    216 H216       -7.6140  -22.5213  -50.2299 H         1 UNK         0.0600 
    217 H217       -6.7895  -25.0908  -48.7836 H         1 UNK         0.0600 
    218 H218       -8.3568  -24.3011  -48.6833 H         1 UNK         0.0600 
    219 H219       -6.9347  -23.4945  -48.0481 H         1 UNK         0.0600 
    220 H220       -5.9000  -25.3986  -51.4487 H         1 UNK         0.3000 
    221 H221       -8.1989  -26.5997  -52.7392 H         1 UNK         0.0600 
    222 H222       -5.1927  -27.1204  -53.0673 H         1 UNK         0.0600 
    223 H223       -6.2731  -27.9651  -51.9593 H         1 UNK         0.0600 
    224 H224       -6.4855  -28.1339  -53.6949 H         1 UNK         0.0600 
    225 H225       -5.4501  -24.5615  -53.7530 H         1 UNK         0.3000 
    226 H226       -6.2422  -24.3006  -56.5194 H         1 UNK         0.0600 
    227 H227       -3.8971  -23.9823  -55.7065 H         1 UNK         0.0600 
    228 H228       -4.4797  -22.5390  -56.5228 H         1 UNK         0.0600 
    229 H229       -4.4019  -22.5800  -54.7659 H         1 UNK         0.0600 
    230 H230       -7.4003  -22.8996  -53.6123 H         1 UNK         0.3000 
    231 H231       -8.7715  -21.2950  -52.9864 H         1 UNK         0.0600 
    232 H232       -9.8133  -21.2468  -55.8682 H         1 UNK         0.0600 
    233 H233      -10.6530  -20.6577  -54.4405 H         1 UNK         0.0600 
    234 H234      -10.3352  -22.3754  -54.6176 H         1 UNK         0.0600 
    235 H235       -6.1777  -20.5407  -53.6122 H         1 UNK         0.3000 
    236 H236       -6.1803  -17.9260  -54.9658 H         1 UNK         0.0600 
    237 H237       -3.9628  -19.5117  -53.5547 H         1 UNK         0.0600 
    238 H238       -4.2488  -19.4321  -55.2904 H         1 UNK         0.0600 
    239 H239       -3.7384  -17.9950  -54.4170 H         1 UNK         0.0600 
    240 H240       -5.5377  -19.2581  -51.6967 H         1 UNK         0.3000 
    241 H241       -6.4384  -16.7447  -50.4330 H         1 UNK         0.0600 
    242 H242       -6.8430  -20.1355  -50.5054 H         1 UNK         0.3800 
    243 H243       -7.4818  -20.2371  -48.8858 H         1 UNK         0.3800 
    244 H244       -3.7591  -18.0345  -49.7250 H         1 UNK         0.0800 
    245 H245       -4.5067  -16.7354  -48.8437 H         1 UNK         0.0800 
    246 H246       -2.2909  -17.8278  -51.5509 H         1 UNK         0.0800 
    247 H247       -1.9054  -16.4123  -52.4863 H         1 UNK         0.0800 
@<TRIPOS>BOND
     1    1    2 1    
     2    1  127 1    
     3    1  128 1    
     4    1  129 1    
     5    2    3 2    
     6    2    4 am   BACKBONE|DICT|INTERRES
     7    4    5 1    
     8    4  130 1    
     9    5    6 1    
    10    5   65 1    
    11    5  131 1    
    12    6    7 1    
    13    6  132 1    
    14    6  133 1    
    15    7    8 1    
    16    8    9 1    
    17    8  134 1    
    18    8  135 1    
    19    9   10 ar   
    20    9   14 ar   
    21   10   11 ar   
    22   10  136 1    
    23   11   12 ar   
    24   11  126 1    
    25   12   13 ar   
    26   12  137 1    
    27   13   14 ar   
    28   13   15 1    
    29   14  138 1    
    30   15   16 1    
    31   15  139 1    
    32   15  140 1    
    33   16   17 1    
    34   17   18 1    
    35   17  141 1    
    36   17  142 1    
    37   18   19 1    
    38   18   67 1    
    39   18  143 1    
    40   19   20 am   BACKBONE|DICT|INTERRES
    41   19  144 1    
    42   20   21 2    
    43   20   22 1    
    44   22   23 1    
    45   22   24 1    
    46   22  145 1    
    47   23  146 1    
    48   23  147 1    
    49   23  148 1    
    50   24   25 am   BACKBONE|DICT|INTERRES
    51   24  149 1    
    52   25   26 2    
    53   25   27 1    
    54   27   28 1    
    55   27   29 1    
    56   27  150 1    
    57   28  151 1    
    58   28  152 1    
    59   28  153 1    
    60   29   30 am   BACKBONE|DICT|INTERRES
    61   29  154 1    
    62   30   31 2    
    63   30   32 1    
    64   32   33 1    
    65   32   34 1    
    66   32  155 1    
    67   33  156 1    
    68   33  157 1    
    69   33  158 1    
    70   34   35 am   BACKBONE|DICT|INTERRES
    71   34  159 1    
    72   35   36 2    
    73   35   37 1    
    74   37   38 1    
    75   37   39 1    
    76   37  160 1    
    77   38  161 1    
    78   38  162 1    
    79   38  163 1    
    80   39   40 am   BACKBONE|DICT|INTERRES
    81   39  164 1    
    82   40   41 2    
    83   40   42 1    
    84   42   43 1    
    85   42   44 1    
    86   42  165 1    
    87   43  166 1    
    88   43  167 1    
    89   43  168 1    
    90   44   45 am   BACKBONE|DICT|INTERRES
    91   44  169 1    
    92   45   46 2    
    93   45   47 1    
    94   47   48 1    
    95   47   49 1    
    96   47  170 1    
    97   48  171 1    
    98   48  172 1    
    99   48  173 1    
   100   49   50 am   BACKBONE|DICT|INTERRES
   101   49  174 1    
   102   50   51 2    
   103   50   52 1    
   104   52   53 1    
   105   52   54 1    
   106   52  175 1    
   107   53  176 1    
   108   53  177 1    
   109   53  178 1    
   110   54   55 am   BACKBONE|DICT|INTERRES
   111   54  179 1    
   112   55   56 2    
   113   55   57 1    
   114   57   58 1    
   115   57   59 1    
   116   57  180 1    
   117   58  181 1    
   118   58  182 1    
   119   58  183 1    
   120   59   60 am   BACKBONE|DICT|INTERRES
   121   59  184 1    
   122   60   61 2    
   123   60   62 1    
   124   62   63 1    
   125   62   64 1    
   126   62  185 1    
   127   63  186 1    
   128   63  187 1    
   129   63  188 1    
   130   64   65 am   BACKBONE|DICT|INTERRES
   131   64  189 1    
   132   65   66 2    
   133   67   68 2    
   134   67   69 am   BACKBONE|DICT|INTERRES
   135   69   70 1    
   136   69  190 1    
   137   70   71 1    
   138   70   72 1    
   139   70  191 1    
   140   71  192 1    
   141   71  193 1    
   142   71  194 1    
   143   72   73 2    
   144   72   74 am   BACKBONE|DICT|INTERRES
   145   74   75 1    
   146   74  195 1    
   147   75   76 1    
   148   75   77 1    
   149   75  196 1    
   150   76  197 1    
   151   76  198 1    
   152   76  199 1    
   153   77   78 2    
   154   77   79 am   BACKBONE|DICT|INTERRES
   155   79   80 1    
   156   79  200 1    
   157   80   81 1    
   158   80   82 1    
   159   80  201 1    
   160   81  202 1    
   161   81  203 1    
   162   81  204 1    
   163   82   83 2    
   164   82   84 am   BACKBONE|DICT|INTERRES
   165   84   85 1    
   166   84  205 1    
   167   85   86 1    
   168   85   87 1    
   169   85  206 1    
   170   86  207 1    
   171   86  208 1    
   172   86  209 1    
   173   87   88 2    
   174   87   89 am   BACKBONE|DICT|INTERRES
   175   89   90 1    
   176   89  210 1    
   177   90   91 1    
   178   90   92 1    
   179   90  211 1    
   180   91  212 1    
   181   91  213 1    
   182   91  214 1    
   183   92   93 2    
   184   92   94 am   BACKBONE|DICT|INTERRES
   185   94   95 1    
   186   94  215 1    
   187   95   96 1    
   188   95   97 1    
   189   95  216 1    
   190   96  217 1    
   191   96  218 1    
   192   96  219 1    
   193   97   98 2    
   194   97   99 am   BACKBONE|DICT|INTERRES
   195   99  100 1    
   196   99  220 1    
   197  100  101 1    
   198  100  102 1    
   199  100  221 1    
   200  101  222 1    
   201  101  223 1    
   202  101  224 1    
   203  102  103 2    
   204  102  104 am   BACKBONE|DICT|INTERRES
   205  104  105 1    
   206  104  225 1    
   207  105  106 1    
   208  105  107 1    
   209  105  226 1    
   210  106  227 1    
   211  106  228 1    
   212  106  229 1    
   213  107  108 2    
   214  107  109 am   BACKBONE|DICT|INTERRES
   215  109  110 1    
   216  109  230 1    
   217  110  111 1    
   218  110  112 1    
   219  110  231 1    
   220  111  232 1    
   221  111  233 1    
   222  111  234 1    
   223  112  113 2    
   224  112  114 am   BACKBONE|DICT|INTERRES
   225  114  115 1    
   226  114  235 1    
   227  115  116 1    
   228  115  117 1    
   229  115  236 1    
   230  116  237 1    
   231  116  238 1    
   232  116  239 1    
   233  117  118 2    
   234  117  119 am   BACKBONE|DICT|INTERRES
   235  119  120 1    
   236  119  240 1    
   237  120  121 1    
   238  120  124 1    
   239  120  241 1    
   240  121  122 am   BACKBONE|DICT|INTERRES
   241  121  123 2    
   242  122  242 1    
   243  122  243 1    
   244  124  125 1    
   245  124  244 1    
   246  124  245 1    
   247  125  126 1    
   248  126  246 1    
   249  126  247 1    
@<TRIPOS>SUBSTRUCTURE
     1 UNK         1 GROUP             0       ****    0 ROOT    
