@<TRIPOS>MOLECULE
3R540
247   249    1
SMALL
USER_CHARGES


@<TRIPOS>ATOM
      1 CA          7.0953  -17.5815  -48.1223 C.3       0 UNK        -0.1800 
      2 C           5.8112  -16.9521  -47.6005 C.2       0 UNK         0.5000 
      3 O           5.4814  -17.1204  -46.4270 O.2       0 UNK        -0.5000 
      4 N           5.0853  -16.2402  -48.4708 N.am      1 UNK        -0.5000 
      5 CA          3.8418  -15.5279  -48.1520 C.3       1 UNK         0.1400 
      6 C6          3.0183  -15.1801  -49.4226 C.3       23 UNK        -0.0398 
      7 S7          2.8057  -16.5945  -50.5595 S.3       23 UNK        -0.2404 
      8 C8          1.3959  -17.4794  -49.8192 C.3       23 UNK        -0.0205 
      9 C9          0.0377  -17.0003  -50.3146 C.ar      23 UNK        -0.0193 
     10 C10        -0.2305  -16.8975  -51.6840 C.ar      23 UNK        -0.1150 
     11 C11        -1.4956  -16.5096  -52.1350 C.ar      23 UNK        -0.0193 
     12 C12        -2.5081  -16.2594  -51.2044 C.ar      23 UNK        -0.1150 
     13 C13        -2.2591  -16.3730  -49.8334 C.ar      23 UNK        -0.0193 
     14 C14        -0.9775  -16.7193  -49.3957 C.ar      23 UNK        -0.1150 
     15 C15        -3.3761  -16.1206  -48.8306 C.3       23 UNK        -0.0205 
     16 S16        -4.1649  -17.6725  -48.2828 S.3       23 UNK        -0.2404 
     17 C17        -3.0195  -18.2444  -46.9819 C.3       23 UNK        -0.0398 
     18 CA         -2.0678  -19.3730  -47.4516 C.3       11 UNK         0.1400 
     19 N          -0.7956  -19.3581  -46.7211 N.am      11 UNK        -0.5000 
     20 C           0.2901  -20.0673  -47.0612 C.2       10 UNK         0.5000 
     21 O           0.3418  -20.7925  -48.0521 O.2       10 UNK        -0.5000 
     22 CA          1.5016  -20.0060  -46.1135 C.3       10 UNK         0.1400 
     23 CB          2.3228  -18.7287  -46.3328 C.3       10 UNK        -0.1800 
     24 N           1.1117  -20.1031  -44.7094 N.am      10 UNK        -0.5000 
     25 C           0.5603  -21.1903  -44.1529 C.2       9 UNK         0.5000 
     26 O           0.3596  -22.2430  -44.7588 O.2       9 UNK        -0.5000 
     27 CA          0.1216  -21.0636  -42.6839 C.3       9 UNK         0.1400 
     28 CB          1.3117  -21.2690  -41.7345 C.3       9 UNK        -0.1800 
     29 N          -0.5105  -19.7745  -42.4035 N.am      9 UNK        -0.5000 
     30 C          -1.6830  -19.3761  -42.9164 C.2       8 UNK         0.5000 
     31 O          -2.3723  -20.0604  -43.6722 O.2       8 UNK        -0.5000 
     32 CA         -2.1313  -17.9479  -42.5650 C.3       8 UNK         0.1400 
     33 CB         -2.7208  -17.8906  -41.1479 C.3       8 UNK        -0.1800 
     34 N          -1.0404  -16.9809  -42.6773 N.am      8 UNK        -0.5000 
     35 C          -0.4186  -16.6690  -43.8230 C.2       7 UNK         0.5000 
     36 O          -0.6968  -17.1626  -44.9135 O.2       7 UNK        -0.5000 
     37 CA          0.7377  -15.6648  -43.7282 C.3       7 UNK         0.1400 
     38 CB          0.1848  -14.2323  -43.7200 C.3       7 UNK        -0.1800 
     39 N           1.5821  -15.8781  -42.5530 N.am      7 UNK        -0.5000 
     40 C           2.2739  -17.0008  -42.2992 C.2       6 UNK         0.5000 
     41 O           2.2224  -18.0065  -43.0082 O.2       6 UNK        -0.5000 
     42 CA          3.1516  -17.0298  -41.0323 C.3       6 UNK         0.1400 
     43 CB          4.6277  -16.8248  -41.4002 C.3       6 UNK        -0.1800 
     44 N           2.7637  -16.0376  -40.0288 N.am      6 UNK        -0.5000 
     45 C           1.6135  -16.0629  -39.3402 C.2       5 UNK         0.5000 
     46 O           0.7800  -16.9645  -39.4430 O.2       5 UNK        -0.5000 
     47 CA          1.3232  -14.8709  -38.4059 C.3       5 UNK         0.1400 
     48 CB          1.6496  -15.2398  -36.9508 C.3       5 UNK        -0.1800 
     49 N           2.0301  -13.6326  -38.7511 N.am      5 UNK        -0.5000 
     50 C           1.9143  -12.9604  -39.9051 C.2       4 UNK         0.5000 
     51 O           1.2238  -13.3481  -40.8476 O.2       4 UNK        -0.5000 
     52 CA          2.6940  -11.6363  -40.0458 C.3       4 UNK         0.1400 
     53 CB          3.4221  -11.1856  -38.7583 C.3       4 UNK        -0.1800 
     54 N           3.6245  -11.6627  -41.1787 N.am      4 UNK        -0.5000 
     55 C           4.6501  -12.5071  -41.3649 C.2       3 UNK         0.5000 
     56 O           4.9282  -13.4314  -40.5975 O.2       3 UNK        -0.5000 
     57 CA          5.5052  -12.2424  -42.6237 C.3       3 UNK         0.1400 
     58 CB          6.6377  -13.2724  -42.8258 C.3       3 UNK        -0.1800 
     59 N           4.6947  -12.0972  -43.8408 N.am      3 UNK        -0.5000 
     60 C           3.9221  -13.0373  -44.4054 C.2       2 UNK         0.5000 
     61 O           3.7995  -14.1771  -43.9575 O.2       2 UNK        -0.5000 
     62 CA          3.1244  -12.6472  -45.6711 C.3       2 UNK         0.1400 
     63 CB          3.5727  -11.3239  -46.3345 C.3       2 UNK        -0.1800 
     64 N           3.0838  -13.7526  -46.6368 N.am      2 UNK        -0.5000 
     65 C           4.1258  -14.2629  -47.3096 C.2       1 UNK         0.5000 
     66 O           5.2568  -13.7680  -47.3019 O.2       1 UNK        -0.5000 
     67 C          -2.7458  -20.7572  -47.4044 C.2       11 UNK         0.5000 
     68 O          -3.2322  -21.2293  -48.4320 O.2       11 UNK        -0.5000 
     69 N          -2.7130  -21.4193  -46.2390 N.am      12 UNK        -0.5000 
     70 CA         -3.2171  -22.7824  -46.0504 C.3       12 UNK         0.1400 
     71 CB         -3.1777  -23.1426  -44.5580 C.3       12 UNK        -0.1800 
     72 C          -2.4698  -23.8422  -46.8856 C.2       12 UNK         0.5000 
     73 O          -3.0666  -24.8617  -47.2304 O.2       12 UNK        -0.5000 
     74 N          -1.1967  -23.5821  -47.2075 N.am      13 UNK        -0.5000 
     75 CA         -0.3861  -24.4132  -48.0908 C.3       13 UNK         0.1400 
     76 CB          1.0932  -24.2872  -47.6909 C.3       13 UNK        -0.1800 
     77 C          -0.5931  -24.0421  -49.5704 C.2       13 UNK         0.5000 
     78 O          -0.8587  -24.9268  -50.3844 O.2       13 UNK        -0.5000 
     79 N          -0.4319  -22.7525  -49.8980 N.am      14 UNK        -0.5000 
     80 CA         -0.3866  -22.2517  -51.2708 C.3       14 UNK         0.1400 
     81 CB          0.3260  -20.8908  -51.2962 C.3       14 UNK        -0.1800 
     82 C          -1.7680  -22.1366  -51.9283 C.2       14 UNK         0.5000 
     83 O          -1.9267  -22.5616  -53.0724 O.2       14 UNK        -0.5000 
     84 N          -2.7297  -21.5267  -51.2254 N.am      15 UNK        -0.5000 
     85 CA         -4.0875  -21.3180  -51.7229 C.3       15 UNK         0.1400 
     86 CB         -4.6542  -19.9926  -51.1952 C.3       15 UNK        -0.1800 
     87 C          -4.9854  -22.5002  -51.3440 C.2       15 UNK         0.5000 
     88 O          -5.7426  -22.9763  -52.1927 O.2       15 UNK        -0.5000 
     89 N          -4.8612  -22.9619  -50.0909 N.am      16 UNK        -0.5000 
     90 CA         -5.5277  -24.1319  -49.5098 C.3       16 UNK         0.1400 
     91 CB         -4.9479  -25.4251  -50.1199 C.3       16 UNK        -0.1800 
     92 C          -7.0633  -24.0535  -49.6186 C.2       16 UNK         0.5000 
     93 O          -7.6977  -24.9830  -50.1162 O.2       16 UNK        -0.5000 
     94 N          -7.6262  -22.9051  -49.2113 N.am      17 UNK        -0.5000 
     95 CA         -9.0497  -22.5472  -49.3166 C.3       17 UNK         0.1400 
     96 CB         -9.9076  -23.4251  -48.3812 C.3       17 UNK        -0.1800 
     97 C          -9.5586  -22.5426  -50.7772 C.2       17 UNK         0.5000 
     98 O         -10.7001  -22.9216  -51.0429 O.2       17 UNK        -0.5000 
     99 N          -8.6721  -22.1228  -51.6913 N.am      18 UNK        -0.5000 
    100 CA        -8.8194  -22.0673  -53.1484 C.3       18 UNK         0.1400 
    101 CB       -10.0083  -21.1780  -53.5684 C.3       18 UNK        -0.1800 
    102 C         -8.8269  -23.4463  -53.8430 C.2       18 UNK         0.5000 
    103 O         -9.1692  -23.5159  -55.0242 O.2       18 UNK        -0.5000 
    104 N         -8.4190  -24.5140  -53.1389 N.am      19 UNK        -0.5000 
    105 CA        -8.2345  -25.8452  -53.7233 C.3       19 UNK         0.1400 
    106 CB        -8.2184  -26.9091  -52.6161 C.3       19 UNK        -0.1800 
    107 C         -6.9505  -25.9288  -54.5693 C.2       19 UNK         0.5000 
    108 O         -6.9543  -26.5865  -55.6106 O.2       19 UNK        -0.5000 
    109 N         -5.8870  -25.2529  -54.1140 N.am      20 UNK        -0.5000 
    110 CA        -4.6145  -25.1219  -54.8265 C.3       20 UNK         0.1400 
    111 CB        -3.4617  -25.2933  -53.8275 C.3       20 UNK        -0.1800 
    112 C         -4.5300  -23.7728  -55.5651 C.2       20 UNK         0.5000 
    113 O         -3.9458  -23.7084  -56.6469 O.2       20 UNK        -0.5000 
    114 N         -5.1545  -22.7357  -54.9866 N.am      21 UNK        -0.5000 
    115 CA        -5.4155  -21.4067  -55.5530 C.3       21 UNK         0.1400 
    116 CB        -6.3688  -21.5182  -56.7610 C.3       21 UNK        -0.1800 
    117 C         -4.1701  -20.5455  -55.8622 C.2       21 UNK         0.5000 
    118 O         -4.3017  -19.5571  -56.5844 O.2       21 UNK        -0.5000 
    119 N         -3.0103  -20.9064  -55.2922 N.am      22 UNK        -0.5000 
    120 CA        -1.7251  -20.1783  -55.2986 C.3       22 UNK         0.1400 
    121 C         -1.1525  -19.7393  -56.6823 C.2       22 UNK         0.5000 
    122 N         -1.5454  -20.3691  -57.7824 N.am      22 UNK        -0.7600 
    123 O         -0.3050  -18.8539  -56.7623 O.2       22 UNK        -0.5000 
    124 C124       -1.6244  -19.1010  -54.1775 C.3       23 UNK        -0.0398 
    125 S125       -2.7766  -17.6919  -54.3033 S.3       23 UNK        -0.2404 
    126 C126       -1.7660  -16.3399  -53.6241 C.3       23 UNK        -0.0205 
    127 H127        7.9519  -17.2023  -47.5651 H         1 UNK         0.0600 
    128 H128        7.2535  -17.3641  -49.1790 H         1 UNK         0.0600 
    129 H129        7.0591  -18.6640  -47.9998 H         1 UNK         0.0600 
    130 H130        5.4146  -16.1312  -49.4189 H         1 UNK         0.3000 
    131 H131        3.2362  -16.1932  -47.5343 H         1 UNK         0.0600 
    132 H132        2.0324  -14.7960  -49.1547 H         1 UNK         0.0800 
    133 H133        3.5096  -14.3843  -49.9856 H         1 UNK         0.0800 
    134 H134        1.4526  -17.4002  -48.7349 H         1 UNK         0.0800 
    135 H135        1.4948  -18.5395  -50.0514 H         1 UNK         0.0800 
    136 H136        0.5503  -17.1155  -52.3989 H         1 UNK         0.1150 
    137 H137       -3.4928  -15.9791  -51.5515 H         1 UNK         0.1150 
    138 H138       -0.7805  -16.8032  -48.3364 H         1 UNK         0.1150 
    139 H139       -2.9984  -15.5598  -47.9746 H         1 UNK         0.0800 
    140 H140       -4.1415  -15.4889  -49.2840 H         1 UNK         0.0800 
    141 H141       -3.5935  -18.5471  -46.1040 H         1 UNK         0.0800 
    142 H142       -2.4465  -17.3777  -46.6601 H         1 UNK         0.0800 
    143 H143       -1.8160  -19.1920  -48.4983 H         1 UNK         0.0600 
    144 H144       -0.7474  -18.7457  -45.9102 H         1 UNK         0.3000 
    145 H145        2.1437  -20.8603  -46.3382 H         1 UNK         0.0600 
    146 H146        3.1574  -18.6710  -45.6336 H         1 UNK         0.0600 
    147 H147        2.7484  -18.7108  -47.3361 H         1 UNK         0.0600 
    148 H148        1.7195  -17.8299  -46.2034 H         1 UNK         0.0600 
    149 H149        1.2949  -19.2914  -44.1255 H         1 UNK         0.3000 
    150 H150       -0.6112  -21.8487  -42.4861 H         1 UNK         0.0600 
    151 H151        1.7838  -22.2371  -41.9065 H         1 UNK         0.0600 
    152 H152        0.9936  -21.2434  -40.6922 H         1 UNK         0.0600 
    153 H153        2.0760  -20.5031  -41.8707 H         1 UNK         0.0600 
    154 H154        0.0097  -19.1274  -41.8294 H         1 UNK         0.3000 
    155 H155       -2.9118  -17.6605  -43.2728 H         1 UNK         0.0600 
    156 H156       -1.9731  -18.1260  -40.3890 H         1 UNK         0.0600 
    157 H157       -3.5393  -18.6029  -41.0362 H         1 UNK         0.0600 
    158 H158       -3.1202  -16.9004  -40.9277 H         1 UNK         0.0600 
    159 H159       -0.7185  -16.5501  -41.8221 H         1 UNK         0.3000 
    160 H160        1.3695  -15.7876  -44.6101 H         1 UNK         0.0600 
    161 H161        0.9803  -13.5000  -43.5943 H         1 UNK         0.0600 
    162 H162       -0.5272  -14.0800  -42.9077 H         1 UNK         0.0600 
    163 H163       -0.3292  -14.0061  -44.6549 H         1 UNK         0.0600 
    164 H164        1.6728  -15.0928  -41.9182 H         1 UNK         0.3000 
    165 H165        3.0465  -18.0206  -40.5854 H         1 UNK         0.0600 
    166 H166        5.2693  -16.8824  -40.5210 H         1 UNK         0.0600 
    167 H167        4.9650  -17.5884  -42.1024 H         1 UNK         0.0600 
    168 H168        4.7879  -15.8553  -41.8720 H         1 UNK         0.0600 
    169 H169        3.3826  -15.2454  -39.9122 H         1 UNK         0.3000 
    170 H170        0.2530  -14.6654  -38.4738 H         1 UNK         0.0600 
    171 H171        1.1174  -16.1423  -36.6466 H         1 UNK         0.0600 
    172 H172        2.7157  -15.4253  -36.8133 H         1 UNK         0.0600 
    173 H173        1.3547  -14.4450  -36.2654 H         1 UNK         0.0600 
    174 H174        2.6397  -13.2538  -38.0410 H         1 UNK         0.3000 
    175 H175        1.9477  -10.8760  -40.2803 H         1 UNK         0.0600 
    176 H176        4.1949  -11.8907  -38.4500 H         1 UNK         0.0600 
    177 H177        3.9024  -10.2180  -38.9043 H         1 UNK         0.0600 
    178 H178        2.7233  -11.0698  -37.9288 H         1 UNK         0.0600 
    179 H179        3.4541  -10.9689  -41.8924 H         1 UNK         0.3000 
    180 H180        5.9820  -11.2748  -42.4600 H         1 UNK         0.0600 
    181 H181        6.2543  -14.2820  -42.9714 H         1 UNK         0.0600 
    182 H182        7.3001  -13.2982  -41.9598 H         1 UNK         0.0600 
    183 H183        7.2478  -13.0200  -43.6930 H         1 UNK         0.0600 
    184 H184        4.7322  -11.1901  -44.2840 H         1 UNK         0.3000 
    185 H185        2.0949  -12.5003  -45.3460 H         1 UNK         0.0600 
    186 H186        3.3950  -10.4732  -45.6758 H         1 UNK         0.0600 
    187 H187        4.6321  -11.3268  -46.5922 H         1 UNK         0.0600 
    188 H188        3.0109  -11.1372  -47.2498 H         1 UNK         0.0600 
    189 H189        2.1973  -14.2318  -46.6932 H         1 UNK         0.3000 
    190 H190       -2.3379  -20.9579  -45.4151 H         1 UNK         0.3000 
    191 H191       -4.2604  -22.7940  -46.3722 H         1 UNK         0.0600 
    192 H192       -2.1616  -23.1148  -44.1645 H         1 UNK         0.0600 
    193 H193       -3.5690  -24.1462  -44.3869 H         1 UNK         0.0600 
    194 H194       -3.7842  -22.4538  -43.9699 H         1 UNK         0.0600 
    195 H195       -0.7707  -22.7349  -46.8556 H         1 UNK         0.3000 
    196 H196       -0.6718  -25.4598  -47.9649 H         1 UNK         0.0600 
    197 H197        1.7243  -24.9059  -48.3300 H         1 UNK         0.0600 
    198 H198        1.2498  -24.6146  -46.6629 H         1 UNK         0.0600 
    199 H199        1.4524  -23.2608  -47.7690 H         1 UNK         0.0600 
    200 H200       -0.2014  -22.0804  -49.1678 H         1 UNK         0.3000 
    201 H201        0.2073  -22.9473  -51.8678 H         1 UNK         0.0600 
    202 H202        1.3250  -20.9613  -50.8658 H         1 UNK         0.0600 
    203 H203       -0.2282  -20.1369  -50.7354 H         1 UNK         0.0600 
    204 H204        0.4379  -20.5248  -52.3173 H         1 UNK         0.0600 
    205 H205       -2.5580  -21.2677  -50.2596 H         1 UNK         0.3000 
    206 H206       -4.0709  -21.2446  -52.8090 H         1 UNK         0.0600 
    207 H207       -3.9917  -19.1589  -51.4309 H         1 UNK         0.0600 
    208 H208       -5.6216  -19.7766  -51.6500 H         1 UNK         0.0600 
    209 H209       -4.7997  -20.0083  -50.1158 H         1 UNK         0.0600 
    210 H210       -4.2295  -22.4596  -49.4719 H         1 UNK         0.3000 
    211 H211       -5.2985  -24.1300  -48.4445 H         1 UNK         0.0600 
    212 H212       -5.1792  -25.5148  -51.1812 H         1 UNK         0.0600 
    213 H213       -5.3510  -26.3069  -49.6208 H         1 UNK         0.0600 
    214 H214       -3.8636  -25.4581  -50.0104 H         1 UNK         0.0600 
    215 H215       -7.0202  -22.1890  -48.8356 H         1 UNK         0.3000 
    216 H216       -9.1335  -21.5175  -48.9664 H         1 UNK         0.0600 
    217 H217      -10.9386  -23.0709  -48.3499 H         1 UNK         0.0600 
    218 H218       -9.5271  -23.4019  -47.3601 H         1 UNK         0.0600 
    219 H219       -9.9305  -24.4653  -48.7073 H         1 UNK         0.0600 
    220 H220       -7.7473  -21.8949  -51.3557 H         1 UNK         0.3000 
    221 H221       -7.9154  -21.5738  -53.5056 H         1 UNK         0.0600 
    222 H222      -10.9666  -21.6445  -53.3398 H         1 UNK         0.0600 
    223 H223       -9.9755  -20.2110  -53.0666 H         1 UNK         0.0600 
    224 H224       -9.9909  -20.9846  -54.6416 H         1 UNK         0.0600 
    225 H225       -8.1618  -24.4021  -52.1651 H         1 UNK         0.3000 
    226 H226       -9.0839  -26.0578  -54.3761 H         1 UNK         0.0600 
    227 H227       -9.1043  -26.8382  -51.9847 H         1 UNK         0.0600 
    228 H228       -8.2010  -27.9123  -53.0434 H         1 UNK         0.0600 
    229 H229       -7.3406  -26.8142  -51.9763 H         1 UNK         0.0600 
    230 H230       -5.9864  -24.7091  -53.2644 H         1 UNK         0.3000 
    231 H231       -4.5187  -25.9086  -55.5777 H         1 UNK         0.0600 
    232 H232       -3.4410  -26.3060  -53.4251 H         1 UNK         0.0600 
    233 H233       -3.5509  -24.6084  -52.9854 H         1 UNK         0.0600 
    234 H234       -2.4967  -25.1110  -54.3022 H         1 UNK         0.0600 
    235 H235       -5.5387  -22.8911  -54.0598 H         1 UNK         0.3000 
    236 H236       -5.9483  -20.8604  -54.7739 H         1 UNK         0.0600 
    237 H237       -5.8855  -21.9966  -57.6132 H         1 UNK         0.0600 
    238 H238       -7.2571  -22.0981  -56.5110 H         1 UNK         0.0600 
    239 H239       -6.7097  -20.5353  -57.0879 H         1 UNK         0.0600 
    240 H240       -2.9975  -21.7543  -54.7381 H         1 UNK         0.3000 
    241 H241       -1.0096  -20.9462  -55.0037 H         1 UNK         0.0600 
    242 H242       -2.2449  -21.0933  -57.7312 H         1 UNK         0.3800 
    243 H243       -1.1665  -20.0963  -58.6756 H         1 UNK         0.3800 
    244 H244       -0.6019  -18.7252  -54.1213 H         1 UNK         0.0800 
    245 H245       -1.8085  -19.5646  -53.2099 H         1 UNK         0.0800 
    246 H246       -2.2898  -15.3968  -53.7859 H         1 UNK         0.0800 
    247 H247       -0.8323  -16.2667  -54.1842 H         1 UNK         0.0800 
@<TRIPOS>BOND
     1    1    2 1    
     2    1  127 1    
     3    1  128 1    
     4    1  129 1    
     5    2    3 2    
     6    2    4 am   BACKBONE|DICT|INTERRES
     7    4    5 1    
     8    4  130 1    
     9    5    6 1    
    10    5   65 1    
    11    5  131 1    
    12    6    7 1    
    13    6  132 1    
    14    6  133 1    
    15    7    8 1    
    16    8    9 1    
    17    8  134 1    
    18    8  135 1    
    19    9   10 ar   
    20    9   14 ar   
    21   10   11 ar   
    22   10  136 1    
    23   11   12 ar   
    24   11  126 1    
    25   12   13 ar   
    26   12  137 1    
    27   13   14 ar   
    28   13   15 1    
    29   14  138 1    
    30   15   16 1    
    31   15  139 1    
    32   15  140 1    
    33   16   17 1    
    34   17   18 1    
    35   17  141 1    
    36   17  142 1    
    37   18   19 1    
    38   18   67 1    
    39   18  143 1    
    40   19   20 am   BACKBONE|DICT|INTERRES
    41   19  144 1    
    42   20   21 2    
    43   20   22 1    
    44   22   23 1    
    45   22   24 1    
    46   22  145 1    
    47   23  146 1    
    48   23  147 1    
    49   23  148 1    
    50   24   25 am   BACKBONE|DICT|INTERRES
    51   24  149 1    
    52   25   26 2    
    53   25   27 1    
    54   27   28 1    
    55   27   29 1    
    56   27  150 1    
    57   28  151 1    
    58   28  152 1    
    59   28  153 1    
    60   29   30 am   BACKBONE|DICT|INTERRES
    61   29  154 1    
    62   30   31 2    
    63   30   32 1    
    64   32   33 1    
    65   32   34 1    
    66   32  155 1    
    67   33  156 1    
    68   33  157 1    
    69   33  158 1    
    70   34   35 am   BACKBONE|DICT|INTERRES
    71   34  159 1    
    72   35   36 2    
    73   35   37 1    
    74   37   38 1    
    75   37   39 1    
    76   37  160 1    
    77   38  161 1    
    78   38  162 1    
    79   38  163 1    
    80   39   40 am   BACKBONE|DICT|INTERRES
    81   39  164 1    
    82   40   41 2    
    83   40   42 1    
    84   42   43 1    
    85   42   44 1    
    86   42  165 1    
    87   43  166 1    
    88   43  167 1    
    89   43  168 1    
    90   44   45 am   BACKBONE|DICT|INTERRES
    91   44  169 1    
    92   45   46 2    
    93   45   47 1    
    94   47   48 1    
    95   47   49 1    
    96   47  170 1    
    97   48  171 1    
    98   48  172 1    
    99   48  173 1    
   100   49   50 am   BACKBONE|DICT|INTERRES
   101   49  174 1    
   102   50   51 2    
   103   50   52 1    
   104   52   53 1    
   105   52   54 1    
   106   52  175 1    
   107   53  176 1    
   108   53  177 1    
   109   53  178 1    
   110   54   55 am   BACKBONE|DICT|INTERRES
   111   54  179 1    
   112   55   56 2    
   113   55   57 1    
   114   57   58 1    
   115   57   59 1    
   116   57  180 1    
   117   58  181 1    
   118   58  182 1    
   119   58  183 1    
   120   59   60 am   BACKBONE|DICT|INTERRES
   121   59  184 1    
   122   60   61 2    
   123   60   62 1    
   124   62   63 1    
   125   62   64 1    
   126   62  185 1    
   127   63  186 1    
   128   63  187 1    
   129   63  188 1    
   130   64   65 am   BACKBONE|DICT|INTERRES
   131   64  189 1    
   132   65   66 2    
   133   67   68 2    
   134   67   69 am   BACKBONE|DICT|INTERRES
   135   69   70 1    
   136   69  190 1    
   137   70   71 1    
   138   70   72 1    
   139   70  191 1    
   140   71  192 1    
   141   71  193 1    
   142   71  194 1    
   143   72   73 2    
   144   72   74 am   BACKBONE|DICT|INTERRES
   145   74   75 1    
   146   74  195 1    
   147   75   76 1    
   148   75   77 1    
   149   75  196 1    
   150   76  197 1    
   151   76  198 1    
   152   76  199 1    
   153   77   78 2    
   154   77   79 am   BACKBONE|DICT|INTERRES
   155   79   80 1    
   156   79  200 1    
   157   80   81 1    
   158   80   82 1    
   159   80  201 1    
   160   81  202 1    
   161   81  203 1    
   162   81  204 1    
   163   82   83 2    
   164   82   84 am   BACKBONE|DICT|INTERRES
   165   84   85 1    
   166   84  205 1    
   167   85   86 1    
   168   85   87 1    
   169   85  206 1    
   170   86  207 1    
   171   86  208 1    
   172   86  209 1    
   173   87   88 2    
   174   87   89 am   BACKBONE|DICT|INTERRES
   175   89   90 1    
   176   89  210 1    
   177   90   91 1    
   178   90   92 1    
   179   90  211 1    
   180   91  212 1    
   181   91  213 1    
   182   91  214 1    
   183   92   93 2    
   184   92   94 am   BACKBONE|DICT|INTERRES
   185   94   95 1    
   186   94  215 1    
   187   95   96 1    
   188   95   97 1    
   189   95  216 1    
   190   96  217 1    
   191   96  218 1    
   192   96  219 1    
   193   97   98 2    
   194   97   99 am   BACKBONE|DICT|INTERRES
   195   99  100 1    
   196   99  220 1    
   197  100  101 1    
   198  100  102 1    
   199  100  221 1    
   200  101  222 1    
   201  101  223 1    
   202  101  224 1    
   203  102  103 2    
   204  102  104 am   BACKBONE|DICT|INTERRES
   205  104  105 1    
   206  104  225 1    
   207  105  106 1    
   208  105  107 1    
   209  105  226 1    
   210  106  227 1    
   211  106  228 1    
   212  106  229 1    
   213  107  108 2    
   214  107  109 am   BACKBONE|DICT|INTERRES
   215  109  110 1    
   216  109  230 1    
   217  110  111 1    
   218  110  112 1    
   219  110  231 1    
   220  111  232 1    
   221  111  233 1    
   222  111  234 1    
   223  112  113 2    
   224  112  114 am   BACKBONE|DICT|INTERRES
   225  114  115 1    
   226  114  235 1    
   227  115  116 1    
   228  115  117 1    
   229  115  236 1    
   230  116  237 1    
   231  116  238 1    
   232  116  239 1    
   233  117  118 2    
   234  117  119 am   BACKBONE|DICT|INTERRES
   235  119  120 1    
   236  119  240 1    
   237  120  121 1    
   238  120  124 1    
   239  120  241 1    
   240  121  122 am   BACKBONE|DICT|INTERRES
   241  121  123 2    
   242  122  242 1    
   243  122  243 1    
   244  124  125 1    
   245  124  244 1    
   246  124  245 1    
   247  125  126 1    
   248  126  246 1    
   249  126  247 1    
@<TRIPOS>SUBSTRUCTURE
     1 UNK         1 GROUP             0       ****    0 ROOT    
