@<TRIPOS>MOLECULE
3R540
247   249    1
SMALL
USER_CHARGES


@<TRIPOS>ATOM
      1 CA         -3.9834  -14.0408  -51.5932 C.3       0 UNK        -0.1800 
      2 C          -2.8215  -13.3975  -50.8479 C.2       0 UNK         0.5000 
      3 O          -2.8908  -12.2117  -50.5223 O.2       0 UNK        -0.5000 
      4 N          -1.7528  -14.1649  -50.5983 N.am      1 UNK        -0.5000 
      5 CA         -0.5425  -13.7455  -49.8839 C.3       1 UNK         0.1400 
      6 C6          0.5629  -14.8317  -49.9470 C.3       23 UNK        -0.0398 
      7 S7          0.1159  -16.3959  -49.1190 S.3       23 UNK        -0.2404 
      8 C8          1.7353  -17.1611  -48.8131 C.3       23 UNK        -0.0205 
      9 C9          2.1792  -18.0445  -49.9694 C.ar      23 UNK        -0.0193 
     10 C10         2.7135  -17.4773  -51.1287 C.ar      23 UNK        -0.1150 
     11 C11         3.1447  -18.2873  -52.1832 C.ar      23 UNK        -0.0193 
     12 C12         3.0737  -19.6774  -52.0583 C.ar      23 UNK        -0.1150 
     13 C13         2.5370  -20.2579  -50.9056 C.ar      23 UNK        -0.0193 
     14 C14         2.0785  -19.4355  -49.8721 C.ar      23 UNK        -0.1150 
     15 C15         2.4462  -21.7703  -50.7753 C.3       23 UNK        -0.0205 
     16 S16         3.6229  -22.3968  -49.5360 S.3       23 UNK        -0.2404 
     17 C17         3.2695  -24.1906  -49.5789 C.3       23 UNK        -0.0398 
     18 CA          2.4380  -24.7088  -48.3766 C.3       11 UNK         0.1400 
     19 N           3.0487  -24.3383  -47.0979 N.am      11 UNK        -0.5000 
     20 C           2.8252  -24.9405  -45.9238 C.2       10 UNK         0.5000 
     21 O           2.0822  -25.9118  -45.7833 O.2       10 UNK        -0.5000 
     22 CA          3.5250  -24.3273  -44.6941 C.3       10 UNK         0.1400 
     23 CB          4.8750  -25.0165  -44.4457 C.3       10 UNK        -0.1800 
     24 N           3.7347  -22.8767  -44.7864 N.am      10 UNK        -0.5000 
     25 C           2.7507  -21.9745  -44.8940 C.2       9 UNK         0.5000 
     26 O           1.5631  -22.2782  -45.0016 O.2       9 UNK        -0.5000 
     27 CA          3.1549  -20.4942  -44.9152 C.3       9 UNK         0.1400 
     28 CB          2.9409  -19.8896  -46.3099 C.3       9 UNK        -0.1800 
     29 N           2.3465  -19.7632  -43.9442 N.am      9 UNK        -0.5000 
     30 C           2.6697  -19.6328  -42.6502 C.2       8 UNK         0.5000 
     31 O           3.7273  -20.0464  -42.1722 O.2       8 UNK        -0.5000 
     32 CA          1.6634  -18.9244  -41.7227 C.3       8 UNK         0.1400 
     33 CB          2.1417  -17.5016  -41.3949 C.3       8 UNK        -0.1800 
     34 N           0.3059  -18.8815  -42.2721 N.am      8 UNK        -0.5000 
     35 C          -0.5371  -19.9249  -42.2382 C.2       7 UNK         0.5000 
     36 O          -0.2637  -20.9945  -41.6917 O.2       7 UNK        -0.5000 
     37 CA         -1.9176  -19.7680  -42.9077 C.3       7 UNK         0.1400 
     38 CB         -2.9933  -19.4954  -41.8464 C.3       7 UNK        -0.1800 
     39 N          -1.9939  -18.7358  -43.9417 N.am      7 UNK        -0.5000 
     40 C          -1.3060  -18.7467  -45.0914 C.2       6 UNK         0.5000 
     41 O          -0.4186  -19.5620  -45.3362 O.2       6 UNK        -0.5000 
     42 CA         -1.6013  -17.6498  -46.1318 C.3       6 UNK         0.1400 
     43 CB         -2.2280  -18.2346  -47.4073 C.3       6 UNK        -0.1800 
     44 N          -2.3810  -16.5122  -45.6382 N.am      6 UNK        -0.5000 
     45 C          -3.6874  -16.4334  -45.3530 C.2       5 UNK         0.5000 
     46 O          -4.4845  -17.3622  -45.4825 O.2       5 UNK        -0.5000 
     47 CA         -4.1448  -15.0741  -44.7800 C.3       5 UNK         0.1400 
     48 CB         -5.5560  -15.1198  -44.1569 C.3       5 UNK        -0.1800 
     49 N          -3.1623  -14.5233  -43.8340 N.am      5 UNK        -0.5000 
     50 C          -2.7423  -15.0992  -42.6958 C.2       4 UNK         0.5000 
     51 O          -3.2178  -16.1384  -42.2374 O.2       4 UNK        -0.5000 
     52 CA         -1.5450  -14.4182  -42.0019 C.3       4 UNK         0.1400 
     53 CB         -1.0437  -15.2012  -40.7703 C.3       4 UNK        -0.1800 
     54 N          -0.4424  -14.1616  -42.9383 N.am      4 UNK        -0.5000 
     55 C           0.2444  -15.0593  -43.6590 C.2       3 UNK         0.5000 
     56 O           0.0329  -16.2709  -43.6154 O.2       3 UNK        -0.5000 
     57 CA          1.3293  -14.5022  -44.6086 C.3       3 UNK         0.1400 
     58 CB          2.1311  -15.6195  -45.3034 C.3       3 UNK        -0.1800 
     59 N           0.7833  -13.6185  -45.6431 N.am      3 UNK        -0.5000 
     60 C           0.3168  -12.3754  -45.4625 C.2       2 UNK         0.5000 
     61 O           0.2689  -11.8305  -44.3582 O.2       2 UNK        -0.5000 
     62 CA         -0.1681  -11.5951  -46.7032 C.3       2 UNK         0.1400 
     63 CB          0.5541  -10.2414  -46.8119 C.3       2 UNK        -0.1800 
     64 N          -0.0107  -12.3024  -47.9780 N.am      2 UNK        -0.5000 
     65 C          -0.8208  -13.2651  -48.4367 C.2       1 UNK         0.5000 
     66 O          -1.7298  -13.7635  -47.7669 O.2       1 UNK        -0.5000 
     67 C           0.9512  -24.3007  -48.4956 C.2       11 UNK         0.5000 
     68 O           0.2796  -24.7864  -49.4063 O.2       11 UNK        -0.5000 
     69 N           0.4606  -23.4257  -47.6061 N.am      12 UNK        -0.5000 
     70 CA         -0.8959  -22.8788  -47.6367 C.3       12 UNK         0.1400 
     71 CB         -0.8663  -21.4905  -48.2956 C.3       12 UNK        -0.1800 
     72 C          -1.5277  -22.8470  -46.2353 C.2       12 UNK         0.5000 
     73 O          -2.4167  -22.0326  -45.9868 O.2       12 UNK        -0.5000 
     74 N          -1.0893  -23.7548  -45.3501 N.am      13 UNK        -0.5000 
     75 CA         -1.4490  -23.8105  -43.9283 C.3       13 UNK         0.1400 
     76 CB         -0.6645  -24.9517  -43.2644 C.3       13 UNK        -0.1800 
     77 C          -2.9590  -23.9512  -43.6427 C.2       13 UNK         0.5000 
     78 O          -3.4193  -23.5333  -42.5802 O.2       13 UNK        -0.5000 
     79 N          -3.7028  -24.5116  -44.6057 N.am      14 UNK        -0.5000 
     80 CA         -5.1617  -24.6276  -44.5936 C.3       14 UNK         0.1400 
     81 CB         -5.5681  -25.7031  -45.6149 C.3       14 UNK        -0.1800 
     82 C          -5.8994  -23.3024  -44.8896 C.2       14 UNK         0.5000 
     83 O          -7.1211  -23.2624  -44.7398 O.2       14 UNK        -0.5000 
     84 N          -5.1683  -22.2632  -45.3268 N.am      15 UNK        -0.5000 
     85 CA         -5.6525  -20.9446  -45.7555 C.3       15 UNK         0.1400 
     86 CB         -6.3398  -20.1965  -44.5938 C.3       15 UNK        -0.1800 
     87 C          -6.5193  -21.0120  -47.0324 C.2       15 UNK         0.5000 
     88 O          -7.4418  -20.2120  -47.2010 O.2       15 UNK        -0.5000 
     89 N          -6.2138  -21.9798  -47.9089 N.am      16 UNK        -0.5000 
     90 CA         -6.8781  -22.1874  -49.1938 C.3       16 UNK         0.1400 
     91 CB         -6.4827  -23.5661  -49.7446 C.3       16 UNK        -0.1800 
     92 C          -6.5048  -21.0803  -50.1932 C.2       16 UNK         0.5000 
     93 O          -5.3247  -20.7452  -50.3103 O.2       16 UNK        -0.5000 
     94 N          -7.5041  -20.5575  -50.9155 N.am      17 UNK        -0.5000 
     95 CA         -7.3630  -19.4365  -51.8504 C.3       17 UNK         0.1400 
     96 CB         -8.7506  -19.0291  -52.3680 C.3       17 UNK        -0.1800 
     97 C          -6.4095  -19.7153  -53.0268 C.2       17 UNK         0.5000 
     98 O          -5.6835  -18.8140  -53.4435 O.2       17 UNK        -0.5000 
     99 N          -6.4039  -20.9612  -53.5206 N.am      18 UNK        -0.5000 
    100 CA        -5.5053  -21.4164  -54.5830 C.3       18 UNK         0.1400 
    101 CB        -5.9699  -22.7887  -55.0930 C.3       18 UNK        -0.1800 
    102 C         -4.0385  -21.4749  -54.1209 C.2       18 UNK         0.5000 
    103 O         -3.1455  -21.0712  -54.8664 O.2       18 UNK        -0.5000 
    104 N         -3.8216  -21.9431  -52.8843 N.am      19 UNK        -0.5000 
    105 CA        -2.5060  -22.0150  -52.2506 C.3       19 UNK         0.1400 
    106 CB        -2.5781  -22.9395  -51.0282 C.3       19 UNK        -0.1800 
    107 C         -1.9792  -20.6198  -51.8727 C.2       19 UNK         0.5000 
    108 O         -0.7963  -20.3473  -52.0683 O.2       19 UNK        -0.5000 
    109 N         -2.8801  -19.7424  -51.4065 N.am      20 UNK        -0.5000 
    110 CA        -2.6183  -18.3280  -51.1313 C.3       20 UNK         0.1400 
    111 CB        -3.8638  -17.7009  -50.4858 C.3       20 UNK        -0.1800 
    112 C         -2.2175  -17.5286  -52.3862 C.2       20 UNK         0.5000 
    113 O         -1.4690  -16.5592  -52.2747 O.2       20 UNK        -0.5000 
    114 N         -2.7124  -17.9569  -53.5544 N.am      21 UNK        -0.5000 
    115 CA        -2.3617  -17.4361  -54.8759 C.3       21 UNK         0.1400 
    116 CB        -3.5755  -17.6029  -55.8059 C.3       21 UNK        -0.1800 
    117 C         -1.0974  -18.0988  -55.4693 C.2       21 UNK         0.5000 
    118 O         -0.8077  -17.8890  -56.6483 O.2       21 UNK        -0.5000 
    119 N         -0.3701  -18.8771  -54.6570 N.am      22 UNK        -0.5000 
    120 CA         0.8719  -19.5946  -54.9845 C.3       22 UNK         0.1400 
    121 C          0.6739  -20.8714  -55.8568 C.2       22 UNK         0.5000 
    122 N         -0.5322  -21.4030  -56.0137 N.am      22 UNK        -0.7600 
    123 O          1.6387  -21.4161  -56.3870 O.2       22 UNK        -0.5000 
    124 C124        2.0208  -18.6882  -55.5237 C.3       23 UNK        -0.0398 
    125 S125        2.3287  -17.1592  -54.5674 S.3       23 UNK        -0.2404 
    126 C126        3.6831  -17.6510  -53.4538 C.3       23 UNK        -0.0205 
    127 H127       -3.6868  -14.9636  -52.0899 H         1 UNK         0.0600 
    128 H128       -4.3659  -13.3612  -52.3549 H         1 UNK         0.0600 
    129 H129       -4.7932  -14.2687  -50.9001 H         1 UNK         0.0600 
    130 H130       -1.7303  -15.1173  -50.9498 H         1 UNK         0.3000 
    131 H131       -0.1658  -12.8803  -50.4337 H         1 UNK         0.0600 
    132 H132        0.7885  -15.0581  -50.9900 H         1 UNK         0.0800 
    133 H133        1.4899  -14.4481  -49.5185 H         1 UNK         0.0800 
    134 H134        1.6554  -17.7569  -47.9038 H         1 UNK         0.0800 
    135 H135        2.4890  -16.3998  -48.6089 H         1 UNK         0.0800 
    136 H136        2.7852  -16.4029  -51.2165 H         1 UNK         0.1150 
    137 H137        3.4217  -20.3062  -52.8656 H         1 UNK         0.1150 
    138 H138        1.6597  -19.8852  -48.9842 H         1 UNK         0.1150 
    139 H139        1.4302  -22.0496  -50.4986 H         1 UNK         0.0800 
    140 H140        2.6456  -22.2493  -51.7351 H         1 UNK         0.0800 
    141 H141        4.2311  -24.7054  -49.5889 H         1 UNK         0.0800 
    142 H142        2.7959  -24.4558  -50.5260 H         1 UNK         0.0800 
    143 H143        2.4481  -25.7995  -48.4338 H         1 UNK         0.0600 
    144 H144        3.6619  -23.5362  -47.1206 H         1 UNK         0.3000 
    145 H145        2.8843  -24.5128  -43.8297 H         1 UNK         0.0600 
    146 H146        5.3371  -24.6601  -43.5248 H         1 UNK         0.0600 
    147 H147        4.7507  -26.0959  -44.3479 H         1 UNK         0.0600 
    148 H148        5.5741  -24.8394  -45.2640 H         1 UNK         0.0600 
    149 H149        4.6890  -22.5555  -44.7083 H         1 UNK         0.3000 
    150 H150        4.2138  -20.4004  -44.6649 H         1 UNK         0.0600 
    151 H151        3.5447  -20.4047  -47.0578 H         1 UNK         0.0600 
    152 H152        3.2252  -18.8376  -46.3293 H         1 UNK         0.0600 
    153 H153        1.8991  -19.9624  -46.6221 H         1 UNK         0.0600 
    154 H154        1.4150  -19.5019  -44.2501 H         1 UNK         0.3000 
    155 H155        1.6402  -19.4831  -40.7846 H         1 UNK         0.0600 
    156 H156        2.2441  -16.8926  -42.2914 H         1 UNK         0.0600 
    157 H157        3.1169  -17.5235  -40.9071 H         1 UNK         0.0600 
    158 H158        1.4549  -16.9970  -40.7166 H         1 UNK         0.0600 
    159 H159        0.0317  -18.0307  -42.7578 H         1 UNK         0.3000 
    160 H160       -2.1558  -20.7165  -43.3922 H         1 UNK         0.0600 
    161 H161       -2.7717  -18.5933  -41.2754 H         1 UNK         0.0600 
    162 H162       -3.0592  -20.3231  -41.1391 H         1 UNK         0.0600 
    163 H163       -3.9775  -19.3731  -42.2971 H         1 UNK         0.0600 
    164 H164       -2.6577  -17.9892  -43.7874 H         1 UNK         0.3000 
    165 H165       -0.6336  -17.2293  -46.4023 H         1 UNK         0.0600 
    166 H166       -1.4912  -18.8089  -47.9646 H         1 UNK         0.0600 
    167 H167       -3.0720  -18.8903  -47.1917 H         1 UNK         0.0600 
    168 H168       -2.5731  -17.4376  -48.0628 H         1 UNK         0.0600 
    169 H169       -1.8310  -15.6872  -45.4509 H         1 UNK         0.3000 
    170 H170       -4.1798  -14.3850  -45.6253 H         1 UNK         0.0600 
    171 H171       -6.3004  -15.4020  -44.9023 H         1 UNK         0.0600 
    172 H172       -5.6203  -15.8441  -43.3445 H         1 UNK         0.0600 
    173 H173       -5.8448  -14.1457  -43.7625 H         1 UNK         0.0600 
    174 H174       -2.7044  -13.6720  -44.1270 H         1 UNK         0.3000 
    175 H175       -1.8951  -13.4444  -41.6566 H         1 UNK         0.0600 
    176 H176       -0.7661  -16.2237  -41.0267 H         1 UNK         0.0600 
    177 H177       -0.1766  -14.7191  -40.3192 H         1 UNK         0.0600 
    178 H178       -1.8192  -15.2593  -40.0059 H         1 UNK         0.0600 
    179 H179       -0.2197  -13.1835  -43.1057 H         1 UNK         0.3000 
    180 H180        2.0257  -13.9262  -43.9959 H         1 UNK         0.0600 
    181 H181        1.4954  -16.2340  -45.9402 H         1 UNK         0.0600 
    182 H182        2.6008  -16.2820  -44.5760 H         1 UNK         0.0600 
    183 H183        2.9273  -15.2078  -45.9237 H         1 UNK         0.0600 
    184 H184        0.7563  -13.9918  -46.5798 H         1 UNK         0.3000 
    185 H185       -1.2311  -11.3957  -46.5518 H         1 UNK         0.0600 
    186 H186        0.1726   -9.6564  -47.6491 H         1 UNK         0.0600 
    187 H187        0.4101   -9.6421  -45.9119 H         1 UNK         0.0600 
    188 H188        1.6282  -10.3691  -46.9524 H         1 UNK         0.0600 
    189 H189        0.7284  -11.9615  -48.5762 H         1 UNK         0.3000 
    190 H190        1.0513  -23.0819  -46.8551 H         1 UNK         0.3000 
    191 H191       -1.5464  -23.5239  -48.2293 H         1 UNK         0.0600 
    192 H192       -1.8724  -21.0815  -48.3927 H         1 UNK         0.0600 
    193 H193       -0.4402  -21.5275  -49.2958 H         1 UNK         0.0600 
    194 H194       -0.2712  -20.7916  -47.7088 H         1 UNK         0.0600 
    195 H195       -0.3594  -24.3859  -45.6476 H         1 UNK         0.3000 
    196 H196       -1.1202  -22.8720  -43.4804 H         1 UNK         0.0600 
    197 H197       -0.9108  -25.9186  -43.7047 H         1 UNK         0.0600 
    198 H198        0.4101  -24.7994  -43.3660 H         1 UNK         0.0600 
    199 H199       -0.8832  -25.0087  -42.1973 H         1 UNK         0.0600 
    200 H200       -3.2312  -24.8273  -45.4401 H         1 UNK         0.3000 
    201 H201       -5.4750  -24.9604  -43.6019 H         1 UNK         0.0600 
    202 H202       -5.2827  -25.4231  -46.6298 H         1 UNK         0.0600 
    203 H203       -6.6474  -25.8612  -45.6103 H         1 UNK         0.0600 
    204 H204       -5.1016  -26.6615  -45.3861 H         1 UNK         0.0600 
    205 H205       -4.1631  -22.3861  -45.4259 H         1 UNK         0.3000 
    206 H206       -4.7632  -20.3731  -46.0256 H         1 UNK         0.0600 
    207 H207       -5.7097  -20.1865  -43.7056 H         1 UNK         0.0600 
    208 H208       -6.5356  -19.1579  -44.8627 H         1 UNK         0.0600 
    209 H209       -7.2947  -20.6479  -44.3244 H         1 UNK         0.0600 
    210 H210       -5.4226  -22.5713  -47.7073 H         1 UNK         0.3000 
    211 H211       -7.9577  -22.1752  -49.0296 H         1 UNK         0.0600 
    212 H212       -6.9735  -23.7621  -50.6987 H         1 UNK         0.0600 
    213 H213       -6.7763  -24.3621  -49.0598 H         1 UNK         0.0600 
    214 H214       -5.4072  -23.6444  -49.9062 H         1 UNK         0.0600 
    215 H215       -8.4431  -20.8983  -50.7671 H         1 UNK         0.3000 
    216 H216       -6.9514  -18.5945  -51.2905 H         1 UNK         0.0600 
    217 H217       -9.2357  -19.8443  -52.9063 H         1 UNK         0.0600 
    218 H218       -8.6792  -18.1813  -53.0508 H         1 UNK         0.0600 
    219 H219       -9.4052  -18.7298  -51.5492 H         1 UNK         0.0600 
    220 H220       -7.0364  -21.6416  -53.1260 H         1 UNK         0.3000 
    221 H221       -5.5656  -20.7065  -55.4109 H         1 UNK         0.0600 
    222 H222       -6.9833  -22.7382  -55.4916 H         1 UNK         0.0600 
    223 H223       -5.9566  -23.5403  -54.3028 H         1 UNK         0.0600 
    224 H224       -5.3233  -23.1449  -55.8961 H         1 UNK         0.0600 
    225 H225       -4.6146  -22.1984  -52.3153 H         1 UNK         0.3000 
    226 H226       -1.8078  -22.4556  -52.9660 H         1 UNK         0.0600 
    227 H227       -1.5782  -23.1345  -50.6422 H         1 UNK         0.0600 
    228 H228       -3.1697  -22.5046  -50.2219 H         1 UNK         0.0600 
    229 H229       -3.0144  -23.9049  -51.2846 H         1 UNK         0.0600 
    230 H230       -3.8210  -20.0741  -51.2076 H         1 UNK         0.3000 
    231 H231       -1.7901  -18.2805  -50.4229 H         1 UNK         0.0600 
    232 H232       -4.6916  -17.6331  -51.1911 H         1 UNK         0.0600 
    233 H233       -3.6516  -16.6912  -50.1330 H         1 UNK         0.0600 
    234 H234       -4.2056  -18.2811  -49.6287 H         1 UNK         0.0600 
    235 H235       -3.3656  -18.7296  -53.5413 H         1 UNK         0.3000 
    236 H236       -2.1501  -16.3684  -54.7908 H         1 UNK         0.0600 
    237 H237       -4.4566  -17.1099  -55.3947 H         1 UNK         0.0600 
    238 H238       -3.3872  -17.1620  -56.7853 H         1 UNK         0.0600 
    239 H239       -3.8224  -18.6536  -55.9599 H         1 UNK         0.0600 
    240 H240       -0.6966  -19.0234  -53.7095 H         1 UNK         0.3000 
    241 H241        1.2067  -19.9873  -54.0263 H         1 UNK         0.0600 
    242 H242       -0.6285  -22.2309  -56.5787 H         1 UNK         0.3800 
    243 H243       -1.3572  -21.0139  -55.5661 H         1 UNK         0.3800 
    244 H244        1.8050  -18.3895  -56.5503 H         1 UNK         0.0800 
    245 H245        2.9512  -19.2550  -55.5782 H         1 UNK         0.0800 
    246 H246        4.3762  -18.3212  -53.9640 H         1 UNK         0.0800 
    247 H247        4.2607  -16.7624  -53.1948 H         1 UNK         0.0800 
@<TRIPOS>BOND
     1    1    2 1    
     2    1  127 1    
     3    1  128 1    
     4    1  129 1    
     5    2    3 2    
     6    2    4 am   BACKBONE|DICT|INTERRES
     7    4    5 1    
     8    4  130 1    
     9    5    6 1    
    10    5   65 1    
    11    5  131 1    
    12    6    7 1    
    13    6  132 1    
    14    6  133 1    
    15    7    8 1    
    16    8    9 1    
    17    8  134 1    
    18    8  135 1    
    19    9   10 ar   
    20    9   14 ar   
    21   10   11 ar   
    22   10  136 1    
    23   11   12 ar   
    24   11  126 1    
    25   12   13 ar   
    26   12  137 1    
    27   13   14 ar   
    28   13   15 1    
    29   14  138 1    
    30   15   16 1    
    31   15  139 1    
    32   15  140 1    
    33   16   17 1    
    34   17   18 1    
    35   17  141 1    
    36   17  142 1    
    37   18   19 1    
    38   18   67 1    
    39   18  143 1    
    40   19   20 am   BACKBONE|DICT|INTERRES
    41   19  144 1    
    42   20   21 2    
    43   20   22 1    
    44   22   23 1    
    45   22   24 1    
    46   22  145 1    
    47   23  146 1    
    48   23  147 1    
    49   23  148 1    
    50   24   25 am   BACKBONE|DICT|INTERRES
    51   24  149 1    
    52   25   26 2    
    53   25   27 1    
    54   27   28 1    
    55   27   29 1    
    56   27  150 1    
    57   28  151 1    
    58   28  152 1    
    59   28  153 1    
    60   29   30 am   BACKBONE|DICT|INTERRES
    61   29  154 1    
    62   30   31 2    
    63   30   32 1    
    64   32   33 1    
    65   32   34 1    
    66   32  155 1    
    67   33  156 1    
    68   33  157 1    
    69   33  158 1    
    70   34   35 am   BACKBONE|DICT|INTERRES
    71   34  159 1    
    72   35   36 2    
    73   35   37 1    
    74   37   38 1    
    75   37   39 1    
    76   37  160 1    
    77   38  161 1    
    78   38  162 1    
    79   38  163 1    
    80   39   40 am   BACKBONE|DICT|INTERRES
    81   39  164 1    
    82   40   41 2    
    83   40   42 1    
    84   42   43 1    
    85   42   44 1    
    86   42  165 1    
    87   43  166 1    
    88   43  167 1    
    89   43  168 1    
    90   44   45 am   BACKBONE|DICT|INTERRES
    91   44  169 1    
    92   45   46 2    
    93   45   47 1    
    94   47   48 1    
    95   47   49 1    
    96   47  170 1    
    97   48  171 1    
    98   48  172 1    
    99   48  173 1    
   100   49   50 am   BACKBONE|DICT|INTERRES
   101   49  174 1    
   102   50   51 2    
   103   50   52 1    
   104   52   53 1    
   105   52   54 1    
   106   52  175 1    
   107   53  176 1    
   108   53  177 1    
   109   53  178 1    
   110   54   55 am   BACKBONE|DICT|INTERRES
   111   54  179 1    
   112   55   56 2    
   113   55   57 1    
   114   57   58 1    
   115   57   59 1    
   116   57  180 1    
   117   58  181 1    
   118   58  182 1    
   119   58  183 1    
   120   59   60 am   BACKBONE|DICT|INTERRES
   121   59  184 1    
   122   60   61 2    
   123   60   62 1    
   124   62   63 1    
   125   62   64 1    
   126   62  185 1    
   127   63  186 1    
   128   63  187 1    
   129   63  188 1    
   130   64   65 am   BACKBONE|DICT|INTERRES
   131   64  189 1    
   132   65   66 2    
   133   67   68 2    
   134   67   69 am   BACKBONE|DICT|INTERRES
   135   69   70 1    
   136   69  190 1    
   137   70   71 1    
   138   70   72 1    
   139   70  191 1    
   140   71  192 1    
   141   71  193 1    
   142   71  194 1    
   143   72   73 2    
   144   72   74 am   BACKBONE|DICT|INTERRES
   145   74   75 1    
   146   74  195 1    
   147   75   76 1    
   148   75   77 1    
   149   75  196 1    
   150   76  197 1    
   151   76  198 1    
   152   76  199 1    
   153   77   78 2    
   154   77   79 am   BACKBONE|DICT|INTERRES
   155   79   80 1    
   156   79  200 1    
   157   80   81 1    
   158   80   82 1    
   159   80  201 1    
   160   81  202 1    
   161   81  203 1    
   162   81  204 1    
   163   82   83 2    
   164   82   84 am   BACKBONE|DICT|INTERRES
   165   84   85 1    
   166   84  205 1    
   167   85   86 1    
   168   85   87 1    
   169   85  206 1    
   170   86  207 1    
   171   86  208 1    
   172   86  209 1    
   173   87   88 2    
   174   87   89 am   BACKBONE|DICT|INTERRES
   175   89   90 1    
   176   89  210 1    
   177   90   91 1    
   178   90   92 1    
   179   90  211 1    
   180   91  212 1    
   181   91  213 1    
   182   91  214 1    
   183   92   93 2    
   184   92   94 am   BACKBONE|DICT|INTERRES
   185   94   95 1    
   186   94  215 1    
   187   95   96 1    
   188   95   97 1    
   189   95  216 1    
   190   96  217 1    
   191   96  218 1    
   192   96  219 1    
   193   97   98 2    
   194   97   99 am   BACKBONE|DICT|INTERRES
   195   99  100 1    
   196   99  220 1    
   197  100  101 1    
   198  100  102 1    
   199  100  221 1    
   200  101  222 1    
   201  101  223 1    
   202  101  224 1    
   203  102  103 2    
   204  102  104 am   BACKBONE|DICT|INTERRES
   205  104  105 1    
   206  104  225 1    
   207  105  106 1    
   208  105  107 1    
   209  105  226 1    
   210  106  227 1    
   211  106  228 1    
   212  106  229 1    
   213  107  108 2    
   214  107  109 am   BACKBONE|DICT|INTERRES
   215  109  110 1    
   216  109  230 1    
   217  110  111 1    
   218  110  112 1    
   219  110  231 1    
   220  111  232 1    
   221  111  233 1    
   222  111  234 1    
   223  112  113 2    
   224  112  114 am   BACKBONE|DICT|INTERRES
   225  114  115 1    
   226  114  235 1    
   227  115  116 1    
   228  115  117 1    
   229  115  236 1    
   230  116  237 1    
   231  116  238 1    
   232  116  239 1    
   233  117  118 2    
   234  117  119 am   BACKBONE|DICT|INTERRES
   235  119  120 1    
   236  119  240 1    
   237  120  121 1    
   238  120  124 1    
   239  120  241 1    
   240  121  122 am   BACKBONE|DICT|INTERRES
   241  121  123 2    
   242  122  242 1    
   243  122  243 1    
   244  124  125 1    
   245  124  244 1    
   246  124  245 1    
   247  125  126 1    
   248  126  246 1    
   249  126  247 1    
@<TRIPOS>SUBSTRUCTURE
     1 UNK         1 GROUP             0       ****    0 ROOT    
