@<TRIPOS>MOLECULE
3R540
247   249    1
SMALL
USER_CHARGES


@<TRIPOS>ATOM
      1 CA          1.3900  -10.1407  -50.2603 C.3       0 UNK        -0.1800 
      2 C           1.1664  -10.5909  -48.8250 C.2       0 UNK         0.5000 
      3 O           2.1238  -10.6899  -48.0574 O.2       0 UNK        -0.5000 
      4 N          -0.0939  -10.8440  -48.4476 N.am      1 UNK        -0.5000 
      5 CA         -0.5164  -11.3561  -47.1340 C.3       1 UNK         0.1400 
      6 C6         -2.0170  -11.7327  -47.1144 C.3       23 UNK        -0.0398 
      7 S7         -2.3873  -13.1350  -48.2205 S.3       23 UNK        -0.2404 
      8 C8         -2.0681  -14.5091  -47.0742 C.3       23 UNK        -0.0205 
      9 C9         -2.3650  -15.8591  -47.7037 C.ar      23 UNK        -0.0193 
     10 C10        -3.6304  -16.4354  -47.5665 C.ar      23 UNK        -0.1150 
     11 C11        -3.9024  -17.6876  -48.1227 C.ar      23 UNK        -0.0193 
     12 C12        -2.8970  -18.3638  -48.8179 C.ar      23 UNK        -0.1150 
     13 C13        -1.6229  -17.8018  -48.9592 C.ar      23 UNK        -0.0193 
     14 C14        -1.3671  -16.5458  -48.4004 C.ar      23 UNK        -0.1150 
     15 C15        -0.5118  -18.5234  -49.7183 C.3       23 UNK        -0.0205 
     16 S16        -0.5036  -20.3374  -49.5105 S.3       23 UNK        -0.2404 
     17 C17        -0.3403  -20.4920  -47.7028 C.3       23 UNK        -0.0398 
     18 CA         -0.7047  -21.8965  -47.1691 C.3       11 UNK         0.1400 
     19 N          -0.2039  -22.0654  -45.8056 N.am      11 UNK        -0.5000 
     20 C          -0.1782  -23.2101  -45.1131 C.2       10 UNK         0.5000 
     21 O          -0.5548  -24.2924  -45.5588 O.2       10 UNK        -0.5000 
     22 CA          0.3266  -23.1155  -43.6634 C.3       10 UNK         0.1400 
     23 CB          1.8607  -23.1798  -43.6129 C.3       10 UNK        -0.1800 
     24 N          -0.1317  -21.8898  -43.0083 N.am      10 UNK        -0.5000 
     25 C          -1.3894  -21.6808  -42.5962 C.2       9 UNK         0.5000 
     26 O          -2.2882  -22.5156  -42.6930 O.2       9 UNK        -0.5000 
     27 CA         -1.7011  -20.2925  -42.0072 C.3       9 UNK         0.1400 
     28 CB         -1.2482  -20.2081  -40.5419 C.3       9 UNK        -0.1800 
     29 N          -1.0915  -19.1991  -42.7653 N.am      9 UNK        -0.5000 
     30 C          -1.4041  -18.8889  -44.0309 C.2       8 UNK         0.5000 
     31 O          -2.2353  -19.4981  -44.7003 O.2       8 UNK        -0.5000 
     32 CA         -0.6289  -17.7269  -44.6723 C.3       8 UNK         0.1400 
     33 CB         -1.2478  -16.3888  -44.2444 C.3       8 UNK        -0.1800 
     34 N           0.8032  -17.7096  -44.3676 N.am      8 UNK        -0.5000 
     35 C           1.6679  -18.7265  -44.4962 C.2       7 UNK         0.5000 
     36 O           1.3452  -19.8661  -44.8303 O.2       7 UNK        -0.5000 
     37 CA          3.1453  -18.4236  -44.1979 C.3       7 UNK         0.1400 
     38 CB          3.8909  -18.0869  -45.4983 C.3       7 UNK        -0.1800 
     39 N           3.3027  -17.3165  -43.2537 N.am      7 UNK        -0.5000 
     40 C           3.2834  -17.4443  -41.9201 C.2       6 UNK         0.5000 
     41 O           3.1519  -18.5224  -41.3398 O.2       6 UNK        -0.5000 
     42 CA          3.4367  -16.1523  -41.0928 C.3       6 UNK         0.1400 
     43 CB          4.9183  -15.8827  -40.7894 C.3       6 UNK        -0.1800 
     44 N           2.8641  -14.9779  -41.7536 N.am      6 UNK        -0.5000 
     45 C           1.5501  -14.7428  -41.8726 C.2       5 UNK         0.5000 
     46 O           0.6819  -15.4694  -41.3895 O.2       5 UNK        -0.5000 
     47 CA          1.1337  -13.5008  -42.6882 C.3       5 UNK         0.1400 
     48 CB          1.0041  -12.2827  -41.7605 C.3       5 UNK        -0.1800 
     49 N           2.0365  -13.1621  -43.7948 N.am      5 UNK        -0.5000 
     50 C           2.4060  -13.9769  -44.7926 C.2       4 UNK         0.5000 
     51 O           2.0476  -15.1517  -44.8613 O.2       4 UNK        -0.5000 
     52 CA          3.3357  -13.4136  -45.8878 C.3       4 UNK         0.1400 
     53 CB          2.9058  -13.8888  -47.2872 C.3       4 UNK        -0.1800 
     54 N           3.4378  -11.9523  -45.8949 N.am      4 UNK        -0.5000 
     55 C           4.2261  -11.2200  -45.0962 C.2       3 UNK         0.5000 
     56 O           4.9149  -11.7000  -44.1960 O.2       3 UNK        -0.5000 
     57 CA          4.2238   -9.6996  -45.3245 C.3       3 UNK         0.1400 
     58 CB          5.1503   -9.3326  -46.4943 C.3       3 UNK        -0.1800 
     59 N           2.8746   -9.2141  -45.6132 N.am      3 UNK        -0.5000 
     60 C           2.0826   -8.5787  -44.7382 C.2       2 UNK         0.5000 
     61 O           2.4237   -8.2860  -43.5917 O.2       2 UNK        -0.5000 
     62 CA          0.6614   -8.2140  -45.2178 C.3       2 UNK         0.1400 
     63 CB          0.6421   -6.7991  -45.8158 C.3       2 UNK        -0.1800 
     64 N           0.1322   -9.1569  -46.2050 N.am      2 UNK        -0.5000 
     65 C          -0.1708  -10.4358  -45.9428 C.2       1 UNK         0.5000 
     66 O          -0.1533  -10.9139  -44.8095 O.2       1 UNK        -0.5000 
     67 C          -2.2174  -22.2038  -47.2659 C.2       11 UNK         0.5000 
     68 O          -2.6334  -22.9490  -48.1523 O.2       11 UNK        -0.5000 
     69 N          -3.0093  -21.6852  -46.3162 N.am      12 UNK        -0.5000 
     70 CA         -4.4448  -21.9514  -46.1952 C.3       12 UNK         0.1400 
     71 CB         -5.0513  -20.9901  -45.1619 C.3       12 UNK        -0.1800 
     72 C          -4.7699  -23.4114  -45.8222 C.2       12 UNK         0.5000 
     73 O          -5.8263  -23.9116  -46.2085 O.2       12 UNK        -0.5000 
     74 N          -3.8618  -24.0686  -45.0884 N.am      13 UNK        -0.5000 
     75 CA         -3.9672  -25.4727  -44.6865 C.3       13 UNK         0.1400 
     76 CB         -3.1210  -25.6928  -43.4220 C.3       13 UNK        -0.1800 
     77 C          -3.5600  -26.4661  -45.7953 C.2       13 UNK         0.5000 
     78 O          -3.7662  -27.6689  -45.6218 O.2       13 UNK        -0.5000 
     79 N          -2.9815  -25.9703  -46.8979 N.am      14 UNK        -0.5000 
     80 CA         -2.5732  -26.7596  -48.0597 C.3       14 UNK         0.1400 
     81 CB         -1.5119  -25.9695  -48.8448 C.3       14 UNK        -0.1800 
     82 C          -3.7702  -27.1570  -48.9519 C.2       14 UNK         0.5000 
     83 O          -4.9261  -26.8899  -48.6130 O.2       14 UNK        -0.5000 
     84 N          -3.4694  -27.7926  -50.0889 N.am      15 UNK        -0.5000 
     85 CA         -4.4344  -28.2404  -51.0895 C.3       15 UNK         0.1400 
     86 CB         -4.6828  -29.7469  -50.9011 C.3       15 UNK        -0.1800 
     87 C          -3.8961  -27.9424  -52.4973 C.2       15 UNK         0.5000 
     88 O          -2.7096  -27.6393  -52.6526 O.2       15 UNK        -0.5000 
     89 N          -4.7820  -28.0512  -53.4966 N.am      16 UNK        -0.5000 
     90 CA         -4.5128  -27.9192  -54.9324 C.3       16 UNK         0.1400 
     91 CB         -3.7255  -29.1514  -55.4343 C.3       16 UNK        -0.1800 
     92 C          -3.8653  -26.5642  -55.2944 C.2       16 UNK         0.5000 
     93 O          -4.3722  -25.5225  -54.8736 O.2       16 UNK        -0.5000 
     94 N          -2.7611  -26.5924  -56.0530 N.am      17 UNK        -0.5000 
     95 CA         -2.0220  -25.4201  -56.5271 C.3       17 UNK         0.1400 
     96 CB         -0.9012  -25.8840  -57.4696 C.3       17 UNK        -0.1800 
     97 C          -1.4471  -24.5357  -55.4036 C.2       17 UNK         0.5000 
     98 O          -1.3011  -23.3299  -55.6046 O.2       17 UNK        -0.5000 
     99 N          -1.1486  -25.1354  -54.2422 N.am      18 UNK        -0.5000 
    100 CA        -0.6858  -24.4179  -53.0557 C.3       18 UNK         0.1400 
    101 CB        -0.0218  -25.4001  -52.0819 C.3       18 UNK        -0.1800 
    102 C         -1.8231  -23.6345  -52.3774 C.2       18 UNK         0.5000 
    103 O         -1.6036  -22.4999  -51.9613 O.2       18 UNK        -0.5000 
    104 N         -3.0279  -24.2213  -52.3246 N.am      19 UNK        -0.5000 
    105 CA        -4.2327  -23.5545  -51.8215 C.3       19 UNK         0.1400 
    106 CB        -5.3396  -24.5870  -51.5738 C.3       19 UNK        -0.1800 
    107 C         -4.7299  -22.4539  -52.7747 C.2       19 UNK         0.5000 
    108 O         -5.1964  -21.4124  -52.3138 O.2       19 UNK        -0.5000 
    109 N         -4.5805  -22.6832  -54.0874 N.am      20 UNK        -0.5000 
    110 CA        -4.9419  -21.7541  -55.1628 C.3       20 UNK         0.1400 
    111 CB        -4.7848  -22.4673  -56.5141 C.3       20 UNK        -0.1800 
    112 C         -4.1548  -20.4253  -55.1574 C.2       20 UNK         0.5000 
    113 O         -4.5753  -19.4783  -55.8228 O.2       20 UNK        -0.5000 
    114 N         -3.0475  -20.3615  -54.4040 N.am      21 UNK        -0.5000 
    115 CA        -2.2736  -19.1446  -54.1561 C.3       21 UNK         0.1400 
    116 CB        -0.9027  -19.5341  -53.5833 C.3       21 UNK        -0.1800 
    117 C         -2.9886  -18.1406  -53.2250 C.2       21 UNK         0.5000 
    118 O         -2.5976  -16.9729  -53.2000 O.2       21 UNK        -0.5000 
    119 N         -4.0085  -18.5951  -52.4820 N.am      22 UNK        -0.5000 
    120 CA        -4.8781  -17.7587  -51.6437 C.3       22 UNK         0.1400 
    121 C         -5.7276  -16.7629  -52.4841 C.2       22 UNK         0.5000 
    122 N         -5.7758  -15.4940  -52.1013 N.am      22 UNK        -0.7600 
    123 O         -6.3714  -17.1403  -53.4606 O.2       22 UNK        -0.5000 
    124 C124       -5.7719  -18.6439  -50.7368 C.3       23 UNK        -0.0398 
    125 S125       -6.4196  -17.7560  -49.2783 S.3       23 UNK        -0.2404 
    126 C126       -5.2813  -18.3092  -47.9702 C.3       23 UNK        -0.0205 
    127 H127        0.4552  -10.0860  -50.8186 H         1 UNK         0.0600 
    128 H128        2.0522  -10.8394  -50.7714 H         1 UNK         0.0600 
    129 H129        1.8552   -9.1551  -50.2753 H         1 UNK         0.0600 
    130 H130       -0.8355  -10.7437  -49.1264 H         1 UNK         0.3000 
    131 H131        0.0541  -12.2690  -46.9579 H         1 UNK         0.0600 
    132 H132       -2.3479  -11.9930  -46.1069 H         1 UNK         0.0800 
    133 H133       -2.6274  -10.8802  -47.4168 H         1 UNK         0.0800 
    134 H134       -2.6721  -14.3811  -46.1746 H         1 UNK         0.0800 
    135 H135       -1.0252  -14.4728  -46.7568 H         1 UNK         0.0800 
    136 H136       -4.4055  -15.9081  -47.0282 H         1 UNK         0.1150 
    137 H137       -3.1094  -19.3301  -49.2520 H         1 UNK         0.1150 
    138 H138       -0.3880  -16.0993  -48.5045 H         1 UNK         0.1150 
    139 H139       -0.6154  -18.2921  -50.7786 H         1 UNK         0.0800 
    140 H140        0.4638  -18.1426  -49.4121 H         1 UNK         0.0800 
    141 H141       -0.9403  -19.7331  -47.2014 H         1 UNK         0.0800 
    142 H142        0.6981  -20.2602  -47.4621 H         1 UNK         0.0800 
    143 H143       -0.1858  -22.6348  -47.7846 H         1 UNK         0.0600 
    144 H144        0.1823  -21.2350  -45.3634 H         1 UNK         0.3000 
    145 H145       -0.0673  -23.9724  -43.1129 H         1 UNK         0.0600 
    146 H146        2.2217  -23.1663  -42.5845 H         1 UNK         0.0600 
    147 H147        2.2266  -24.0982  -44.0739 H         1 UNK         0.0600 
    148 H148        2.3197  -22.3429  -44.1404 H         1 UNK         0.0600 
    149 H149        0.5295  -21.1278  -42.9567 H         1 UNK         0.3000 
    150 H150       -2.7845  -20.1572  -42.0375 H         1 UNK         0.0600 
    151 H151       -1.6969  -21.0057  -39.9481 H         1 UNK         0.0600 
    152 H152       -1.5468  -19.2615  -40.0912 H         1 UNK         0.0600 
    153 H153       -0.1651  -20.2975  -40.4481 H         1 UNK         0.0600 
    154 H154       -0.3850  -18.6503  -42.2968 H         1 UNK         0.3000 
    155 H155       -0.7250  -17.8173  -45.7552 H         1 UNK         0.0600 
    156 H156       -1.2211  -16.2603  -43.1622 H         1 UNK         0.0600 
    157 H157       -0.7191  -15.5475  -44.6896 H         1 UNK         0.0600 
    158 H158       -2.2914  -16.3264  -44.5553 H         1 UNK         0.0600 
    159 H159        1.1985  -16.7950  -44.1778 H         1 UNK         0.3000 
    160 H160        3.5916  -19.3269  -43.7763 H         1 UNK         0.0600 
    161 H161        3.8191  -18.9086  -46.2122 H         1 UNK         0.0600 
    162 H162        3.4832  -17.1980  -45.9808 H         1 UNK         0.0600 
    163 H163        4.9502  -17.9111  -45.3109 H         1 UNK         0.0600 
    164 H164        3.3366  -16.3886  -43.6547 H         1 UNK         0.3000 
    165 H165        2.9177  -16.3028  -40.1437 H         1 UNK         0.0600 
    166 H166        5.0367  -15.0119  -40.1443 H         1 UNK         0.0600 
    167 H167        5.3721  -16.7309  -40.2749 H         1 UNK         0.0600 
    168 H168        5.4913  -15.7066  -41.7007 H         1 UNK         0.0600 
    169 H169        3.5101  -14.3243  -42.1719 H         1 UNK         0.3000 
    170 H170        0.1534  -13.7069  -43.1219 H         1 UNK         0.0600 
    171 H171        0.3176  -12.4883  -40.9381 H         1 UNK         0.0600 
    172 H172        1.9651  -12.0052  -41.3255 H         1 UNK         0.0600 
    173 H173        0.6165  -11.4152  -42.2940 H         1 UNK         0.0600 
    174 H174        2.3722  -12.2109  -43.8214 H         1 UNK         0.3000 
    175 H175        4.3277  -13.8257  -45.6931 H         1 UNK         0.0600 
    176 H176        1.8947  -13.5654  -47.5321 H         1 UNK         0.0600 
    177 H177        3.5745  -13.5033  -48.0569 H         1 UNK         0.0600 
    178 H178        2.9267  -14.9769  -47.3592 H         1 UNK         0.0600 
    179 H179        2.9206  -11.4780  -46.6319 H         1 UNK         0.3000 
    180 H180        4.6164   -9.2248  -44.4229 H         1 UNK         0.0600 
    181 H181        4.8134   -9.7758  -47.4325 H         1 UNK         0.0600 
    182 H182        6.1675   -9.6814  -46.3117 H         1 UNK         0.0600 
    183 H183        5.1970   -8.2524  -46.6334 H         1 UNK         0.0600 
    184 H184        2.5001   -9.4549  -46.5245 H         1 UNK         0.3000 
    185 H185        0.0034   -8.2269  -44.3462 H         1 UNK         0.0600 
    186 H186       -0.3691   -6.5019  -46.0942 H         1 UNK         0.0600 
    187 H187        1.0086   -6.0662  -45.0958 H         1 UNK         0.0600 
    188 H188        1.2706   -6.7288  -46.7046 H         1 UNK         0.0600 
    189 H189        0.0893   -8.8410  -47.1628 H         1 UNK         0.3000 
    190 H190       -2.6157  -21.0347  -45.6389 H         1 UNK         0.3000 
    191 H191       -4.9061  -21.7493  -47.1639 H         1 UNK         0.0600 
    192 H192       -4.6146  -21.1392  -44.1733 H         1 UNK         0.0600 
    193 H193       -6.1283  -21.1375  -45.0733 H         1 UNK         0.0600 
    194 H194       -4.8870  -19.9504  -45.4438 H         1 UNK         0.0600 
    195 H195       -3.0308  -23.5757  -44.7899 H         1 UNK         0.3000 
    196 H196       -5.0076  -25.6854  -44.4323 H         1 UNK         0.0600 
    197 H197       -3.2049  -26.7204  -43.0665 H         1 UNK         0.0600 
    198 H198       -3.4490  -25.0432  -42.6104 H         1 UNK         0.0600 
    199 H199       -2.0650  -25.4946  -43.6049 H         1 UNK         0.0600 
    200 H200       -2.8637  -24.9686  -46.9730 H         1 UNK         0.3000 
    201 H201       -2.1100  -27.6799  -47.6982 H         1 UNK         0.0600 
    202 H202       -0.7725  -25.5219  -48.1800 H         1 UNK         0.0600 
    203 H203       -1.9571  -25.1692  -49.4372 H         1 UNK         0.0600 
    204 H204       -0.9691  -26.6247  -49.5248 H         1 UNK         0.0600 
    205 H205       -2.5019  -27.9117  -50.3583 H         1 UNK         0.3000 
    206 H206       -5.3793  -27.7052  -50.9761 H         1 UNK         0.0600 
    207 H207       -5.0702  -29.9591  -49.9044 H         1 UNK         0.0600 
    208 H208       -5.4143  -30.1216  -51.6179 H         1 UNK         0.0600 
    209 H209       -3.7668  -30.3242  -51.0334 H         1 UNK         0.0600 
    210 H210       -5.7409  -28.2655  -53.2614 H         1 UNK         0.3000 
    211 H211       -5.4843  -27.9253  -55.4284 H         1 UNK         0.0600 
    212 H212       -4.2449  -30.0743  -55.1755 H         1 UNK         0.0600 
    213 H213       -2.7268  -29.2057  -54.9990 H         1 UNK         0.0600 
    214 H214       -3.6210  -29.1432  -56.5200 H         1 UNK         0.0600 
    215 H215       -2.4037  -27.4921  -56.3393 H         1 UNK         0.3000 
    216 H216       -2.7167  -24.8073  -57.1038 H         1 UNK         0.0600 
    217 H217       -0.3460  -25.0325  -57.8655 H         1 UNK         0.0600 
    218 H218       -1.3029  -26.4319  -58.3221 H         1 UNK         0.0600 
    219 H219       -0.1882  -26.5318  -56.9581 H         1 UNK         0.0600 
    220 H220       -1.3268  -26.1256  -54.1405 H         1 UNK         0.3000 
    221 H221        0.0728  -23.6942  -53.3625 H         1 UNK         0.0600 
    222 H222       -0.7030  -26.1979  -51.7913 H         1 UNK         0.0600 
    223 H223        0.8591  -25.8609  -52.5290 H         1 UNK         0.0600 
    224 H224        0.3022  -24.8915  -51.1728 H         1 UNK         0.0600 
    225 H225       -3.1421  -25.1383  -52.7340 H         1 UNK         0.3000 
    226 H226       -3.9908  -23.0827  -50.8660 H         1 UNK         0.0600 
    227 H227       -5.0394  -25.2980  -50.8085 H         1 UNK         0.0600 
    228 H228       -6.2521  -24.1044  -51.2214 H         1 UNK         0.0600 
    229 H229       -5.5898  -25.1430  -52.4776 H         1 UNK         0.0600 
    230 H230       -4.2478  -23.5984  -54.3749 H         1 UNK         0.3000 
    231 H231       -5.9962  -21.5023  -55.0324 H         1 UNK         0.0600 
    232 H232       -5.1531  -21.8435  -57.3294 H         1 UNK         0.0600 
    233 H233       -5.3470  -23.4010  -56.5404 H         1 UNK         0.0600 
    234 H234       -3.7404  -22.6942  -56.7249 H         1 UNK         0.0600 
    235 H235       -2.7609  -21.1889  -53.8989 H         1 UNK         0.3000 
    236 H236       -2.1106  -18.6446  -55.1130 H         1 UNK         0.0600 
    237 H237       -0.3804  -20.2293  -54.2410 H         1 UNK         0.0600 
    238 H238       -0.2657  -18.6571  -53.4630 H         1 UNK         0.0600 
    239 H239       -0.9978  -20.0051  -52.6051 H         1 UNK         0.0600 
    240 H240       -4.2853  -19.5659  -52.5749 H         1 UNK         0.3000 
    241 H241       -4.2130  -17.1764  -51.0036 H         1 UNK         0.0600 
    242 H242       -6.3336  -14.8419  -52.6301 H         1 UNK         0.3800 
    243 H243       -5.2686  -15.1706  -51.2921 H         1 UNK         0.3800 
    244 H244       -6.6104  -19.0570  -51.3007 H         1 UNK         0.0800 
    245 H245       -5.2112  -19.5098  -50.3841 H         1 UNK         0.0800 
    246 H246       -5.2141  -19.3978  -47.9729 H         1 UNK         0.0800 
    247 H247       -5.7003  -18.0347  -47.0010 H         1 UNK         0.0800 
@<TRIPOS>BOND
     1    1    2 1    
     2    1  127 1    
     3    1  128 1    
     4    1  129 1    
     5    2    3 2    
     6    2    4 am   BACKBONE|DICT|INTERRES
     7    4    5 1    
     8    4  130 1    
     9    5    6 1    
    10    5   65 1    
    11    5  131 1    
    12    6    7 1    
    13    6  132 1    
    14    6  133 1    
    15    7    8 1    
    16    8    9 1    
    17    8  134 1    
    18    8  135 1    
    19    9   10 ar   
    20    9   14 ar   
    21   10   11 ar   
    22   10  136 1    
    23   11   12 ar   
    24   11  126 1    
    25   12   13 ar   
    26   12  137 1    
    27   13   14 ar   
    28   13   15 1    
    29   14  138 1    
    30   15   16 1    
    31   15  139 1    
    32   15  140 1    
    33   16   17 1    
    34   17   18 1    
    35   17  141 1    
    36   17  142 1    
    37   18   19 1    
    38   18   67 1    
    39   18  143 1    
    40   19   20 am   BACKBONE|DICT|INTERRES
    41   19  144 1    
    42   20   21 2    
    43   20   22 1    
    44   22   23 1    
    45   22   24 1    
    46   22  145 1    
    47   23  146 1    
    48   23  147 1    
    49   23  148 1    
    50   24   25 am   BACKBONE|DICT|INTERRES
    51   24  149 1    
    52   25   26 2    
    53   25   27 1    
    54   27   28 1    
    55   27   29 1    
    56   27  150 1    
    57   28  151 1    
    58   28  152 1    
    59   28  153 1    
    60   29   30 am   BACKBONE|DICT|INTERRES
    61   29  154 1    
    62   30   31 2    
    63   30   32 1    
    64   32   33 1    
    65   32   34 1    
    66   32  155 1    
    67   33  156 1    
    68   33  157 1    
    69   33  158 1    
    70   34   35 am   BACKBONE|DICT|INTERRES
    71   34  159 1    
    72   35   36 2    
    73   35   37 1    
    74   37   38 1    
    75   37   39 1    
    76   37  160 1    
    77   38  161 1    
    78   38  162 1    
    79   38  163 1    
    80   39   40 am   BACKBONE|DICT|INTERRES
    81   39  164 1    
    82   40   41 2    
    83   40   42 1    
    84   42   43 1    
    85   42   44 1    
    86   42  165 1    
    87   43  166 1    
    88   43  167 1    
    89   43  168 1    
    90   44   45 am   BACKBONE|DICT|INTERRES
    91   44  169 1    
    92   45   46 2    
    93   45   47 1    
    94   47   48 1    
    95   47   49 1    
    96   47  170 1    
    97   48  171 1    
    98   48  172 1    
    99   48  173 1    
   100   49   50 am   BACKBONE|DICT|INTERRES
   101   49  174 1    
   102   50   51 2    
   103   50   52 1    
   104   52   53 1    
   105   52   54 1    
   106   52  175 1    
   107   53  176 1    
   108   53  177 1    
   109   53  178 1    
   110   54   55 am   BACKBONE|DICT|INTERRES
   111   54  179 1    
   112   55   56 2    
   113   55   57 1    
   114   57   58 1    
   115   57   59 1    
   116   57  180 1    
   117   58  181 1    
   118   58  182 1    
   119   58  183 1    
   120   59   60 am   BACKBONE|DICT|INTERRES
   121   59  184 1    
   122   60   61 2    
   123   60   62 1    
   124   62   63 1    
   125   62   64 1    
   126   62  185 1    
   127   63  186 1    
   128   63  187 1    
   129   63  188 1    
   130   64   65 am   BACKBONE|DICT|INTERRES
   131   64  189 1    
   132   65   66 2    
   133   67   68 2    
   134   67   69 am   BACKBONE|DICT|INTERRES
   135   69   70 1    
   136   69  190 1    
   137   70   71 1    
   138   70   72 1    
   139   70  191 1    
   140   71  192 1    
   141   71  193 1    
   142   71  194 1    
   143   72   73 2    
   144   72   74 am   BACKBONE|DICT|INTERRES
   145   74   75 1    
   146   74  195 1    
   147   75   76 1    
   148   75   77 1    
   149   75  196 1    
   150   76  197 1    
   151   76  198 1    
   152   76  199 1    
   153   77   78 2    
   154   77   79 am   BACKBONE|DICT|INTERRES
   155   79   80 1    
   156   79  200 1    
   157   80   81 1    
   158   80   82 1    
   159   80  201 1    
   160   81  202 1    
   161   81  203 1    
   162   81  204 1    
   163   82   83 2    
   164   82   84 am   BACKBONE|DICT|INTERRES
   165   84   85 1    
   166   84  205 1    
   167   85   86 1    
   168   85   87 1    
   169   85  206 1    
   170   86  207 1    
   171   86  208 1    
   172   86  209 1    
   173   87   88 2    
   174   87   89 am   BACKBONE|DICT|INTERRES
   175   89   90 1    
   176   89  210 1    
   177   90   91 1    
   178   90   92 1    
   179   90  211 1    
   180   91  212 1    
   181   91  213 1    
   182   91  214 1    
   183   92   93 2    
   184   92   94 am   BACKBONE|DICT|INTERRES
   185   94   95 1    
   186   94  215 1    
   187   95   96 1    
   188   95   97 1    
   189   95  216 1    
   190   96  217 1    
   191   96  218 1    
   192   96  219 1    
   193   97   98 2    
   194   97   99 am   BACKBONE|DICT|INTERRES
   195   99  100 1    
   196   99  220 1    
   197  100  101 1    
   198  100  102 1    
   199  100  221 1    
   200  101  222 1    
   201  101  223 1    
   202  101  224 1    
   203  102  103 2    
   204  102  104 am   BACKBONE|DICT|INTERRES
   205  104  105 1    
   206  104  225 1    
   207  105  106 1    
   208  105  107 1    
   209  105  226 1    
   210  106  227 1    
   211  106  228 1    
   212  106  229 1    
   213  107  108 2    
   214  107  109 am   BACKBONE|DICT|INTERRES
   215  109  110 1    
   216  109  230 1    
   217  110  111 1    
   218  110  112 1    
   219  110  231 1    
   220  111  232 1    
   221  111  233 1    
   222  111  234 1    
   223  112  113 2    
   224  112  114 am   BACKBONE|DICT|INTERRES
   225  114  115 1    
   226  114  235 1    
   227  115  116 1    
   228  115  117 1    
   229  115  236 1    
   230  116  237 1    
   231  116  238 1    
   232  116  239 1    
   233  117  118 2    
   234  117  119 am   BACKBONE|DICT|INTERRES
   235  119  120 1    
   236  119  240 1    
   237  120  121 1    
   238  120  124 1    
   239  120  241 1    
   240  121  122 am   BACKBONE|DICT|INTERRES
   241  121  123 2    
   242  122  242 1    
   243  122  243 1    
   244  124  125 1    
   245  124  244 1    
   246  124  245 1    
   247  125  126 1    
   248  126  246 1    
   249  126  247 1    
@<TRIPOS>SUBSTRUCTURE
     1 UNK         1 GROUP             0       ****    0 ROOT    
