@<TRIPOS>MOLECULE
3R540
247   249    1
SMALL
USER_CHARGES


@<TRIPOS>ATOM
      1 CA          6.2801  -11.4583  -48.5517 C.3       0 UNK        -0.1800 
      2 C           5.0455  -11.8019  -47.7303 C.2       0 UNK         0.5000 
      3 O           4.6753  -11.0446  -46.8334 O.2       0 UNK        -0.5000 
      4 N           4.4081  -12.9399  -48.0348 N.am      1 UNK        -0.5000 
      5 CA          3.2131  -13.4428  -47.3420 C.3       1 UNK         0.1400 
      6 C6          2.9540  -14.9486  -47.6122 C.3       23 UNK        -0.0398 
      7 S7          4.3955  -16.0286  -47.3078 S.3       23 UNK        -0.2404 
      8 C8          5.0797  -16.2702  -48.9835 C.3       23 UNK        -0.0205 
      9 C9          4.2154  -17.1729  -49.8544 C.ar      23 UNK        -0.0193 
     10 C10         3.2696  -16.6225  -50.7241 C.ar      23 UNK        -0.1150 
     11 C11         2.4705  -17.4362  -51.5317 C.ar      23 UNK        -0.0193 
     12 C12         2.6462  -18.8271  -51.4718 C.ar      23 UNK        -0.1150 
     13 C13         3.6135  -19.3923  -50.6335 C.ar      23 UNK        -0.0193 
     14 C14         4.3881  -18.5588  -49.8212 C.ar      23 UNK        -0.1150 
     15 C15         3.8601  -20.8972  -50.6451 C.3       23 UNK        -0.0205 
     16 S16         3.5413  -21.6852  -49.0341 S.3       23 UNK        -0.2404 
     17 C17         1.7283  -21.5544  -48.9179 C.3       23 UNK        -0.0398 
     18 CA          1.0782  -22.8035  -48.2771 C.3       11 UNK         0.1400 
     19 N           1.5643  -23.0660  -46.9184 N.am      11 UNK        -0.5000 
     20 C           1.3533  -24.2119  -46.2546 C.2       10 UNK         0.5000 
     21 O           0.7447  -25.1704  -46.7295 O.2       10 UNK        -0.5000 
     22 CA          1.8584  -24.2893  -44.8010 C.3       10 UNK         0.1400 
     23 CB          3.3060  -24.7998  -44.7631 C.3       10 UNK        -0.1800 
     24 N           1.7775  -23.0180  -44.0807 N.am      10 UNK        -0.5000 
     25 C           0.6592  -22.3084  -43.8765 C.2       9 UNK         0.5000 
     26 O          -0.4531  -22.6655  -44.2649 O.2       9 UNK        -0.5000 
     27 CA          0.8071  -20.9535  -43.1577 C.3       9 UNK         0.1400 
     28 CB          2.0706  -20.8527  -42.2762 C.3       9 UNK        -0.1800 
     29 N           0.7564  -19.8173  -44.0809 N.am      9 UNK        -0.5000 
     30 C           1.5031  -19.6127  -45.1780 C.2       8 UNK         0.5000 
     31 O           2.2794  -20.4419  -45.6539 O.2       8 UNK        -0.5000 
     32 CA          1.3792  -18.2335  -45.8497 C.3       8 UNK         0.1400 
     33 CB          0.2209  -18.2111  -46.8538 C.3       8 UNK        -0.1800 
     34 N           1.1836  -17.1415  -44.8986 N.am      8 UNK        -0.5000 
     35 C           2.0709  -16.7341  -43.9808 C.2       7 UNK         0.5000 
     36 O           3.1858  -17.2326  -43.8267 O.2       7 UNK        -0.5000 
     37 CA          1.6245  -15.5758  -43.0745 C.3       7 UNK         0.1400 
     38 CB          1.7862  -14.2287  -43.7938 C.3       7 UNK        -0.1800 
     39 N           0.2318  -15.7364  -42.6591 N.am      7 UNK        -0.5000 
     40 C          -0.1573  -16.4283  -41.5799 C.2       6 UNK         0.5000 
     41 O           0.6228  -16.9659  -40.7932 O.2       6 UNK        -0.5000 
     42 CA         -1.6744  -16.5429  -41.3324 C.3       6 UNK         0.1400 
     43 CB         -2.1591  -15.3985  -40.4294 C.3       6 UNK        -0.1800 
     44 N          -2.4682  -16.5488  -42.5624 N.am      6 UNK        -0.5000 
     45 C          -2.4614  -17.5390  -43.4644 C.2       5 UNK         0.5000 
     46 O          -1.7791  -18.5580  -43.3593 O.2       5 UNK        -0.5000 
     47 CA         -3.3284  -17.3340  -44.7203 C.3       5 UNK         0.1400 
     48 CB         -4.7595  -17.8397  -44.4869 C.3       5 UNK        -0.1800 
     49 N          -3.3670  -15.9567  -45.2211 N.am      5 UNK        -0.5000 
     50 C          -2.2917  -15.2507  -45.5942 C.2       4 UNK         0.5000 
     51 O          -1.1297  -15.6216  -45.4162 O.2       4 UNK        -0.5000 
     52 CA         -2.5476  -13.9026  -46.2797 C.3       4 UNK         0.1400 
     53 CB         -2.0854  -12.7419  -45.3857 C.3       4 UNK        -0.1800 
     54 N          -1.8259  -13.8573  -47.5486 N.am      4 UNK        -0.5000 
     55 C          -2.2182  -14.4857  -48.6680 C.2       3 UNK         0.5000 
     56 O          -3.2653  -15.1303  -48.7417 O.2       3 UNK        -0.5000 
     57 CA         -1.2899  -14.4088  -49.9040 C.3       3 UNK         0.1400 
     58 CB         -2.0719  -14.2943  -51.2280 C.3       3 UNK        -0.1800 
     59 N          -0.2581  -13.3686  -49.8199 N.am      3 UNK        -0.5000 
     60 C          -0.4262  -12.0390  -49.7316 C.2       2 UNK         0.5000 
     61 O          -1.5189  -11.4776  -49.8189 O.2       2 UNK        -0.5000 
     62 CA          0.8510  -11.2052  -49.4710 C.3       2 UNK         0.1400 
     63 CB          0.5645   -9.9426  -48.6318 C.3       2 UNK        -0.1800 
     64 N           1.9530  -11.9767  -48.8728 N.am      2 UNK        -0.5000 
     65 C           1.9437  -12.6407  -47.7036 C.2       1 UNK         0.5000 
     66 O           0.9660  -12.6912  -46.9585 O.2       1 UNK        -0.5000 
     67 C          -0.4582  -22.6832  -48.3057 C.2       11 UNK         0.5000 
     68 O          -1.0855  -23.1684  -49.2452 O.2       11 UNK        -0.5000 
     69 N          -1.0431  -22.0666  -47.2681 N.am      12 UNK        -0.5000 
     70 CA         -2.4914  -21.9542  -47.0989 C.3       12 UNK         0.1400 
     71 CB         -2.8180  -20.8369  -46.1037 C.3       12 UNK        -0.1800 
     72 C          -3.1262  -23.2871  -46.6806 C.2       12 UNK         0.5000 
     73 O          -4.1989  -23.6210  -47.1791 O.2       12 UNK        -0.5000 
     74 N          -2.4390  -24.0532  -45.8223 N.am      13 UNK        -0.5000 
     75 CA         -2.8322  -25.4067  -45.4254 C.3       13 UNK         0.1400 
     76 CB         -1.8902  -25.9231  -44.3283 C.3       13 UNK        -0.1800 
     77 C          -2.8747  -26.3756  -46.6223 C.2       13 UNK         0.5000 
     78 O          -3.8606  -27.0954  -46.7848 O.2       13 UNK        -0.5000 
     79 N          -1.8426  -26.3225  -47.4778 N.am      14 UNK        -0.5000 
     80 CA         -1.7621  -27.0636  -48.7403 C.3       14 UNK         0.1400 
     81 CB         -0.3627  -26.8815  -49.3466 C.3       14 UNK        -0.1800 
     82 C          -2.8474  -26.6557  -49.7571 C.2       14 UNK         0.5000 
     83 O          -3.3091  -27.4998  -50.5252 O.2       14 UNK        -0.5000 
     84 N          -3.2583  -25.3818  -49.7179 N.am      15 UNK        -0.5000 
     85 CA         -4.3377  -24.8110  -50.5241 C.3       15 UNK         0.1400 
     86 CB         -4.0569  -23.3139  -50.7302 C.3       15 UNK        -0.1800 
     87 C          -5.7412  -25.0339  -49.9180 C.2       15 UNK         0.5000 
     88 O          -6.7103  -24.5021  -50.4586 O.2       15 UNK        -0.5000 
     89 N          -5.8377  -25.7916  -48.8139 N.am      16 UNK        -0.5000 
     90 CA         -7.0579  -26.1326  -48.0741 C.3       16 UNK         0.1400 
     91 CB         -7.9991  -27.0051  -48.9315 C.3       16 UNK        -0.1800 
     92 C          -7.7552  -24.8993  -47.4607 C.2       16 UNK         0.5000 
     93 O          -8.9776  -24.7684  -47.5426 O.2       16 UNK        -0.5000 
     94 N          -6.9451  -24.0218  -46.8530 N.am      17 UNK        -0.5000 
     95 CA         -7.3013  -22.7762  -46.1640 C.3       17 UNK         0.1400 
     96 CB         -8.3212  -23.0152  -45.0306 C.3       17 UNK        -0.1800 
     97 C          -7.7050  -21.6256  -47.1082 C.2       17 UNK         0.5000 
     98 O          -8.2474  -20.6213  -46.6431 O.2       17 UNK        -0.5000 
     99 N          -7.4000  -21.7615  -48.4053 N.am      18 UNK        -0.5000 
    100 CA        -7.4750  -20.6827  -49.3898 C.3       18 UNK         0.1400 
    101 CB        -7.5959  -21.2982  -50.7930 C.3       18 UNK        -0.1800 
    102 C         -6.2472  -19.7533  -49.2882 C.2       18 UNK         0.5000 
    103 O         -5.3242  -20.0162  -48.5108 O.2       18 UNK        -0.5000 
    104 N         -6.2462  -18.6853  -50.0969 N.am      19 UNK        -0.5000 
    105 CA        -5.2082  -17.6514  -50.1746 C.3       19 UNK         0.1400 
    106 CB        -5.7920  -16.4307  -50.9085 C.3       19 UNK        -0.1800 
    107 C         -3.8934  -18.1520  -50.8156 C.2       19 UNK         0.5000 
    108 O         -3.4767  -17.6570  -51.8645 O.2       19 UNK        -0.5000 
    109 N         -3.2800  -19.1626  -50.1850 N.am      20 UNK        -0.5000 
    110 CA        -1.9686  -19.7577  -50.4756 C.3       20 UNK         0.1400 
    111 CB        -0.8739  -18.6956  -50.2734 C.3       20 UNK        -0.1800 
    112 C         -1.8418  -20.4410  -51.8553 C.2       20 UNK         0.5000 
    113 O         -0.7336  -20.8148  -52.2396 O.2       20 UNK        -0.5000 
    114 N         -2.9680  -20.5682  -52.5749 N.am      21 UNK        -0.5000 
    115 CA        -3.0913  -20.9397  -53.9896 C.3       21 UNK         0.1400 
    116 CB        -2.6309  -22.3928  -54.2330 C.3       21 UNK        -0.1800 
    117 C         -2.4168  -19.9226  -54.9412 C.2       21 UNK         0.5000 
    118 O         -2.0483  -20.2836  -56.0608 O.2       21 UNK        -0.5000 
    119 N         -2.2747  -18.6720  -54.4845 N.am      22 UNK        -0.5000 
    120 CA        -1.6485  -17.5614  -55.2132 C.3       22 UNK         0.1400 
    121 C         -2.7113  -16.6206  -55.8429 C.2       22 UNK         0.5000 
    122 N         -2.3358  -15.8503  -56.8552 N.am      22 UNK        -0.7600 
    123 O         -3.8645  -16.5603  -55.4210 O.2       22 UNK        -0.5000 
    124 C124       -0.6800  -16.7714  -54.2958 C.3       23 UNK        -0.0398 
    125 S125        0.7295  -17.7960  -53.7530 S.3       23 UNK        -0.2404 
    126 C126        1.4282  -16.7570  -52.4256 C.3       23 UNK        -0.0205 
    127 H127        6.1377  -10.5061  -49.0626 H         1 UNK         0.0600 
    128 H128        6.4928  -12.2193  -49.3030 H         1 UNK         0.0600 
    129 H129        7.1504  -11.3708  -47.9014 H         1 UNK         0.0600 
    130 H130        4.7767  -13.5303  -48.7648 H         1 UNK         0.3000 
    131 H131        3.3768  -13.3184  -46.2702 H         1 UNK         0.0600 
    132 H132        2.1503  -15.3024  -46.9638 H         1 UNK         0.0800 
    133 H133        2.5916  -15.1033  -48.6258 H         1 UNK         0.0800 
    134 H134        6.0743  -16.7084  -48.8879 H         1 UNK         0.0800 
    135 H135        5.2276  -15.3056  -49.4692 H         1 UNK         0.0800 
    136 H136        3.1520  -15.5496  -50.7757 H         1 UNK         0.1150 
    137 H137        2.0408  -19.4804  -52.0834 H         1 UNK         0.1150 
    138 H138        5.1341  -18.9912  -49.1690 H         1 UNK         0.1150 
    139 H139        3.2594  -21.3879  -51.4127 H         1 UNK         0.0800 
    140 H140        4.9012  -21.0752  -50.9174 H         1 UNK         0.0800 
    141 H141        1.3198  -21.3893  -49.9171 H         1 UNK         0.0800 
    142 H142        1.5045  -20.6597  -48.3419 H         1 UNK         0.0800 
    143 H143        1.3410  -23.6660  -48.8937 H         1 UNK         0.0600 
    144 H144        2.0480  -22.3032  -46.4538 H         1 UNK         0.3000 
    145 H145        1.2307  -25.0067  -44.2700 H         1 UNK         0.0600 
    146 H146        3.6475  -24.9443  -43.7379 H         1 UNK         0.0600 
    147 H147        3.3947  -25.7604  -45.2725 H         1 UNK         0.0600 
    148 H148        3.9902  -24.1046  -45.2514 H         1 UNK         0.0600 
    149 H149        2.6519  -22.6228  -43.7672 H         1 UNK         0.3000 
    150 H150       -0.0609  -20.8586  -42.5035 H         1 UNK         0.0600 
    151 H151        2.1301  -21.6850  -41.5736 H         1 UNK         0.0600 
    152 H152        2.0554  -19.9355  -41.6867 H         1 UNK         0.0600 
    153 H153        2.9879  -20.8441  -42.8660 H         1 UNK         0.0600 
    154 H154        0.0717  -19.1091  -43.8345 H         1 UNK         0.3000 
    155 H155        2.3081  -18.0500  -46.3928 H         1 UNK         0.0600 
    156 H156       -0.7412  -18.2800  -46.3499 H         1 UNK         0.0600 
    157 H157        0.2270  -17.2883  -47.4344 H         1 UNK         0.0600 
    158 H158        0.2794  -19.0401  -47.5543 H         1 UNK         0.0600 
    159 H159        0.3057  -16.6329  -44.9811 H         1 UNK         0.3000 
    160 H160        2.2709  -15.5646  -42.1942 H         1 UNK         0.0600 
    161 H161        1.1814  -14.1795  -44.6996 H         1 UNK         0.0600 
    162 H162        2.8258  -14.0661  -44.0785 H         1 UNK         0.0600 
    163 H163        1.4918  -13.3995  -43.1505 H         1 UNK         0.0600 
    164 H164       -0.4730  -15.3792  -43.2903 H         1 UNK         0.3000 
    165 H165       -1.8519  -17.4865  -40.8118 H         1 UNK         0.0600 
    166 H166       -3.2140  -15.5125  -40.1793 H         1 UNK         0.0600 
    167 H167       -1.6041  -15.3800  -39.4904 H         1 UNK         0.0600 
    168 H168       -2.0292  -14.4263  -40.9066 H         1 UNK         0.0600 
    169 H169       -3.0498  -15.7425  -42.7368 H         1 UNK         0.3000 
    170 H170       -2.8898  -17.9364  -45.5133 H         1 UNK         0.0600 
    171 H171       -4.7561  -18.8700  -44.1279 H         1 UNK         0.0600 
    172 H172       -5.2850  -17.2350  -43.7470 H         1 UNK         0.0600 
    173 H173       -5.3390  -17.8236  -45.4103 H         1 UNK         0.0600 
    174 H174       -4.2843  -15.5722  -45.3953 H         1 UNK         0.3000 
    175 H175       -3.6157  -13.7845  -46.4740 H         1 UNK         0.0600 
    176 H176       -1.0284  -12.8233  -45.1294 H         1 UNK         0.0600 
    177 H177       -2.2354  -11.7812  -45.8785 H         1 UNK         0.0600 
    178 H178       -2.6477  -12.7216  -44.4515 H         1 UNK         0.0600 
    179 H179       -0.9228  -13.3969  -47.5281 H         1 UNK         0.3000 
    180 H180       -0.7543  -15.3588  -49.9244 H         1 UNK         0.0600 
    181 H181       -2.7199  -13.4178  -51.2422 H         1 UNK         0.0600 
    182 H182       -2.7037  -15.1673  -51.3853 H         1 UNK         0.0600 
    183 H183       -1.3974  -14.2279  -52.0814 H         1 UNK         0.0600 
    184 H184        0.6886  -13.7068  -49.7403 H         1 UNK         0.3000 
    185 H185        1.2021  -10.8784  -50.4508 H         1 UNK         0.0600 
    186 H186       -0.1396   -9.2834  -49.1407 H         1 UNK         0.0600 
    187 H187        0.1354  -10.1914  -47.6606 H         1 UNK         0.0600 
    188 H188        1.4754   -9.3696  -48.4586 H         1 UNK         0.0600 
    189 H189        2.8066  -12.0030  -49.4128 H         1 UNK         0.3000 
    190 H190       -0.4718  -21.7728  -46.4884 H         1 UNK         0.3000 
    191 H191       -2.9354  -21.6759  -48.0557 H         1 UNK         0.0600 
    192 H192       -2.3715  -21.0087  -45.1241 H         1 UNK         0.0600 
    193 H193       -3.8957  -20.7377  -45.9662 H         1 UNK         0.0600 
    194 H194       -2.4514  -19.8860  -46.4827 H         1 UNK         0.0600 
    195 H195       -1.5972  -23.6730  -45.3981 H         1 UNK         0.3000 
    196 H196       -3.8392  -25.3477  -45.0073 H         1 UNK         0.0600 
    197 H197       -2.2221  -26.8935  -43.9573 H         1 UNK         0.0600 
    198 H198       -1.8610  -25.2410  -43.4784 H         1 UNK         0.0600 
    199 H199       -0.8720  -26.0458  -44.6954 H         1 UNK         0.0600 
    200 H200       -1.0440  -25.7377  -47.2470 H         1 UNK         0.3000 
    201 H201       -1.9023  -28.1228  -48.5150 H         1 UNK         0.0600 
    202 H202        0.4105  -27.2446  -48.6693 H         1 UNK         0.0600 
    203 H203       -0.1524  -25.8334  -49.5628 H         1 UNK         0.0600 
    204 H204       -0.2644  -27.4369  -50.2801 H         1 UNK         0.0600 
    205 H205       -2.7997  -24.7480  -49.0764 H         1 UNK         0.3000 
    206 H206       -4.3307  -25.2888  -51.5057 H         1 UNK         0.0600 
    207 H207       -3.0362  -23.1501  -51.0740 H         1 UNK         0.0600 
    208 H208       -4.7165  -22.8964  -51.4898 H         1 UNK         0.0600 
    209 H209       -4.2004  -22.7418  -49.8135 H         1 UNK         0.0600 
    210 H210       -4.9803  -26.1534  -48.4143 H         1 UNK         0.3000 
    211 H211       -6.7338  -26.7421  -47.2293 H         1 UNK         0.0600 
    212 H212       -8.4156  -26.4507  -49.7729 H         1 UNK         0.0600 
    213 H213       -8.8367  -27.3736  -48.3382 H         1 UNK         0.0600 
    214 H214       -7.4763  -27.8752  -49.3285 H         1 UNK         0.0600 
    215 H215       -5.9408  -24.1722  -46.9319 H         1 UNK         0.3000 
    216 H216       -6.3767  -22.4422  -45.6910 H         1 UNK         0.0600 
    217 H217       -8.4240  -22.1275  -44.4056 H         1 UNK         0.0600 
    218 H218       -8.0064  -23.8319  -44.3811 H         1 UNK         0.0600 
    219 H219       -9.3121  -23.2536  -45.4173 H         1 UNK         0.0600 
    220 H220       -6.9455  -22.6133  -48.7019 H         1 UNK         0.3000 
    221 H221       -8.3692  -20.0863  -49.1973 H         1 UNK         0.0600 
    222 H222       -6.6867  -21.8223  -51.0818 H         1 UNK         0.0600 
    223 H223       -8.4195  -22.0111  -50.8413 H         1 UNK         0.0600 
    224 H224       -7.7876  -20.5354  -51.5482 H         1 UNK         0.0600 
    225 H225       -7.0296  -18.5587  -50.7211 H         1 UNK         0.3000 
    226 H226       -4.9644  -17.3386  -49.1570 H         1 UNK         0.0600 
    227 H227       -6.6804  -16.0531  -50.4023 H         1 UNK         0.0600 
    228 H228       -5.0710  -15.6132  -50.9417 H         1 UNK         0.0600 
    229 H229       -6.0653  -16.6702  -51.9369 H         1 UNK         0.0600 
    230 H230       -3.7766  -19.5503  -49.3849 H         1 UNK         0.3000 
    231 H231       -1.8182  -20.5374  -49.7329 H         1 UNK         0.0600 
    232 H232        0.1153  -19.1498  -50.2292 H         1 UNK         0.0600 
    233 H233       -1.0270  -18.1393  -49.3506 H         1 UNK         0.0600 
    234 H234       -0.8734  -17.9768  -51.0909 H         1 UNK         0.0600 
    235 H235       -3.8107  -20.2093  -52.1507 H         1 UNK         0.3000 
    236 H236       -4.1570  -20.8950  -54.2176 H         1 UNK         0.0600 
    237 H237       -2.8565  -22.7084  -55.2521 H         1 UNK         0.0600 
    238 H238       -1.5569  -22.5096  -54.0880 H         1 UNK         0.0600 
    239 H239       -3.1380  -23.0869  -53.5640 H         1 UNK         0.0600 
    240 H240       -2.6599  -18.4318  -53.5768 H         1 UNK         0.3000 
    241 H241       -1.0614  -17.9647  -56.0406 H         1 UNK         0.0600 
    242 H242       -3.0116  -15.2284  -57.2719 H         1 UNK         0.3800 
    243 H243       -1.3989  -15.8799  -57.2274 H         1 UNK         0.3800 
    244 H244       -0.2771  -15.8978  -54.8110 H         1 UNK         0.0800 
    245 H245       -1.2130  -16.3989  -53.4193 H         1 UNK         0.0800 
    246 H246        0.6224  -16.3895  -51.7911 H         1 UNK         0.0800 
    247 H247        1.8744  -15.8776  -52.8926 H         1 UNK         0.0800 
@<TRIPOS>BOND
     1    1    2 1    
     2    1  127 1    
     3    1  128 1    
     4    1  129 1    
     5    2    3 2    
     6    2    4 am   BACKBONE|DICT|INTERRES
     7    4    5 1    
     8    4  130 1    
     9    5    6 1    
    10    5   65 1    
    11    5  131 1    
    12    6    7 1    
    13    6  132 1    
    14    6  133 1    
    15    7    8 1    
    16    8    9 1    
    17    8  134 1    
    18    8  135 1    
    19    9   10 ar   
    20    9   14 ar   
    21   10   11 ar   
    22   10  136 1    
    23   11   12 ar   
    24   11  126 1    
    25   12   13 ar   
    26   12  137 1    
    27   13   14 ar   
    28   13   15 1    
    29   14  138 1    
    30   15   16 1    
    31   15  139 1    
    32   15  140 1    
    33   16   17 1    
    34   17   18 1    
    35   17  141 1    
    36   17  142 1    
    37   18   19 1    
    38   18   67 1    
    39   18  143 1    
    40   19   20 am   BACKBONE|DICT|INTERRES
    41   19  144 1    
    42   20   21 2    
    43   20   22 1    
    44   22   23 1    
    45   22   24 1    
    46   22  145 1    
    47   23  146 1    
    48   23  147 1    
    49   23  148 1    
    50   24   25 am   BACKBONE|DICT|INTERRES
    51   24  149 1    
    52   25   26 2    
    53   25   27 1    
    54   27   28 1    
    55   27   29 1    
    56   27  150 1    
    57   28  151 1    
    58   28  152 1    
    59   28  153 1    
    60   29   30 am   BACKBONE|DICT|INTERRES
    61   29  154 1    
    62   30   31 2    
    63   30   32 1    
    64   32   33 1    
    65   32   34 1    
    66   32  155 1    
    67   33  156 1    
    68   33  157 1    
    69   33  158 1    
    70   34   35 am   BACKBONE|DICT|INTERRES
    71   34  159 1    
    72   35   36 2    
    73   35   37 1    
    74   37   38 1    
    75   37   39 1    
    76   37  160 1    
    77   38  161 1    
    78   38  162 1    
    79   38  163 1    
    80   39   40 am   BACKBONE|DICT|INTERRES
    81   39  164 1    
    82   40   41 2    
    83   40   42 1    
    84   42   43 1    
    85   42   44 1    
    86   42  165 1    
    87   43  166 1    
    88   43  167 1    
    89   43  168 1    
    90   44   45 am   BACKBONE|DICT|INTERRES
    91   44  169 1    
    92   45   46 2    
    93   45   47 1    
    94   47   48 1    
    95   47   49 1    
    96   47  170 1    
    97   48  171 1    
    98   48  172 1    
    99   48  173 1    
   100   49   50 am   BACKBONE|DICT|INTERRES
   101   49  174 1    
   102   50   51 2    
   103   50   52 1    
   104   52   53 1    
   105   52   54 1    
   106   52  175 1    
   107   53  176 1    
   108   53  177 1    
   109   53  178 1    
   110   54   55 am   BACKBONE|DICT|INTERRES
   111   54  179 1    
   112   55   56 2    
   113   55   57 1    
   114   57   58 1    
   115   57   59 1    
   116   57  180 1    
   117   58  181 1    
   118   58  182 1    
   119   58  183 1    
   120   59   60 am   BACKBONE|DICT|INTERRES
   121   59  184 1    
   122   60   61 2    
   123   60   62 1    
   124   62   63 1    
   125   62   64 1    
   126   62  185 1    
   127   63  186 1    
   128   63  187 1    
   129   63  188 1    
   130   64   65 am   BACKBONE|DICT|INTERRES
   131   64  189 1    
   132   65   66 2    
   133   67   68 2    
   134   67   69 am   BACKBONE|DICT|INTERRES
   135   69   70 1    
   136   69  190 1    
   137   70   71 1    
   138   70   72 1    
   139   70  191 1    
   140   71  192 1    
   141   71  193 1    
   142   71  194 1    
   143   72   73 2    
   144   72   74 am   BACKBONE|DICT|INTERRES
   145   74   75 1    
   146   74  195 1    
   147   75   76 1    
   148   75   77 1    
   149   75  196 1    
   150   76  197 1    
   151   76  198 1    
   152   76  199 1    
   153   77   78 2    
   154   77   79 am   BACKBONE|DICT|INTERRES
   155   79   80 1    
   156   79  200 1    
   157   80   81 1    
   158   80   82 1    
   159   80  201 1    
   160   81  202 1    
   161   81  203 1    
   162   81  204 1    
   163   82   83 2    
   164   82   84 am   BACKBONE|DICT|INTERRES
   165   84   85 1    
   166   84  205 1    
   167   85   86 1    
   168   85   87 1    
   169   85  206 1    
   170   86  207 1    
   171   86  208 1    
   172   86  209 1    
   173   87   88 2    
   174   87   89 am   BACKBONE|DICT|INTERRES
   175   89   90 1    
   176   89  210 1    
   177   90   91 1    
   178   90   92 1    
   179   90  211 1    
   180   91  212 1    
   181   91  213 1    
   182   91  214 1    
   183   92   93 2    
   184   92   94 am   BACKBONE|DICT|INTERRES
   185   94   95 1    
   186   94  215 1    
   187   95   96 1    
   188   95   97 1    
   189   95  216 1    
   190   96  217 1    
   191   96  218 1    
   192   96  219 1    
   193   97   98 2    
   194   97   99 am   BACKBONE|DICT|INTERRES
   195   99  100 1    
   196   99  220 1    
   197  100  101 1    
   198  100  102 1    
   199  100  221 1    
   200  101  222 1    
   201  101  223 1    
   202  101  224 1    
   203  102  103 2    
   204  102  104 am   BACKBONE|DICT|INTERRES
   205  104  105 1    
   206  104  225 1    
   207  105  106 1    
   208  105  107 1    
   209  105  226 1    
   210  106  227 1    
   211  106  228 1    
   212  106  229 1    
   213  107  108 2    
   214  107  109 am   BACKBONE|DICT|INTERRES
   215  109  110 1    
   216  109  230 1    
   217  110  111 1    
   218  110  112 1    
   219  110  231 1    
   220  111  232 1    
   221  111  233 1    
   222  111  234 1    
   223  112  113 2    
   224  112  114 am   BACKBONE|DICT|INTERRES
   225  114  115 1    
   226  114  235 1    
   227  115  116 1    
   228  115  117 1    
   229  115  236 1    
   230  116  237 1    
   231  116  238 1    
   232  116  239 1    
   233  117  118 2    
   234  117  119 am   BACKBONE|DICT|INTERRES
   235  119  120 1    
   236  119  240 1    
   237  120  121 1    
   238  120  124 1    
   239  120  241 1    
   240  121  122 am   BACKBONE|DICT|INTERRES
   241  121  123 2    
   242  122  242 1    
   243  122  243 1    
   244  124  125 1    
   245  124  244 1    
   246  124  245 1    
   247  125  126 1    
   248  126  246 1    
   249  126  247 1    
@<TRIPOS>SUBSTRUCTURE
     1 UNK         1 GROUP             0       ****    0 ROOT    
