@<TRIPOS>MOLECULE
3R540
247   249    1
SMALL
USER_CHARGES


@<TRIPOS>ATOM
      1 CA          2.5890  -15.2435  -50.6457 C.3       0 UNK        -0.1800 
      2 C           1.3263  -14.9632  -49.8475 C.2       0 UNK         0.5000 
      3 O           1.3182  -14.0382  -49.0366 O.2       0 UNK        -0.5000 
      4 N           0.2676  -15.7513  -50.0803 N.am      1 UNK        -0.5000 
      5 CA         -1.0375  -15.7247  -49.4013 C.3       1 UNK         0.1400 
      6 C6         -2.0593  -16.6894  -50.0736 C.3       23 UNK        -0.0398 
      7 S7         -2.6586  -17.9549  -48.9092 S.3       23 UNK        -0.2404 
      8 C8         -1.7994  -19.4556  -49.4863 C.3       23 UNK        -0.0205 
      9 C9         -0.3062  -19.2643  -49.7017 C.ar      23 UNK        -0.0193 
     10 C10         0.2565  -19.4999  -50.9559 C.ar      23 UNK        -0.1150 
     11 C11         1.6151  -19.2686  -51.1829 C.ar      23 UNK        -0.0193 
     12 C12         2.4297  -18.8678  -50.1190 C.ar      23 UNK        -0.1150 
     13 C13         1.8845  -18.6619  -48.8469 C.ar      23 UNK        -0.0193 
     14 C14         0.5123  -18.8459  -48.6527 C.ar      23 UNK        -0.1150 
     15 C15         2.7676  -18.2008  -47.6960 C.3       23 UNK        -0.0205 
     16 S16         3.3873  -19.5930  -46.6942 S.3       23 UNK        -0.2404 
     17 C17         1.8843  -20.1021  -45.7956 C.3       23 UNK        -0.0398 
     18 CA          1.4329  -21.5302  -46.1628 C.3       11 UNK         0.1400 
     19 N           2.2618  -22.5262  -45.4875 N.am      11 UNK        -0.5000 
     20 C           2.3662  -23.8098  -45.8421 C.2       10 UNK         0.5000 
     21 O           1.8086  -24.2946  -46.8264 O.2       10 UNK        -0.5000 
     22 CA          3.2070  -24.6997  -44.9066 C.3       10 UNK         0.1400 
     23 CB          4.6944  -24.6246  -45.2821 C.3       10 UNK        -0.1800 
     24 N           3.0443  -24.3406  -43.4925 N.am      10 UNK        -0.5000 
     25 C           1.9138  -24.5355  -42.7992 C.2       9 UNK         0.5000 
     26 O           0.9076  -25.0569  -43.2802 O.2       9 UNK        -0.5000 
     27 CA          1.8846  -24.0376  -41.3386 C.3       9 UNK         0.1400 
     28 CB          2.4927  -25.0925  -40.4022 C.3       9 UNK        -0.1800 
     29 N           2.5416  -22.7445  -41.1023 N.am      9 UNK        -0.5000 
     30 C           2.2422  -21.5968  -41.7260 C.2       8 UNK         0.5000 
     31 O           1.4515  -21.5272  -42.6663 O.2       8 UNK        -0.5000 
     32 CA          2.9782  -20.3285  -41.2508 C.3       8 UNK         0.1400 
     33 CB          4.4528  -20.3746  -41.6841 C.3       8 UNK        -0.1800 
     34 N           2.3742  -19.1172  -41.8117 N.am      8 UNK        -0.5000 
     35 C           1.2509  -18.5250  -41.3813 C.2       7 UNK         0.5000 
     36 O           0.6711  -18.8408  -40.3393 O.2       7 UNK        -0.5000 
     37 CA          0.7366  -17.3507  -42.2514 C.3       7 UNK         0.1400 
     38 CB          0.8585  -17.6440  -43.7585 C.3       7 UNK        -0.1800 
     39 N          -0.6378  -16.9192  -41.9819 N.am      7 UNK        -0.5000 
     40 C          -1.7599  -17.6485  -42.0888 C.2       6 UNK         0.5000 
     41 O          -1.7947  -18.8663  -42.2689 O.2       6 UNK        -0.5000 
     42 CA         -3.0810  -16.8544  -42.0617 C.3       6 UNK         0.1400 
     43 CB         -3.5276  -16.5847  -40.6165 C.3       6 UNK        -0.1800 
     44 N          -3.0043  -15.5840  -42.7931 N.am      6 UNK        -0.5000 
     45 C          -2.7767  -15.4633  -44.1110 C.2       5 UNK         0.5000 
     46 O          -2.6427  -16.4239  -44.8699 O.2       5 UNK        -0.5000 
     47 CA         -2.6887  -14.0368  -44.6976 C.3       5 UNK         0.1400 
     48 CB         -3.1005  -12.9148  -43.7172 C.3       5 UNK        -0.1800 
     49 N          -1.3657  -13.7653  -45.2677 N.am      5 UNK        -0.5000 
     50 C          -0.1901  -13.7895  -44.6203 C.2       4 UNK         0.5000 
     51 O          -0.0729  -14.0295  -43.4172 O.2       4 UNK        -0.5000 
     52 CA          1.0784  -13.4970  -45.4438 C.3       4 UNK         0.1400 
     53 CB          1.7653  -14.8037  -45.8656 C.3       4 UNK        -0.1800 
     54 N           0.8409  -12.6895  -46.6397 N.am      4 UNK        -0.5000 
     55 C           0.6338  -11.3662  -46.6390 C.2       3 UNK         0.5000 
     56 O           0.5145  -10.6940  -45.6140 O.2       3 UNK        -0.5000 
     57 CA          0.5754  -10.6716  -48.0097 C.3       3 UNK         0.1400 
     58 CB          1.9951  -10.4372  -48.5503 C.3       3 UNK        -0.1800 
     59 N          -0.1765  -11.4634  -48.9818 N.am      3 UNK        -0.5000 
     60 C          -1.4080  -11.1669  -49.4176 C.2       2 UNK         0.5000 
     61 O          -2.0326  -10.1631  -49.0714 O.2       2 UNK        -0.5000 
     62 CA         -2.0673  -12.1495  -50.4083 C.3       2 UNK         0.1400 
     63 CB         -1.9046  -11.6484  -51.8514 C.3       2 UNK        -0.1800 
     64 N          -1.5634  -13.5207  -50.3299 N.am      2 UNK        -0.5000 
     65 C          -1.6489  -14.3167  -49.2556 C.2       1 UNK         0.5000 
     66 O          -2.1481  -13.9757  -48.1820 O.2       1 UNK        -0.5000 
     67 C          -0.0637  -21.7559  -45.8590 C.2       11 UNK         0.5000 
     68 O          -0.8891  -21.5949  -46.7539 O.2       11 UNK        -0.5000 
     69 N          -0.3975  -22.1792  -44.6327 N.am      12 UNK        -0.5000 
     70 CA         -1.7494  -22.5721  -44.2311 C.3       12 UNK         0.1400 
     71 CB         -1.8018  -22.7789  -42.7110 C.3       12 UNK        -0.1800 
     72 C          -2.2435  -23.8255  -44.9796 C.2       12 UNK         0.5000 
     73 O          -3.4154  -23.8884  -45.3502 O.2       12 UNK        -0.5000 
     74 N          -1.3361  -24.7762  -45.2457 N.am      13 UNK        -0.5000 
     75 CA         -1.5929  -25.9382  -46.0986 C.3       13 UNK         0.1400 
     76 CB         -0.4327  -26.9374  -45.9836 C.3       13 UNK        -0.1800 
     77 C          -1.8480  -25.5448  -47.5674 C.2       13 UNK         0.5000 
     78 O          -2.7309  -26.1203  -48.2026 O.2       13 UNK        -0.5000 
     79 N          -1.1168  -24.5384  -48.0690 N.am      14 UNK        -0.5000 
     80 CA         -1.3421  -23.9412  -49.3878 C.3       14 UNK         0.1400 
     81 CB         -0.1519  -23.0471  -49.7680 C.3       14 UNK        -0.1800 
     82 C          -2.6749  -23.1685  -49.4648 C.2       14 UNK         0.5000 
     83 O          -3.3365  -23.2007  -50.5019 O.2       14 UNK        -0.5000 
     84 N          -3.0741  -22.5213  -48.3610 N.am      15 UNK        -0.5000 
     85 CA         -4.3587  -21.8327  -48.2220 C.3       15 UNK         0.1400 
     86 CB         -4.3648  -20.9634  -46.9549 C.3       15 UNK        -0.1800 
     87 C          -5.5373  -22.8206  -48.2208 C.2       15 UNK         0.5000 
     88 O          -6.5451  -22.5588  -48.8762 O.2       15 UNK        -0.5000 
     89 N          -5.3676  -23.9680  -47.5475 N.am      16 UNK        -0.5000 
     90 CA         -6.3045  -25.0953  -47.5700 C.3       16 UNK         0.1400 
     91 CB         -5.8864  -26.1311  -46.5159 C.3       16 UNK        -0.1800 
     92 C          -6.4286  -25.7443  -48.9648 C.2       16 UNK         0.5000 
     93 O          -7.5127  -26.2006  -49.3280 O.2       16 UNK        -0.5000 
     94 N          -5.3342  -25.7244  -49.7388 N.am      17 UNK        -0.5000 
     95 CA         -5.2806  -26.1205  -51.1494 C.3       17 UNK         0.1400 
     96 CB         -3.8383  -26.5206  -51.5014 C.3       17 UNK        -0.1800 
     97 C          -5.8093  -25.0348  -52.1165 C.2       17 UNK         0.5000 
     98 O          -5.8213  -25.2675  -53.3259 O.2       17 UNK        -0.5000 
     99 N          -6.2444  -23.8857  -51.5777 N.am      18 UNK        -0.5000 
    100 CA        -6.8519  -22.7401  -52.2577 C.3       18 UNK         0.1400 
    101 CB        -8.1626  -23.1415  -52.9673 C.3       18 UNK        -0.1800 
    102 C         -5.8853  -21.9547  -53.1667 C.2       18 UNK         0.5000 
    103 O         -6.3280  -21.3418  -54.1398 O.2       18 UNK        -0.5000 
    104 N         -4.5924  -21.9099  -52.8130 N.am      19 UNK        -0.5000 
    105 CA        -3.5556  -21.1284  -53.5022 C.3       19 UNK         0.1400 
    106 CB        -2.1824  -21.7637  -53.2229 C.3       19 UNK        -0.1800 
    107 C         -3.5852  -19.6239  -53.1365 C.2       19 UNK         0.5000 
    108 O         -2.5338  -18.9957  -53.0093 O.2       19 UNK        -0.5000 
    109 N         -4.7876  -19.0589  -52.9683 N.am      20 UNK        -0.5000 
    110 CA        -5.0394  -17.6953  -52.4937 C.3       20 UNK         0.1400 
    111 CB        -6.5437  -17.5379  -52.2271 C.3       20 UNK        -0.1800 
    112 C         -4.5356  -16.5822  -53.4351 C.2       20 UNK         0.5000 
    113 O         -4.3284  -15.4570  -52.9816 O.2       20 UNK        -0.5000 
    114 N         -4.3417  -16.9136  -54.7191 N.am      21 UNK        -0.5000 
    115 CA        -3.8089  -16.0221  -55.7521 C.3       21 UNK         0.1400 
    116 CB        -4.1305  -16.6241  -57.1293 C.3       21 UNK        -0.1800 
    117 C         -2.2945  -15.7500  -55.6218 C.2       21 UNK         0.5000 
    118 O         -1.7963  -14.8214  -56.2596 O.2       21 UNK        -0.5000 
    119 N         -1.5898  -16.5651  -54.8261 N.am      22 UNK        -0.5000 
    120 CA        -0.1660  -16.4209  -54.4941 C.3       22 UNK         0.1400 
    121 C          0.1355  -15.0919  -53.7399 C.2       22 UNK         0.5000 
    122 N          1.2204  -14.4083  -54.0758 N.am      22 UNK        -0.7600 
    123 O         -0.5872  -14.6961  -52.8280 O.2       22 UNK        -0.5000 
    124 C124        0.2882  -17.6528  -53.6778 C.3       23 UNK        -0.0398 
    125 S125        2.0935  -17.8879  -53.5543 S.3       23 UNK        -0.2404 
    126 C126        2.1875  -19.4335  -52.5845 C.3       23 UNK        -0.0205 
    127 H127        3.4206  -15.4469  -49.9714 H         1 UNK         0.0600 
    128 H128        2.8448  -14.3797  -51.2587 H         1 UNK         0.0600 
    129 H129        2.4675  -16.1028  -51.3024 H         1 UNK         0.0600 
    130 H130        0.3722  -16.4855  -50.7637 H         1 UNK         0.3000 
    131 H131       -0.8280  -16.0642  -48.3847 H         1 UNK         0.0600 
    132 H132       -1.6373  -17.1789  -50.9506 H         1 UNK         0.0800 
    133 H133       -2.9347  -16.1643  -50.4605 H         1 UNK         0.0800 
    134 H134       -1.9261  -20.2247  -48.7311 H         1 UNK         0.0800 
    135 H135       -2.2857  -19.8219  -50.3904 H         1 UNK         0.0800 
    136 H136       -0.3724  -19.8229  -51.7724 H         1 UNK         0.1150 
    137 H137        3.4841  -18.6982  -50.2858 H         1 UNK         0.1150 
    138 H138        0.0601  -18.6462  -47.6936 H         1 UNK         0.1150 
    139 H139        3.6210  -17.6445  -48.0865 H         1 UNK         0.0800 
    140 H140        2.2229  -17.5037  -47.0589 H         1 UNK         0.0800 
    141 H141        1.0955  -19.3794  -45.9856 H         1 UNK         0.0800 
    142 H142        2.0931  -20.0357  -44.7288 H         1 UNK         0.0800 
    143 H143        1.5510  -21.6589  -47.2413 H         1 UNK         0.0600 
    144 H144        2.7103  -22.2278  -44.6343 H         1 UNK         0.3000 
    145 H145        2.8725  -25.7308  -45.0404 H         1 UNK         0.0600 
    146 H146        5.2894  -25.3060  -44.6737 H         1 UNK         0.0600 
    147 H147        4.8474  -24.9040  -46.3254 H         1 UNK         0.0600 
    148 H148        5.0944  -23.6185  -45.1496 H         1 UNK         0.0600 
    149 H149        3.8308  -23.9086  -43.0301 H         1 UNK         0.3000 
    150 H150        0.8354  -23.9146  -41.0641 H         1 UNK         0.0600 
    151 H151        3.5591  -25.2278  -40.5865 H         1 UNK         0.0600 
    152 H152        2.0103  -26.0615  -40.5385 H         1 UNK         0.0600 
    153 H153        2.3648  -24.8132  -39.3563 H         1 UNK         0.0600 
    154 H154        3.2220  -22.7248  -40.3563 H         1 UNK         0.3000 
    155 H155        2.9261  -20.2838  -40.1611 H         1 UNK         0.0600 
    156 H156        4.5528  -20.4435  -42.7684 H         1 UNK         0.0600 
    157 H157        4.9672  -21.2337  -41.2519 H         1 UNK         0.0600 
    158 H158        4.9873  -19.4831  -41.3553 H         1 UNK         0.0600 
    159 H159        2.7819  -18.7877  -42.6730 H         1 UNK         0.3000 
    160 H160        1.3699  -16.4927  -42.0221 H         1 UNK         0.0600 
    161 H161        0.3537  -18.5779  -44.0043 H         1 UNK         0.0600 
    162 H162        1.8982  -17.7108  -44.0785 H         1 UNK         0.0600 
    163 H163        0.3873  -16.8624  -44.3533 H         1 UNK         0.0600 
    164 H164       -0.7476  -15.9232  -41.8485 H         1 UNK         0.3000 
    165 H165       -3.8445  -17.4683  -42.5443 H         1 UNK         0.0600 
    166 H166       -4.5049  -16.1025  -40.5886 H         1 UNK         0.0600 
    167 H167       -3.6093  -17.5159  -40.0542 H         1 UNK         0.0600 
    168 H168       -2.8206  -15.9437  -40.0884 H         1 UNK         0.0600 
    169 H169       -3.0935  -14.7409  -42.2453 H         1 UNK         0.3000 
    170 H170       -3.3892  -14.0120  -45.5336 H         1 UNK         0.0600 
    171 H171       -4.1169  -13.0653  -43.3513 H         1 UNK         0.0600 
    172 H172       -2.4392  -12.8531  -42.8524 H         1 UNK         0.0600 
    173 H173       -3.0812  -11.9439  -44.2125 H         1 UNK         0.0600 
    174 H174       -1.3577  -13.6159  -46.2709 H         1 UNK         0.3000 
    175 H175        1.7687  -12.9494  -44.7985 H         1 UNK         0.0600 
    176 H176        1.0907  -15.4433  -46.4361 H         1 UNK         0.0600 
    177 H177        2.6438  -14.6101  -46.4816 H         1 UNK         0.0600 
    178 H178        2.1049  -15.3614  -44.9934 H         1 UNK         0.0600 
    179 H179        0.9577  -13.1688  -47.5309 H         1 UNK         0.3000 
    180 H180        0.1090   -9.6949  -47.8652 H         1 UNK         0.0600 
    181 H181        2.5215  -11.3766  -48.7254 H         1 UNK         0.0600 
    182 H182        2.5897   -9.8523  -47.8474 H         1 UNK         0.0600 
    183 H183        1.9706   -9.8879  -49.4915 H         1 UNK         0.0600 
    184 H184        0.2489  -12.3345  -49.2808 H         1 UNK         0.3000 
    185 H185       -3.1334  -12.1787  -50.1748 H         1 UNK         0.0600 
    186 H186       -2.2982  -10.6374  -51.9638 H         1 UNK         0.0600 
    187 H187       -0.8564  -11.6309  -52.1527 H         1 UNK         0.0600 
    188 H188       -2.4424  -12.2872  -52.5527 H         1 UNK         0.0600 
    189 H189       -1.1398  -13.8982  -51.1758 H         1 UNK         0.3000 
    190 H190        0.3191  -22.1937  -43.9103 H         1 UNK         0.3000 
    191 H191       -2.4199  -21.7474  -44.4807 H         1 UNK         0.0600 
    192 H192       -1.4644  -21.8878  -42.1805 H         1 UNK         0.0600 
    193 H193       -2.8207  -22.9878  -42.3832 H         1 UNK         0.0600 
    194 H194       -1.1791  -23.6147  -42.3950 H         1 UNK         0.0600 
    195 H195       -0.4093  -24.6934  -44.8423 H         1 UNK         0.3000 
    196 H196       -2.4949  -26.4294  -45.7280 H         1 UNK         0.0600 
    197 H197       -0.6345  -27.8356  -46.5684 H         1 UNK         0.0600 
    198 H198       -0.2820  -27.2485  -44.9496 H         1 UNK         0.0600 
    199 H199        0.5045  -26.5161  -46.3451 H         1 UNK         0.0600 
    200 H200       -0.3854  -24.1335  -47.4990 H         1 UNK         0.3000 
    201 H201       -1.3892  -24.7534  -50.1154 H         1 UNK         0.0600 
    202 H202       -0.2480  -22.6848  -50.7914 H         1 UNK         0.0600 
    203 H203        0.7889  -23.5942  -49.7058 H         1 UNK         0.0600 
    204 H204       -0.0714  -22.1740  -49.1227 H         1 UNK         0.0600 
    205 H205       -2.4310  -22.4614  -47.5775 H         1 UNK         0.3000 
    206 H206       -4.4757  -21.1711  -49.0832 H         1 UNK         0.0600 
    207 H207       -3.5089  -20.2895  -46.9252 H         1 UNK         0.0600 
    208 H208       -5.2634  -20.3470  -46.9162 H         1 UNK         0.0600 
    209 H209       -4.3461  -21.5641  -46.0469 H         1 UNK         0.0600 
    210 H210       -4.5339  -24.0754  -46.9772 H         1 UNK         0.3000 
    211 H211       -7.2899  -24.7128  -47.2962 H         1 UNK         0.0600 
    212 H212       -4.9088  -26.5594  -46.7348 H         1 UNK         0.0600 
    213 H213       -6.6018  -26.9532  -46.4726 H         1 UNK         0.0600 
    214 H214       -5.8408  -25.6857  -45.5218 H         1 UNK         0.0600 
    215 H215       -4.4690  -25.3862  -49.3354 H         1 UNK         0.3000 
    216 H216       -5.9118  -27.0012  -51.2830 H         1 UNK         0.0600 
    217 H217       -3.7833  -26.9383  -52.5072 H         1 UNK         0.0600 
    218 H218       -3.4579  -27.2773  -50.8149 H         1 UNK         0.0600 
    219 H219       -3.1632  -25.6667  -51.4677 H         1 UNK         0.0600 
    220 H220       -6.1651  -23.7812  -50.5737 H         1 UNK         0.3000 
    221 H221       -7.1249  -22.0432  -51.4648 H         1 UNK         0.0600 
    222 H222       -7.9781  -23.7748  -53.8354 H         1 UNK         0.0600 
    223 H223       -8.8271  -23.6809  -52.2922 H         1 UNK         0.0600 
    224 H224       -8.7040  -22.2616  -53.3167 H         1 UNK         0.0600 
    225 H225       -4.2896  -22.4217  -51.9874 H         1 UNK         0.3000 
    226 H226       -3.7312  -21.1934  -54.5777 H         1 UNK         0.0600 
    227 H227       -2.1782  -22.8252  -53.4710 H         1 UNK         0.0600 
    228 H228       -1.3998  -21.2880  -53.8153 H         1 UNK         0.0600 
    229 H229       -1.9060  -21.6636  -52.1742 H         1 UNK         0.0600 
    230 H230       -5.5997  -19.6308  -53.1648 H         1 UNK         0.3000 
    231 H231       -4.5146  -17.5796  -51.5445 H         1 UNK         0.0600 
    232 H232       -7.1294  -17.6784  -53.1365 H         1 UNK         0.0600 
    233 H233       -6.7712  -16.5440  -51.8393 H         1 UNK         0.0600 
    234 H234       -6.8911  -18.2603  -51.4881 H         1 UNK         0.0600 
    235 H235       -4.5458  -17.8615  -54.9995 H         1 UNK         0.3000 
    236 H236       -4.3195  -15.0602  -55.6719 H         1 UNK         0.0600 
    237 H237       -5.2045  -16.7564  -57.2616 H         1 UNK         0.0600 
    238 H238       -3.7843  -15.9723  -57.9325 H         1 UNK         0.0600 
    239 H239       -3.6521  -17.5949  -57.2653 H         1 UNK         0.0600 
    240 H240       -2.0876  -17.2859  -54.3185 H         1 UNK         0.3000 
    241 H241        0.3794  -16.4147  -55.4396 H         1 UNK         0.0600 
    242 H242        1.8374  -14.7256  -54.8070 H         1 UNK         0.3800 
    243 H243        1.4250  -13.5482  -53.5941 H         1 UNK         0.3800 
    244 H244       -0.1389  -17.5903  -52.6797 H         1 UNK         0.0800 
    245 H245       -0.1144  -18.5627  -54.1258 H         1 UNK         0.0800 
    246 H246        1.6615  -20.2284  -53.1156 H         1 UNK         0.0800 
    247 H247        3.2302  -19.7481  -52.5225 H         1 UNK         0.0800 
@<TRIPOS>BOND
     1    1    2 1    
     2    1  127 1    
     3    1  128 1    
     4    1  129 1    
     5    2    3 2    
     6    2    4 am   BACKBONE|DICT|INTERRES
     7    4    5 1    
     8    4  130 1    
     9    5    6 1    
    10    5   65 1    
    11    5  131 1    
    12    6    7 1    
    13    6  132 1    
    14    6  133 1    
    15    7    8 1    
    16    8    9 1    
    17    8  134 1    
    18    8  135 1    
    19    9   10 ar   
    20    9   14 ar   
    21   10   11 ar   
    22   10  136 1    
    23   11   12 ar   
    24   11  126 1    
    25   12   13 ar   
    26   12  137 1    
    27   13   14 ar   
    28   13   15 1    
    29   14  138 1    
    30   15   16 1    
    31   15  139 1    
    32   15  140 1    
    33   16   17 1    
    34   17   18 1    
    35   17  141 1    
    36   17  142 1    
    37   18   19 1    
    38   18   67 1    
    39   18  143 1    
    40   19   20 am   BACKBONE|DICT|INTERRES
    41   19  144 1    
    42   20   21 2    
    43   20   22 1    
    44   22   23 1    
    45   22   24 1    
    46   22  145 1    
    47   23  146 1    
    48   23  147 1    
    49   23  148 1    
    50   24   25 am   BACKBONE|DICT|INTERRES
    51   24  149 1    
    52   25   26 2    
    53   25   27 1    
    54   27   28 1    
    55   27   29 1    
    56   27  150 1    
    57   28  151 1    
    58   28  152 1    
    59   28  153 1    
    60   29   30 am   BACKBONE|DICT|INTERRES
    61   29  154 1    
    62   30   31 2    
    63   30   32 1    
    64   32   33 1    
    65   32   34 1    
    66   32  155 1    
    67   33  156 1    
    68   33  157 1    
    69   33  158 1    
    70   34   35 am   BACKBONE|DICT|INTERRES
    71   34  159 1    
    72   35   36 2    
    73   35   37 1    
    74   37   38 1    
    75   37   39 1    
    76   37  160 1    
    77   38  161 1    
    78   38  162 1    
    79   38  163 1    
    80   39   40 am   BACKBONE|DICT|INTERRES
    81   39  164 1    
    82   40   41 2    
    83   40   42 1    
    84   42   43 1    
    85   42   44 1    
    86   42  165 1    
    87   43  166 1    
    88   43  167 1    
    89   43  168 1    
    90   44   45 am   BACKBONE|DICT|INTERRES
    91   44  169 1    
    92   45   46 2    
    93   45   47 1    
    94   47   48 1    
    95   47   49 1    
    96   47  170 1    
    97   48  171 1    
    98   48  172 1    
    99   48  173 1    
   100   49   50 am   BACKBONE|DICT|INTERRES
   101   49  174 1    
   102   50   51 2    
   103   50   52 1    
   104   52   53 1    
   105   52   54 1    
   106   52  175 1    
   107   53  176 1    
   108   53  177 1    
   109   53  178 1    
   110   54   55 am   BACKBONE|DICT|INTERRES
   111   54  179 1    
   112   55   56 2    
   113   55   57 1    
   114   57   58 1    
   115   57   59 1    
   116   57  180 1    
   117   58  181 1    
   118   58  182 1    
   119   58  183 1    
   120   59   60 am   BACKBONE|DICT|INTERRES
   121   59  184 1    
   122   60   61 2    
   123   60   62 1    
   124   62   63 1    
   125   62   64 1    
   126   62  185 1    
   127   63  186 1    
   128   63  187 1    
   129   63  188 1    
   130   64   65 am   BACKBONE|DICT|INTERRES
   131   64  189 1    
   132   65   66 2    
   133   67   68 2    
   134   67   69 am   BACKBONE|DICT|INTERRES
   135   69   70 1    
   136   69  190 1    
   137   70   71 1    
   138   70   72 1    
   139   70  191 1    
   140   71  192 1    
   141   71  193 1    
   142   71  194 1    
   143   72   73 2    
   144   72   74 am   BACKBONE|DICT|INTERRES
   145   74   75 1    
   146   74  195 1    
   147   75   76 1    
   148   75   77 1    
   149   75  196 1    
   150   76  197 1    
   151   76  198 1    
   152   76  199 1    
   153   77   78 2    
   154   77   79 am   BACKBONE|DICT|INTERRES
   155   79   80 1    
   156   79  200 1    
   157   80   81 1    
   158   80   82 1    
   159   80  201 1    
   160   81  202 1    
   161   81  203 1    
   162   81  204 1    
   163   82   83 2    
   164   82   84 am   BACKBONE|DICT|INTERRES
   165   84   85 1    
   166   84  205 1    
   167   85   86 1    
   168   85   87 1    
   169   85  206 1    
   170   86  207 1    
   171   86  208 1    
   172   86  209 1    
   173   87   88 2    
   174   87   89 am   BACKBONE|DICT|INTERRES
   175   89   90 1    
   176   89  210 1    
   177   90   91 1    
   178   90   92 1    
   179   90  211 1    
   180   91  212 1    
   181   91  213 1    
   182   91  214 1    
   183   92   93 2    
   184   92   94 am   BACKBONE|DICT|INTERRES
   185   94   95 1    
   186   94  215 1    
   187   95   96 1    
   188   95   97 1    
   189   95  216 1    
   190   96  217 1    
   191   96  218 1    
   192   96  219 1    
   193   97   98 2    
   194   97   99 am   BACKBONE|DICT|INTERRES
   195   99  100 1    
   196   99  220 1    
   197  100  101 1    
   198  100  102 1    
   199  100  221 1    
   200  101  222 1    
   201  101  223 1    
   202  101  224 1    
   203  102  103 2    
   204  102  104 am   BACKBONE|DICT|INTERRES
   205  104  105 1    
   206  104  225 1    
   207  105  106 1    
   208  105  107 1    
   209  105  226 1    
   210  106  227 1    
   211  106  228 1    
   212  106  229 1    
   213  107  108 2    
   214  107  109 am   BACKBONE|DICT|INTERRES
   215  109  110 1    
   216  109  230 1    
   217  110  111 1    
   218  110  112 1    
   219  110  231 1    
   220  111  232 1    
   221  111  233 1    
   222  111  234 1    
   223  112  113 2    
   224  112  114 am   BACKBONE|DICT|INTERRES
   225  114  115 1    
   226  114  235 1    
   227  115  116 1    
   228  115  117 1    
   229  115  236 1    
   230  116  237 1    
   231  116  238 1    
   232  116  239 1    
   233  117  118 2    
   234  117  119 am   BACKBONE|DICT|INTERRES
   235  119  120 1    
   236  119  240 1    
   237  120  121 1    
   238  120  124 1    
   239  120  241 1    
   240  121  122 am   BACKBONE|DICT|INTERRES
   241  121  123 2    
   242  122  242 1    
   243  122  243 1    
   244  124  125 1    
   245  124  244 1    
   246  124  245 1    
   247  125  126 1    
   248  126  246 1    
   249  126  247 1    
@<TRIPOS>SUBSTRUCTURE
     1 UNK         1 GROUP             0       ****    0 ROOT    
