@<TRIPOS>MOLECULE
3R540
247   249    1
SMALL
USER_CHARGES


@<TRIPOS>ATOM
      1 CA         -6.8353  -17.7819  -46.6042 C.3       0 UNK        -0.1800 
      2 C          -5.6781  -16.8488  -46.2801 C.2       0 UNK         0.5000 
      3 O          -5.8401  -15.9189  -45.4890 O.2       0 UNK        -0.5000 
      4 N          -4.5079  -17.0935  -46.8820 N.am      1 UNK        -0.5000 
      5 CA         -3.2853  -16.2877  -46.7610 C.3       1 UNK         0.1400 
      6 C6         -2.3426  -16.4997  -47.9697 C.3       23 UNK        -0.0398 
      7 S7         -3.1033  -15.9730  -49.5425 S.3       23 UNK        -0.2404 
      8 C8         -1.6421  -15.4366  -50.4847 C.3       23 UNK        -0.0205 
      9 C9         -0.7029  -16.5934  -50.7947 C.ar      23 UNK        -0.0193 
     10 C10        -0.9062  -17.3799  -51.9311 C.ar      23 UNK        -0.1150 
     11 C11        -0.0238  -18.4165  -52.2496 C.ar      23 UNK        -0.0193 
     12 C12         1.0607  -18.6763  -51.4070 C.ar      23 UNK        -0.1150 
     13 C13         1.2672  -17.9058  -50.2580 C.ar      23 UNK        -0.0193 
     14 C14         0.3861  -16.8629  -49.9616 C.ar      23 UNK        -0.1150 
     15 C15         2.4580  -18.1809  -49.3524 C.3       23 UNK        -0.0205 
     16 S16         2.3276  -19.7911  -48.5202 S.3       23 UNK        -0.2404 
     17 C17         0.9700  -19.4974  -47.3374 C.3       23 UNK        -0.0398 
     18 CA          0.6062  -20.7908  -46.5610 C.3       11 UNK         0.1400 
     19 N          -0.0783  -20.5245  -45.3030 N.am      11 UNK        -0.5000 
     20 C           0.4677  -20.1833  -44.1373 C.2       10 UNK         0.5000 
     21 O           1.6621  -19.9134  -43.9814 O.2       10 UNK        -0.5000 
     22 CA         -0.4966  -20.1892  -42.9439 C.3       10 UNK         0.1400 
     23 CB         -0.8470  -21.6329  -42.5337 C.3       10 UNK        -0.1800 
     24 N           0.0790  -19.4732  -41.8081 N.am      10 UNK        -0.5000 
     25 C          -0.6420  -18.9373  -40.8138 C.2       9 UNK         0.5000 
     26 O          -1.8699  -19.0163  -40.7594 O.2       9 UNK        -0.5000 
     27 CA          0.1280  -18.2190  -39.6896 C.3       9 UNK         0.1400 
     28 CB         -0.7286  -18.0198  -38.4198 C.3       9 UNK        -0.1800 
     29 N           1.3604  -18.9402  -39.3686 N.am      9 UNK        -0.5000 
     30 C           2.4041  -18.4256  -38.7043 C.2       8 UNK         0.5000 
     31 O           2.4576  -17.2634  -38.3005 O.2       8 UNK        -0.5000 
     32 CA          3.5983  -19.3689  -38.4567 C.3       8 UNK         0.1400 
     33 CB          3.3611  -20.2241  -37.2024 C.3       8 UNK        -0.1800 
     34 N           3.8822  -20.2467  -39.5954 N.am      8 UNK        -0.5000 
     35 C           4.3244  -19.8156  -40.7843 C.2       7 UNK         0.5000 
     36 O           4.5747  -18.6300  -41.0143 O.2       7 UNK        -0.5000 
     37 CA          4.5055  -20.8764  -41.8926 C.3       7 UNK         0.1400 
     38 CB          3.4419  -21.9904  -41.8293 C.3       7 UNK        -0.1800 
     39 N           4.4272  -20.2428  -43.2058 N.am      7 UNK        -0.5000 
     40 C           5.4551  -19.6938  -43.8697 C.2       6 UNK         0.5000 
     41 O           6.6321  -19.8007  -43.5222 O.2       6 UNK        -0.5000 
     42 CA          5.1080  -18.8648  -45.1198 C.3       6 UNK         0.1400 
     43 CB          5.1403  -19.7499  -46.3731 C.3       6 UNK        -0.1800 
     44 N           3.7826  -18.2597  -44.9795 N.am      6 UNK        -0.5000 
     45 C           3.5542  -16.9794  -44.6714 C.2       5 UNK         0.5000 
     46 O           4.4171  -16.0979  -44.6623 O.2       5 UNK        -0.5000 
     47 CA          2.1191  -16.6594  -44.2169 C.3       5 UNK         0.1400 
     48 CB          2.0059  -16.8192  -42.6946 C.3       5 UNK        -0.1800 
     49 N           1.6758  -15.3166  -44.5694 N.am      5 UNK        -0.5000 
     50 C           1.4591  -14.8759  -45.8135 C.2       4 UNK         0.5000 
     51 O           1.6602  -15.5474  -46.8258 O.2       4 UNK        -0.5000 
     52 CA          0.8555  -13.4645  -45.9154 C.3       4 UNK         0.1400 
     53 CB          0.3780  -13.1142  -47.3370 C.3       4 UNK        -0.1800 
     54 N          -0.2776  -13.3690  -44.9950 N.am      4 UNK        -0.5000 
     55 C          -0.3924  -12.5183  -43.9682 C.2       3 UNK         0.5000 
     56 O           0.4520  -11.6680  -43.6861 O.2       3 UNK        -0.5000 
     57 CA         -1.6646  -12.6383  -43.1047 C.3       3 UNK         0.1400 
     58 CB         -2.6671  -11.5348  -43.4765 C.3       3 UNK        -0.1800 
     59 N          -2.3272  -13.9390  -43.2371 N.am      3 UNK        -0.5000 
     60 C          -1.9454  -15.0623  -42.6114 C.2       2 UNK         0.5000 
     61 O          -1.0067  -15.1164  -41.8183 O.2       2 UNK        -0.5000 
     62 CA         -2.7365  -16.3420  -42.9443 C.3       2 UNK         0.1400 
     63 CB         -3.8854  -16.5453  -41.9464 C.3       2 UNK        -0.1800 
     64 N          -3.2795  -16.3192  -44.3033 N.am      2 UNK        -0.5000 
     65 C          -2.5587  -16.5117  -45.4133 C.2       1 UNK         0.5000 
     66 O          -1.3710  -16.8351  -45.3920 O.2       1 UNK        -0.5000 
     67 C          -0.3104  -21.7429  -47.3591 C.2       11 UNK         0.5000 
     68 O          -1.4008  -22.0801  -46.8844 O.2       11 UNK        -0.5000 
     69 N           0.1150  -22.1449  -48.5631 N.am      12 UNK        -0.5000 
     70 CA         -0.5898  -23.0797  -49.4475 C.3       12 UNK         0.1400 
     71 CB          0.2199  -23.2627  -50.7388 C.3       12 UNK        -0.1800 
     72 C          -2.0385  -22.6726  -49.7769 C.2       12 UNK         0.5000 
     73 O          -2.9061  -23.5402  -49.8656 O.2       12 UNK        -0.5000 
     74 N          -2.2855  -21.3641  -49.9128 N.am      13 UNK        -0.5000 
     75 CA         -3.6152  -20.7988  -50.1427 C.3       13 UNK         0.1400 
     76 CB         -3.4613  -19.3901  -50.7231 C.3       13 UNK        -0.1800 
     77 C          -4.5159  -20.7918  -48.8918 C.2       13 UNK         0.5000 
     78 O          -5.7371  -20.7983  -49.0386 O.2       13 UNK        -0.5000 
     79 N          -3.9188  -20.7994  -47.6904 N.am      14 UNK        -0.5000 
     80 CA         -4.6385  -20.9593  -46.4218 C.3       14 UNK         0.1400 
     81 CB         -3.8168  -20.3558  -45.2707 C.3       14 UNK        -0.1800 
     82 C          -4.9511  -22.4408  -46.1469 C.2       14 UNK         0.5000 
     83 O          -6.0302  -22.7567  -45.6466 O.2       14 UNK        -0.5000 
     84 N          -4.0081  -23.3209  -46.5112 N.am      15 UNK        -0.5000 
     85 CA         -4.1256  -24.7778  -46.4248 C.3       15 UNK         0.1400 
     86 CB         -2.7193  -25.3835  -46.5581 C.3       15 UNK        -0.1800 
     87 C          -5.0715  -25.3876  -47.4813 C.2       15 UNK         0.5000 
     88 O          -5.4446  -26.5535  -47.3487 O.2       15 UNK        -0.5000 
     89 N          -5.4162  -24.6015  -48.5125 N.am      16 UNK        -0.5000 
     90 CA         -6.2156  -24.9549  -49.6918 C.3       16 UNK         0.1400 
     91 CB         -7.6444  -25.3852  -49.2995 C.3       16 UNK        -0.1800 
     92 C          -5.5110  -25.9634  -50.6258 C.2       16 UNK         0.5000 
     93 O          -6.1729  -26.6697  -51.3883 O.2       16 UNK        -0.5000 
     94 N          -4.1732  -25.9866  -50.5721 N.am      17 UNK        -0.5000 
     95 CA         -3.3018  -26.6900  -51.5129 C.3       17 UNK         0.1400 
     96 CB         -1.9612  -26.9805  -50.8207 C.3       17 UNK        -0.1800 
     97 C          -3.0821  -25.8635  -52.7956 C.2       17 UNK         0.5000 
     98 O          -2.8132  -26.4347  -53.8528 O.2       17 UNK        -0.5000 
     99 N          -3.2182  -24.5390  -52.6736 N.am      18 UNK        -0.5000 
    100 CA        -3.2037  -23.5563  -53.7490 C.3       18 UNK         0.1400 
    101 CB        -1.8267  -22.8625  -53.7809 C.3       18 UNK        -0.1800 
    102 C         -4.3604  -22.5645  -53.5226 C.2       18 UNK         0.5000 
    103 O         -5.2747  -22.8430  -52.7420 O.2       18 UNK        -0.5000 
    104 N         -4.2917  -21.4148  -54.1952 N.am      19 UNK        -0.5000 
    105 CA        -5.1940  -20.2778  -54.0626 C.3       19 UNK         0.1400 
    106 CB        -6.4065  -20.4674  -54.9914 C.3       19 UNK        -0.1800 
    107 C         -4.4026  -19.0137  -54.4266 C.2       19 UNK         0.5000 
    108 O         -3.2962  -19.1234  -54.9594 O.2       19 UNK        -0.5000 
    109 N         -4.9875  -17.8342  -54.1792 N.am      20 UNK        -0.5000 
    110 CA        -4.3922  -16.5144  -54.4446 C.3       20 UNK         0.1400 
    111 CB        -5.3473  -15.4283  -53.9272 C.3       20 UNK        -0.1800 
    112 C         -4.0095  -16.2476  -55.9192 C.2       20 UNK         0.5000 
    113 O         -3.2250  -15.3384  -56.1906 O.2       20 UNK        -0.5000 
    114 N         -4.5416  -17.0629  -56.8386 N.am      21 UNK        -0.5000 
    115 CA        -4.2059  -17.1011  -58.2613 C.3       21 UNK         0.1400 
    116 CB        -5.3081  -17.8867  -58.9917 C.3       21 UNK        -0.1800 
    117 C         -2.8118  -17.6953  -58.5740 C.2       21 UNK         0.5000 
    118 O         -2.4308  -17.7104  -59.7455 O.2       21 UNK        -0.5000 
    119 N         -2.0803  -18.1826  -57.5586 N.am      22 UNK        -0.5000 
    120 CA        -0.7280  -18.7612  -57.6764 C.3       22 UNK         0.1400 
    121 C          0.3753  -17.8270  -58.2662 C.2       22 UNK         0.5000 
    122 N          0.2008  -16.5106  -58.2714 N.am      22 UNK        -0.7600 
    123 O          1.4031  -18.3104  -58.7338 O.2       22 UNK        -0.5000 
    124 C124       -0.2620  -19.4149  -56.3457 C.3       23 UNK        -0.0398 
    125 S125        0.0296  -18.2157  -54.9958 S.3       23 UNK        -0.2404 
    126 C126       -0.2376  -19.2366  -53.5130 C.3       23 UNK        -0.0205 
    127 H127       -6.6112  -18.4221  -47.4579 H         1 UNK         0.0600 
    128 H128       -7.7276  -17.2037  -46.8438 H         1 UNK         0.0600 
    129 H129       -7.0585  -18.4155  -45.7460 H         1 UNK         0.0600 
    130 H130       -4.4442  -17.8733  -47.5189 H         1 UNK         0.3000 
    131 H131       -3.5785  -15.2356  -46.7669 H         1 UNK         0.0600 
    132 H132       -1.4237  -15.9295  -47.8297 H         1 UNK         0.0800 
    133 H133       -2.0437  -17.5458  -48.0520 H         1 UNK         0.0800 
    134 H134       -1.1166  -14.6539  -49.9359 H         1 UNK         0.0800 
    135 H135       -1.9764  -14.9781  -51.4166 H         1 UNK         0.0800 
    136 H136       -1.7431  -17.1770  -52.5820 H         1 UNK         0.1150 
    137 H137        1.7505  -19.4739  -51.6447 H         1 UNK         0.1150 
    138 H138        0.5549  -16.2538  -49.0854 H         1 UNK         0.1150 
    139 H139        3.3689  -18.1679  -49.9521 H         1 UNK         0.0800 
    140 H140        2.5746  -17.3969  -48.6025 H         1 UNK         0.0800 
    141 H141        0.1022  -19.0824  -47.8527 H         1 UNK         0.0800 
    142 H142        1.3057  -18.7215  -46.6497 H         1 UNK         0.0800 
    143 H143        1.5177  -21.3447  -46.3252 H         1 UNK         0.0600 
    144 H144       -1.0482  -20.8112  -45.3311 H         1 UNK         0.3000 
    145 H145       -1.4061  -19.6738  -43.2611 H         1 UNK         0.0600 
    146 H146       -1.5809  -21.6501  -41.7280 H         1 UNK         0.0600 
    147 H147       -1.2764  -22.1919  -43.3662 H         1 UNK         0.0600 
    148 H148        0.0339  -22.1779  -42.1932 H         1 UNK         0.0600 
    149 H149        1.0793  -19.3372  -41.8513 H         1 UNK         0.3000 
    150 H150        0.3925  -17.2336  -40.0779 H         1 UNK         0.0600 
    151 H151       -1.6380  -17.4602  -38.6427 H         1 UNK         0.0600 
    152 H152       -0.1926  -17.4579  -37.6554 H         1 UNK         0.0600 
    153 H153       -1.0258  -18.9751  -37.9859 H         1 UNK         0.0600 
    154 H154        1.3933  -19.9093  -39.6519 H         1 UNK         0.3000 
    155 H155        4.4793  -18.7478  -38.2807 H         1 UNK         0.0600 
    156 H156        2.5072  -20.8918  -37.3234 H         1 UNK         0.0600 
    157 H157        3.1650  -19.5950  -36.3331 H         1 UNK         0.0600 
    158 H158        4.2344  -20.8338  -36.9698 H         1 UNK         0.0600 
    159 H159        3.7098  -21.2327  -39.4635 H         1 UNK         0.3000 
    160 H160        5.4893  -21.3309  -41.7614 H         1 UNK         0.0600 
    161 H161        2.4304  -21.5838  -41.8270 H         1 UNK         0.0600 
    162 H162        3.5572  -22.6046  -40.9358 H         1 UNK         0.0600 
    163 H163        3.5256  -22.6607  -42.6851 H         1 UNK         0.0600 
    164 H164        3.4861  -20.0925  -43.5535 H         1 UNK         0.3000 
    165 H165        5.8722  -18.0925  -45.2291 H         1 UNK         0.0600 
    166 H166        4.9726  -19.1572  -47.2721 H         1 UNK         0.0600 
    167 H167        6.1100  -20.2368  -46.4838 H         1 UNK         0.0600 
    168 H168        4.3813  -20.5322  -46.3346 H         1 UNK         0.0600 
    169 H169        3.0046  -18.9067  -44.9024 H         1 UNK         0.3000 
    170 H170        1.4322  -17.3596  -44.6939 H         1 UNK         0.0600 
    171 H171        2.3594  -17.7980  -42.3724 H         1 UNK         0.0600 
    172 H172        2.5969  -16.0721  -42.1636 H         1 UNK         0.0600 
    173 H173        0.9712  -16.7240  -42.3721 H         1 UNK         0.0600 
    174 H174        1.4870  -14.6914  -43.8003 H         1 UNK         0.3000 
    175 H175        1.6441  -12.7624  -45.6378 H         1 UNK         0.0600 
    176 H176       -0.4100  -13.7867  -47.6745 H         1 UNK         0.0600 
    177 H177       -0.0117  -12.0971  -47.3791 H         1 UNK         0.0600 
    178 H178        1.1972  -13.1774  -48.0542 H         1 UNK         0.0600 
    179 H179       -0.9898  -14.0753  -45.1035 H         1 UNK         0.3000 
    180 H180       -1.3711  -12.4954  -42.0624 H         1 UNK         0.0600 
    181 H181       -3.0014  -11.6252  -44.5109 H         1 UNK         0.0600 
    182 H182       -2.2210  -10.5460  -43.3612 H         1 UNK         0.0600 
    183 H183       -3.5473  -11.5689  -42.8342 H         1 UNK         0.0600 
    184 H184       -3.1271  -13.9793  -43.8514 H         1 UNK         0.3000 
    185 H185       -2.0518  -17.1874  -42.8575 H         1 UNK         0.0600 
    186 H186       -3.5103  -16.5802  -40.9226 H         1 UNK         0.0600 
    187 H187       -4.6184  -15.7397  -42.0032 H         1 UNK         0.0600 
    188 H188       -4.4033  -17.4865  -42.1322 H         1 UNK         0.0600 
    189 H189       -4.2636  -16.0885  -44.4137 H         1 UNK         0.3000 
    190 H190        1.0068  -21.7997  -48.8936 H         1 UNK         0.3000 
    191 H191       -0.6327  -24.0420  -48.9345 H         1 UNK         0.0600 
    192 H192       -0.2655  -23.9740  -51.4082 H         1 UNK         0.0600 
    193 H193        1.2169  -23.6495  -50.5273 H         1 UNK         0.0600 
    194 H194        0.3335  -22.3227  -51.2805 H         1 UNK         0.0600 
    195 H195       -1.5158  -20.7154  -49.8386 H         1 UNK         0.3000 
    196 H196       -4.1258  -21.4095  -50.8860 H         1 UNK         0.0600 
    197 H197       -2.8364  -18.7703  -50.0831 H         1 UNK         0.0600 
    198 H198       -2.9976  -19.4250  -51.7081 H         1 UNK         0.0600 
    199 H199       -4.4254  -18.8920  -50.8347 H         1 UNK         0.0600 
    200 H200       -2.9113  -20.8795  -47.6489 H         1 UNK         0.3000 
    201 H201       -5.5857  -20.4206  -46.4777 H         1 UNK         0.0600 
    202 H202       -2.9372  -20.9554  -45.0419 H         1 UNK         0.0600 
    203 H203       -4.4136  -20.3014  -44.3595 H         1 UNK         0.0600 
    204 H204       -3.4838  -19.3454  -45.5008 H         1 UNK         0.0600 
    205 H205       -3.1206  -22.9614  -46.8488 H         1 UNK         0.3000 
    206 H206       -4.5207  -25.0341  -45.4397 H         1 UNK         0.0600 
    207 H207       -2.0426  -24.9835  -45.8026 H         1 UNK         0.0600 
    208 H208       -2.7453  -26.4665  -46.4312 H         1 UNK         0.0600 
    209 H209       -2.2866  -25.1791  -47.5376 H         1 UNK         0.0600 
    210 H210       -5.0065  -23.6783  -48.5331 H         1 UNK         0.3000 
    211 H211       -6.3035  -24.0340  -50.2704 H         1 UNK         0.0600 
    212 H212       -8.2812  -25.4700  -50.1807 H         1 UNK         0.0600 
    213 H213       -8.1073  -24.6552  -48.6354 H         1 UNK         0.0600 
    214 H214       -7.6554  -26.3526  -48.7973 H         1 UNK         0.0600 
    215 H215       -3.7198  -25.3150  -49.9613 H         1 UNK         0.3000 
    216 H216       -3.7608  -27.6401  -51.7937 H         1 UNK         0.0600 
    217 H217       -1.4596  -26.0629  -50.5119 H         1 UNK         0.0600 
    218 H218       -1.2853  -27.5171  -51.4877 H         1 UNK         0.0600 
    219 H219       -2.1026  -27.5986  -49.9339 H         1 UNK         0.0600 
    220 H220       -3.4761  -24.1714  -51.7647 H         1 UNK         0.3000 
    221 H221       -3.3813  -24.0484  -54.7072 H         1 UNK         0.0600 
    222 H222       -1.6700  -22.2406  -52.8990 H         1 UNK         0.0600 
    223 H223       -1.7209  -22.2244  -54.6585 H         1 UNK         0.0600 
    224 H224       -1.0189  -23.5932  -53.8230 H         1 UNK         0.0600 
    225 H225       -3.4850  -21.2148  -54.7739 H         1 UNK         0.3000 
    226 H226       -5.5265  -20.1885  -53.0263 H         1 UNK         0.0600 
    227 H227       -6.1039  -20.5379  -56.0370 H         1 UNK         0.0600 
    228 H228       -6.9549  -21.3759  -54.7417 H         1 UNK         0.0600 
    229 H229       -7.1066  -19.6358  -54.9051 H         1 UNK         0.0600 
    230 H230       -5.9059  -17.8259  -53.7593 H         1 UNK         0.3000 
    231 H231       -3.4687  -16.4513  -53.8681 H         1 UNK         0.0600 
    232 H232       -6.3087  -15.4613  -54.4412 H         1 UNK         0.0600 
    233 H233       -4.9281  -14.4325  -54.0779 H         1 UNK         0.0600 
    234 H234       -5.5310  -15.5413  -52.8584 H         1 UNK         0.0600 
    235 H235       -5.1670  -17.7835  -56.5114 H         1 UNK         0.3000 
    236 H236       -4.2093  -16.0768  -58.6391 H         1 UNK         0.0600 
    237 H237       -6.2880  -17.4380  -58.8277 H         1 UNK         0.0600 
    238 H238       -5.1365  -17.8981  -60.0689 H         1 UNK         0.0600 
    239 H239       -5.3518  -18.9233  -58.6552 H         1 UNK         0.0600 
    240 H240       -2.4752  -18.1825  -56.6248 H         1 UNK         0.3000 
    241 H241       -0.8255  -19.5725  -58.4001 H         1 UNK         0.0600 
    242 H242        0.9151  -15.9138  -58.6573 H         1 UNK         0.3800 
    243 H243       -0.6336  -16.1074  -57.8749 H         1 UNK         0.3800 
    244 H244        0.6568  -19.9819  -56.5037 H         1 UNK         0.0800 
    245 H245       -1.0047  -20.1436  -56.0198 H         1 UNK         0.0800 
    246 H246        0.4390  -20.0921  -53.5391 H         1 UNK         0.0800 
    247 H247       -1.2489  -19.6409  -53.5122 H         1 UNK         0.0800 
@<TRIPOS>BOND
     1    1    2 1    
     2    1  127 1    
     3    1  128 1    
     4    1  129 1    
     5    2    3 2    
     6    2    4 am   BACKBONE|DICT|INTERRES
     7    4    5 1    
     8    4  130 1    
     9    5    6 1    
    10    5   65 1    
    11    5  131 1    
    12    6    7 1    
    13    6  132 1    
    14    6  133 1    
    15    7    8 1    
    16    8    9 1    
    17    8  134 1    
    18    8  135 1    
    19    9   10 ar   
    20    9   14 ar   
    21   10   11 ar   
    22   10  136 1    
    23   11   12 ar   
    24   11  126 1    
    25   12   13 ar   
    26   12  137 1    
    27   13   14 ar   
    28   13   15 1    
    29   14  138 1    
    30   15   16 1    
    31   15  139 1    
    32   15  140 1    
    33   16   17 1    
    34   17   18 1    
    35   17  141 1    
    36   17  142 1    
    37   18   19 1    
    38   18   67 1    
    39   18  143 1    
    40   19   20 am   BACKBONE|DICT|INTERRES
    41   19  144 1    
    42   20   21 2    
    43   20   22 1    
    44   22   23 1    
    45   22   24 1    
    46   22  145 1    
    47   23  146 1    
    48   23  147 1    
    49   23  148 1    
    50   24   25 am   BACKBONE|DICT|INTERRES
    51   24  149 1    
    52   25   26 2    
    53   25   27 1    
    54   27   28 1    
    55   27   29 1    
    56   27  150 1    
    57   28  151 1    
    58   28  152 1    
    59   28  153 1    
    60   29   30 am   BACKBONE|DICT|INTERRES
    61   29  154 1    
    62   30   31 2    
    63   30   32 1    
    64   32   33 1    
    65   32   34 1    
    66   32  155 1    
    67   33  156 1    
    68   33  157 1    
    69   33  158 1    
    70   34   35 am   BACKBONE|DICT|INTERRES
    71   34  159 1    
    72   35   36 2    
    73   35   37 1    
    74   37   38 1    
    75   37   39 1    
    76   37  160 1    
    77   38  161 1    
    78   38  162 1    
    79   38  163 1    
    80   39   40 am   BACKBONE|DICT|INTERRES
    81   39  164 1    
    82   40   41 2    
    83   40   42 1    
    84   42   43 1    
    85   42   44 1    
    86   42  165 1    
    87   43  166 1    
    88   43  167 1    
    89   43  168 1    
    90   44   45 am   BACKBONE|DICT|INTERRES
    91   44  169 1    
    92   45   46 2    
    93   45   47 1    
    94   47   48 1    
    95   47   49 1    
    96   47  170 1    
    97   48  171 1    
    98   48  172 1    
    99   48  173 1    
   100   49   50 am   BACKBONE|DICT|INTERRES
   101   49  174 1    
   102   50   51 2    
   103   50   52 1    
   104   52   53 1    
   105   52   54 1    
   106   52  175 1    
   107   53  176 1    
   108   53  177 1    
   109   53  178 1    
   110   54   55 am   BACKBONE|DICT|INTERRES
   111   54  179 1    
   112   55   56 2    
   113   55   57 1    
   114   57   58 1    
   115   57   59 1    
   116   57  180 1    
   117   58  181 1    
   118   58  182 1    
   119   58  183 1    
   120   59   60 am   BACKBONE|DICT|INTERRES
   121   59  184 1    
   122   60   61 2    
   123   60   62 1    
   124   62   63 1    
   125   62   64 1    
   126   62  185 1    
   127   63  186 1    
   128   63  187 1    
   129   63  188 1    
   130   64   65 am   BACKBONE|DICT|INTERRES
   131   64  189 1    
   132   65   66 2    
   133   67   68 2    
   134   67   69 am   BACKBONE|DICT|INTERRES
   135   69   70 1    
   136   69  190 1    
   137   70   71 1    
   138   70   72 1    
   139   70  191 1    
   140   71  192 1    
   141   71  193 1    
   142   71  194 1    
   143   72   73 2    
   144   72   74 am   BACKBONE|DICT|INTERRES
   145   74   75 1    
   146   74  195 1    
   147   75   76 1    
   148   75   77 1    
   149   75  196 1    
   150   76  197 1    
   151   76  198 1    
   152   76  199 1    
   153   77   78 2    
   154   77   79 am   BACKBONE|DICT|INTERRES
   155   79   80 1    
   156   79  200 1    
   157   80   81 1    
   158   80   82 1    
   159   80  201 1    
   160   81  202 1    
   161   81  203 1    
   162   81  204 1    
   163   82   83 2    
   164   82   84 am   BACKBONE|DICT|INTERRES
   165   84   85 1    
   166   84  205 1    
   167   85   86 1    
   168   85   87 1    
   169   85  206 1    
   170   86  207 1    
   171   86  208 1    
   172   86  209 1    
   173   87   88 2    
   174   87   89 am   BACKBONE|DICT|INTERRES
   175   89   90 1    
   176   89  210 1    
   177   90   91 1    
   178   90   92 1    
   179   90  211 1    
   180   91  212 1    
   181   91  213 1    
   182   91  214 1    
   183   92   93 2    
   184   92   94 am   BACKBONE|DICT|INTERRES
   185   94   95 1    
   186   94  215 1    
   187   95   96 1    
   188   95   97 1    
   189   95  216 1    
   190   96  217 1    
   191   96  218 1    
   192   96  219 1    
   193   97   98 2    
   194   97   99 am   BACKBONE|DICT|INTERRES
   195   99  100 1    
   196   99  220 1    
   197  100  101 1    
   198  100  102 1    
   199  100  221 1    
   200  101  222 1    
   201  101  223 1    
   202  101  224 1    
   203  102  103 2    
   204  102  104 am   BACKBONE|DICT|INTERRES
   205  104  105 1    
   206  104  225 1    
   207  105  106 1    
   208  105  107 1    
   209  105  226 1    
   210  106  227 1    
   211  106  228 1    
   212  106  229 1    
   213  107  108 2    
   214  107  109 am   BACKBONE|DICT|INTERRES
   215  109  110 1    
   216  109  230 1    
   217  110  111 1    
   218  110  112 1    
   219  110  231 1    
   220  111  232 1    
   221  111  233 1    
   222  111  234 1    
   223  112  113 2    
   224  112  114 am   BACKBONE|DICT|INTERRES
   225  114  115 1    
   226  114  235 1    
   227  115  116 1    
   228  115  117 1    
   229  115  236 1    
   230  116  237 1    
   231  116  238 1    
   232  116  239 1    
   233  117  118 2    
   234  117  119 am   BACKBONE|DICT|INTERRES
   235  119  120 1    
   236  119  240 1    
   237  120  121 1    
   238  120  124 1    
   239  120  241 1    
   240  121  122 am   BACKBONE|DICT|INTERRES
   241  121  123 2    
   242  122  242 1    
   243  122  243 1    
   244  124  125 1    
   245  124  244 1    
   246  124  245 1    
   247  125  126 1    
   248  126  246 1    
   249  126  247 1    
@<TRIPOS>SUBSTRUCTURE
     1 UNK         1 GROUP             0       ****    0 ROOT    
