@<TRIPOS>MOLECULE
3R540
247   249    1
SMALL
USER_CHARGES


@<TRIPOS>ATOM
      1 CA          1.2540  -10.7665  -50.9057 C.3       0 UNK        -0.1800 
      2 C           0.8665  -11.5769  -49.6768 C.2       0 UNK         0.5000 
      3 O           0.2744  -11.0327  -48.7440 O.2       0 UNK        -0.5000 
      4 N           1.2057  -12.8712  -49.6673 N.am      1 UNK        -0.5000 
      5 CA          0.8515  -13.8265  -48.6146 C.3       1 UNK         0.1400 
      6 C6          1.7039  -15.1225  -48.6941 C.3       23 UNK        -0.0398 
      7 S7          1.8595  -15.8727  -50.3574 S.3       23 UNK        -0.2404 
      8 C8          0.6895  -17.2635  -50.2662 C.3       23 UNK        -0.0205 
      9 C9          1.2262  -18.4786  -51.0014 C.ar      23 UNK        -0.0193 
     10 C10         0.9539  -18.6681  -52.3593 C.ar      23 UNK        -0.1150 
     11 C11         1.4542  -19.7875  -53.0320 C.ar      23 UNK        -0.0193 
     12 C12         2.2234  -20.7230  -52.3327 C.ar      23 UNK        -0.1150 
     13 C13         2.4875  -20.5513  -50.9708 C.ar      23 UNK        -0.0193 
     14 C14         1.9949  -19.4210  -50.3139 C.ar      23 UNK        -0.1150 
     15 C15         3.2999  -21.5889  -50.2095 C.3       23 UNK        -0.0205 
     16 S16         2.3038  -23.0584  -49.8030 S.3       23 UNK        -0.2404 
     17 C17         1.1061  -22.3769  -48.6057 C.3       23 UNK        -0.0398 
     18 CA          1.0633  -23.1687  -47.2782 C.3       11 UNK         0.1400 
     19 N           2.3681  -23.1791  -46.6000 N.am      11 UNK        -0.5000 
     20 C           2.7965  -24.1219  -45.7515 C.2       10 UNK         0.5000 
     21 O           2.1211  -25.1053  -45.4482 O.2       10 UNK        -0.5000 
     22 CA          4.1634  -23.9175  -45.0673 C.3       10 UNK         0.1400 
     23 CB          5.1800  -24.9330  -45.6111 C.3       10 UNK        -0.1800 
     24 N           4.7351  -22.5726  -45.2044 N.am      10 UNK        -0.5000 
     25 C           4.3704  -21.4359  -44.5903 C.2       9 UNK         0.5000 
     26 O           5.0267  -20.4045  -44.7370 O.2       9 UNK        -0.5000 
     27 CA          3.1306  -21.4063  -43.6604 C.3       9 UNK         0.1400 
     28 CB          3.5577  -21.5532  -42.1926 C.3       9 UNK        -0.1800 
     29 N           2.3265  -20.1898  -43.7957 N.am      9 UNK        -0.5000 
     30 C           1.8687  -19.6514  -44.9362 C.2       8 UNK         0.5000 
     31 O           2.0832  -20.1136  -46.0572 O.2       8 UNK        -0.5000 
     32 CA          0.9863  -18.3967  -44.8100 C.3       8 UNK         0.1400 
     33 CB         -0.4927  -18.8002  -44.8510 C.3       8 UNK        -0.1800 
     34 N           1.2108  -17.6273  -43.5888 N.am      8 UNK        -0.5000 
     35 C           2.3075  -16.9165  -43.2981 C.2       7 UNK         0.5000 
     36 O           3.2700  -16.7951  -44.0553 O.2       7 UNK        -0.5000 
     37 CA          2.3274  -16.2339  -41.9184 C.3       7 UNK         0.1400 
     38 CB          1.6845  -14.8391  -41.9836 C.3       7 UNK        -0.1800 
     39 N           1.6334  -17.0369  -40.9101 N.am      7 UNK        -0.5000 
     40 C           2.1787  -18.0798  -40.2692 C.2       6 UNK         0.5000 
     41 O           3.3500  -18.4308  -40.4082 O.2       6 UNK        -0.5000 
     42 CA          1.2581  -18.8745  -39.3232 C.3       6 UNK         0.1400 
     43 CB          1.2996  -18.2802  -37.9073 C.3       6 UNK        -0.1800 
     44 N          -0.1317  -18.9245  -39.7811 N.am      6 UNK        -0.5000 
     45 C          -0.5547  -19.6069  -40.8543 C.2       5 UNK         0.5000 
     46 O           0.1838  -20.2825  -41.5696 O.2       5 UNK        -0.5000 
     47 CA         -2.0496  -19.4797  -41.2083 C.3       5 UNK         0.1400 
     48 CB         -2.8683  -20.5409  -40.4591 C.3       5 UNK        -0.1800 
     49 N          -2.6159  -18.1533  -40.9391 N.am      5 UNK        -0.5000 
     50 C          -2.1837  -16.9986  -41.4642 C.2       4 UNK         0.5000 
     51 O          -1.2067  -16.9013  -42.2110 O.2       4 UNK        -0.5000 
     52 CA         -2.9392  -15.7364  -41.0361 C.3       4 UNK         0.1400 
     53 CB         -2.4812  -15.2830  -39.6376 C.3       4 UNK        -0.1800 
     54 N          -2.6967  -14.6676  -42.0014 N.am      4 UNK        -0.5000 
     55 C          -3.5145  -13.6300  -42.2148 C.2       3 UNK         0.5000 
     56 O          -4.5945  -13.4904  -41.6386 O.2       3 UNK        -0.5000 
     57 CA         -3.0582  -12.5455  -43.2104 C.3       3 UNK         0.1400 
     58 CB         -2.5855  -11.2962  -42.4492 C.3       3 UNK        -0.1800 
     59 N          -1.9862  -12.9694  -44.1143 N.am      3 UNK        -0.5000 
     60 C          -2.1759  -13.6612  -45.2439 C.2       2 UNK         0.5000 
     61 O          -3.2696  -14.0984  -45.6114 O.2       2 UNK        -0.5000 
     62 CA         -0.9292  -13.8890  -46.1126 C.3       2 UNK         0.1400 
     63 CB         -0.0692  -15.0368  -45.5565 C.3       2 UNK        -0.1800 
     64 N          -1.3612  -14.1784  -47.4787 N.am      2 UNK        -0.5000 
     65 C          -0.6702  -14.1237  -48.6255 C.2       1 UNK         0.5000 
     66 O          -1.2282  -14.3182  -49.7060 O.2       1 UNK        -0.5000 
     67 C          -0.0556  -22.6522  -46.3406 C.2       11 UNK         0.5000 
     68 O          -0.8511  -21.7940  -46.7302 O.2       11 UNK        -0.5000 
     69 N          -0.0953  -23.1861  -45.1116 N.am      12 UNK        -0.5000 
     70 CA         -0.9542  -22.7645  -44.0010 C.3       12 UNK         0.1400 
     71 CB         -0.5276  -23.5205  -42.7343 C.3       12 UNK        -0.1800 
     72 C          -2.4669  -22.9234  -44.2523 C.2       12 UNK         0.5000 
     73 O          -3.2637  -22.3196  -43.5325 O.2       12 UNK        -0.5000 
     74 N          -2.8383  -23.7015  -45.2783 N.am      13 UNK        -0.5000 
     75 CA         -4.1930  -23.8704  -45.8025 C.3       13 UNK         0.1400 
     76 CB         -4.2104  -25.1034  -46.7234 C.3       13 UNK        -0.1800 
     77 C          -4.6942  -22.5963  -46.5175 C.2       13 UNK         0.5000 
     78 O          -4.8487  -22.5842  -47.7410 O.2       13 UNK        -0.5000 
     79 N          -4.9095  -21.5360  -45.7275 N.am      14 UNK        -0.5000 
     80 CA         -5.4489  -20.2279  -46.1070 C.3       14 UNK         0.1400 
     81 CB         -6.9509  -20.3533  -46.4378 C.3       14 UNK        -0.1800 
     82 C          -4.6464  -19.5364  -47.2277 C.2       14 UNK         0.5000 
     83 O          -5.2428  -18.9962  -48.1597 O.2       14 UNK        -0.5000 
     84 N          -3.3079  -19.5889  -47.1313 N.am      15 UNK        -0.5000 
     85 CA         -2.3520  -19.0279  -48.0957 C.3       15 UNK         0.1400 
     86 CB         -2.4639  -17.4877  -48.1282 C.3       15 UNK        -0.1800 
     87 C          -2.4829  -19.6873  -49.4806 C.2       15 UNK         0.5000 
     88 O          -2.5804  -18.9905  -50.4900 O.2       15 UNK        -0.5000 
     89 N          -2.5339  -21.0287  -49.4807 N.am      16 UNK        -0.5000 
     90 CA         -2.7944  -21.8983  -50.6349 C.3       16 UNK         0.1400 
     91 CB         -1.6216  -21.8414  -51.6350 C.3       16 UNK        -0.1800 
     92 C          -4.1601  -21.5950  -51.2895 C.2       16 UNK         0.5000 
     93 O          -4.2528  -21.4754  -52.5136 O.2       16 UNK        -0.5000 
     94 N          -5.1865  -21.4369  -50.4392 N.am      17 UNK        -0.5000 
     95 CA         -6.5474  -20.9982  -50.7647 C.3       17 UNK         0.1400 
     96 CB         -7.2900  -22.0965  -51.5547 C.3       17 UNK        -0.1800 
     97 C          -6.5598  -19.6279  -51.4765 C.2       17 UNK         0.5000 
     98 O          -7.1430  -19.4949  -52.5516 O.2       17 UNK        -0.5000 
     99 N          -5.8641  -18.6456  -50.8855 N.am      18 UNK        -0.5000 
    100 CA        -5.5845  -17.3092  -51.4273 C.3       18 UNK         0.1400 
    101 CB        -6.8660  -16.4509  -51.4409 C.3       18 UNK        -0.1800 
    102 C         -4.8776  -17.3706  -52.8005 C.2       18 UNK         0.5000 
    103 O         -5.2653  -16.6724  -53.7391 O.2       18 UNK        -0.5000 
    104 N         -3.8729  -18.2521  -52.8843 N.am      19 UNK        -0.5000 
    105 CA        -3.0652  -18.6214  -54.0484 C.3       19 UNK         0.1400 
    106 CB        -2.2426  -17.4172  -54.5487 C.3       19 UNK        -0.1800 
    107 C         -3.8389  -19.3149  -55.1921 C.2       19 UNK         0.5000 
    108 O         -3.2581  -19.5227  -56.2581 O.2       19 UNK        -0.5000 
    109 N         -5.1086  -19.6955  -54.9801 N.am      20 UNK        -0.5000 
    110 CA        -5.9324  -20.3779  -55.9823 C.3       20 UNK         0.1400 
    111 CB        -7.4070  -20.3625  -55.5570 C.3       20 UNK        -0.1800 
    112 C         -5.4714  -21.8196  -56.2590 C.2       20 UNK         0.5000 
    113 O         -5.6227  -22.2939  -57.3859 O.2       20 UNK        -0.5000 
    114 N         -4.8874  -22.4832  -55.2500 N.am      21 UNK        -0.5000 
    115 CA        -4.3239  -23.8301  -55.3766 C.3       21 UNK         0.1400 
    116 CB        -4.1536  -24.4417  -53.9776 C.3       21 UNK        -0.1800 
    117 C         -2.9913  -23.8580  -56.1545 C.2       21 UNK         0.5000 
    118 O         -2.5622  -24.9335  -56.5742 O.2       21 UNK        -0.5000 
    119 N         -2.3645  -22.6885  -56.3360 N.am      22 UNK        -0.5000 
    120 CA        -1.0982  -22.5039  -57.0630 C.3       22 UNK         0.1400 
    121 C         -1.2548  -22.4608  -58.6118 C.2       22 UNK         0.5000 
    122 N         -2.4629  -22.4518  -59.1640 N.am      22 UNK        -0.7600 
    123 O         -0.2584  -22.4468  -59.3294 O.2       22 UNK        -0.5000 
    124 C124       -0.3133  -21.2672  -56.5500 C.3       23 UNK        -0.0398 
    125 S125       -0.0851  -21.2934  -54.7417 S.3       23 UNK        -0.2404 
    126 C126        1.1617  -19.9947  -54.5101 C.3       23 UNK        -0.0205 
    127 H127        0.3632  -10.3523  -51.3779 H         1 UNK         0.0600 
    128 H128        1.9059   -9.9407  -50.6208 H         1 UNK         0.0600 
    129 H129        1.7782  -11.3747  -51.6434 H         1 UNK         0.0600 
    130 H130        1.6584  -13.2764  -50.4746 H         1 UNK         0.3000 
    131 H131        1.1140  -13.3398  -47.6764 H         1 UNK         0.0600 
    132 H132        2.7182  -14.8853  -48.3703 H         1 UNK         0.0800 
    133 H133        1.3534  -15.8683  -47.9806 H         1 UNK         0.0800 
    134 H134        0.4998  -17.5364  -49.2283 H         1 UNK         0.0800 
    135 H135       -0.2691  -16.9576  -50.6889 H         1 UNK         0.0800 
    136 H136        0.3559  -17.9420  -52.8907 H         1 UNK         0.1150 
    137 H137        2.6004  -21.5967  -52.8456 H         1 UNK         0.1150 
    138 H138        2.2048  -19.2750  -49.2632 H         1 UNK         0.1150 
    139 H139        4.1528  -21.8967  -50.8160 H         1 UNK         0.0800 
    140 H140        3.7139  -21.1637  -49.2936 H         1 UNK         0.0800 
    141 H141        0.1272  -22.3903  -49.0840 H         1 UNK         0.0800 
    142 H142        1.3293  -21.3296  -48.4035 H         1 UNK         0.0800 
    143 H143        0.7977  -24.1981  -47.5280 H         1 UNK         0.0600 
    144 H144        2.9463  -22.3645  -46.7539 H         1 UNK         0.3000 
    145 H145        4.0262  -24.1226  -44.0040 H         1 UNK         0.0600 
    146 H146        5.3764  -24.7763  -46.6727 H         1 UNK         0.0600 
    147 H147        6.1296  -24.8652  -45.0798 H         1 UNK         0.0600 
    148 H148        4.8175  -25.9551  -45.4923 H         1 UNK         0.0600 
    149 H149        5.5413  -22.5240  -45.8097 H         1 UNK         0.3000 
    150 H150        2.4545  -22.2249  -43.8904 H         1 UNK         0.0600 
    151 H151        4.1239  -22.4722  -42.0372 H         1 UNK         0.0600 
    152 H152        2.6926  -21.5891  -41.5299 H         1 UNK         0.0600 
    153 H153        4.1878  -20.7213  -41.8750 H         1 UNK         0.0600 
    154 H154        2.0409  -19.7512  -42.9311 H         1 UNK         0.3000 
    155 H155        1.2032  -17.7590  -45.6687 H         1 UNK         0.0600 
    156 H156       -0.6983  -19.4297  -45.7102 H         1 UNK         0.0600 
    157 H157       -1.1551  -17.9370  -44.9005 H         1 UNK         0.0600 
    158 H158       -0.7642  -19.3753  -43.9707 H         1 UNK         0.0600 
    159 H159        0.4327  -17.5911  -42.9376 H         1 UNK         0.3000 
    160 H160        3.3718  -16.1099  -41.6239 H         1 UNK         0.0600 
    161 H161        0.6175  -14.8924  -42.1976 H         1 UNK         0.0600 
    162 H162        2.1477  -14.2294  -42.7606 H         1 UNK         0.0600 
    163 H163        1.8061  -14.3087  -41.0391 H         1 UNK         0.0600 
    164 H164        0.6514  -16.8435  -40.7751 H         1 UNK         0.3000 
    165 H165        1.6377  -19.8976  -39.2757 H         1 UNK         0.0600 
    166 H166        0.7134  -18.8797  -37.2106 H         1 UNK         0.0600 
    167 H167        2.3215  -18.2489  -37.5269 H         1 UNK         0.0600 
    168 H168        0.9098  -17.2617  -37.8857 H         1 UNK         0.0600 
    169 H169       -0.8079  -18.3974  -39.2489 H         1 UNK         0.3000 
    170 H170       -2.1609  -19.6735  -42.2751 H         1 UNK         0.0600 
    171 H171       -2.8428  -20.3846  -39.3800 H         1 UNK         0.0600 
    172 H172       -3.9109  -20.5312  -40.7775 H         1 UNK         0.0600 
    173 H173       -2.4832  -21.5421  -40.6561 H         1 UNK         0.0600 
    174 H174       -3.4144  -18.1327  -40.3210 H         1 UNK         0.3000 
    175 H175       -4.0052  -15.9730  -41.0153 H         1 UNK         0.0600 
    176 H176       -2.6443  -16.0641  -38.8942 H         1 UNK         0.0600 
    177 H177       -1.4195  -15.0325  -39.6256 H         1 UNK         0.0600 
    178 H178       -3.0341  -14.4041  -39.3057 H         1 UNK         0.0600 
    179 H179       -1.8533  -14.7702  -42.5491 H         1 UNK         0.3000 
    180 H180       -3.9300  -12.2655  -43.8060 H         1 UNK         0.0600 
    181 H181       -2.3282  -10.4892  -43.1355 H         1 UNK         0.0600 
    182 H182       -1.7101  -11.5071  -41.8336 H         1 UNK         0.0600 
    183 H183       -3.3677  -10.9199  -41.7884 H         1 UNK         0.0600 
    184 H184       -1.0567  -12.6506  -43.8812 H         1 UNK         0.3000 
    185 H185       -0.3650  -12.9550  -46.0952 H         1 UNK         0.0600 
    186 H186       -0.0699  -15.0531  -44.4671 H         1 UNK         0.0600 
    187 H187       -0.4411  -16.0022  -45.8938 H         1 UNK         0.0600 
    188 H188        0.9716  -14.9485  -45.8634 H         1 UNK         0.0600 
    189 H189       -2.3555  -14.3643  -47.5246 H         1 UNK         0.3000 
    190 H190        0.5668  -23.9283  -44.9127 H         1 UNK         0.3000 
    191 H191       -0.7713  -21.7025  -43.8348 H         1 UNK         0.0600 
    192 H192       -0.6363  -24.5991  -42.8534 H         1 UNK         0.0600 
    193 H193       -1.1299  -23.2208  -41.8761 H         1 UNK         0.0600 
    194 H194        0.5123  -23.3107  -42.4828 H         1 UNK         0.0600 
    195 H195       -2.1015  -24.1341  -45.8142 H         1 UNK         0.3000 
    196 H196       -4.8677  -24.0659  -44.9666 H         1 UNK         0.0600 
    197 H197       -5.2096  -25.2765  -47.1253 H         1 UNK         0.0600 
    198 H198       -3.9192  -26.0038  -46.1823 H         1 UNK         0.0600 
    199 H199       -3.5318  -24.9859  -47.5693 H         1 UNK         0.0600 
    200 H200       -4.6519  -21.6415  -44.7502 H         1 UNK         0.3000 
    201 H201       -5.3556  -19.5873  -45.2289 H         1 UNK         0.0600 
    202 H202       -7.5001  -20.7996  -45.6089 H         1 UNK         0.0600 
    203 H203       -7.1203  -20.9698  -47.3209 H         1 UNK         0.0600 
    204 H204       -7.3951  -19.3757  -46.6294 H         1 UNK         0.0600 
    205 H205       -2.9038  -20.1116  -46.3668 H         1 UNK         0.3000 
    206 H206       -1.3477  -19.2777  -47.7593 H         1 UNK         0.0600 
    207 H207       -3.4274  -17.1524  -48.5115 H         1 UNK         0.0600 
    208 H208       -2.3362  -17.0633  -47.1328 H         1 UNK         0.0600 
    209 H209       -1.7029  -17.0479  -48.7680 H         1 UNK         0.0600 
    210 H210       -2.4686  -21.4949  -48.5852 H         1 UNK         0.3000 
    211 H211       -2.8571  -22.9178  -50.2521 H         1 UNK         0.0600 
    212 H212       -1.4954  -20.8445  -52.0554 H         1 UNK         0.0600 
    213 H213       -1.7782  -22.5267  -52.4671 H         1 UNK         0.0600 
    214 H214       -0.6778  -22.1193  -51.1706 H         1 UNK         0.0600 
    215 H215       -5.0074  -21.6004  -49.4524 H         1 UNK         0.3000 
    216 H216       -7.0665  -20.8597  -49.8157 H         1 UNK         0.0600 
    217 H217       -8.3307  -21.8185  -51.7249 H         1 UNK         0.0600 
    218 H218       -7.2908  -23.0400  -51.0092 H         1 UNK         0.0600 
    219 H219       -6.8361  -22.2748  -52.5301 H         1 UNK         0.0600 
    220 H220       -5.4537  -18.8393  -49.9733 H         1 UNK         0.3000 
    221 H221       -4.8785  -16.8420  -50.7391 H         1 UNK         0.0600 
    222 H222       -7.6077  -16.8402  -52.1390 H         1 UNK         0.0600 
    223 H223       -7.3234  -16.4122  -50.4523 H         1 UNK         0.0600 
    224 H224       -6.6449  -15.4248  -51.7367 H         1 UNK         0.0600 
    225 H225       -3.6059  -18.7293  -52.0252 H         1 UNK         0.3000 
    226 H226       -2.3580  -19.3656  -53.6821 H         1 UNK         0.0600 
    227 H227       -2.8745  -16.6638  -55.0194 H         1 UNK         0.0600 
    228 H228       -1.7040  -16.9398  -53.7303 H         1 UNK         0.0600 
    229 H229       -1.5019  -17.7293  -55.2857 H         1 UNK         0.0600 
    230 H230       -5.5317  -19.5295  -54.0743 H         1 UNK         0.3000 
    231 H231       -5.8499  -19.8194  -56.9171 H         1 UNK         0.0600 
    232 H232       -8.0436  -20.7553  -56.3506 H         1 UNK         0.0600 
    233 H233       -7.7467  -19.3501  -55.3375 H         1 UNK         0.0600 
    234 H234       -7.5763  -20.9763  -54.6720 H         1 UNK         0.0600 
    235 H235       -4.7697  -22.0217  -54.3511 H         1 UNK         0.3000 
    236 H236       -5.0358  -24.4486  -55.9271 H         1 UNK         0.0600 
    237 H237       -3.3995  -23.9119  -53.3976 H         1 UNK         0.0600 
    238 H238       -5.0881  -24.4167  -53.4167 H         1 UNK         0.0600 
    239 H239       -3.8403  -25.4842  -54.0438 H         1 UNK         0.0600 
    240 H240       -2.7917  -21.8459  -55.9773 H         1 UNK         0.3000 
    241 H241       -0.4764  -23.3776  -56.8589 H         1 UNK         0.0600 
    242 H242       -2.5503  -22.4290  -60.1679 H         1 UNK         0.3800 
    243 H243       -3.2915  -22.4616  -58.5880 H         1 UNK         0.3800 
    244 H244       -0.8243  -20.3431  -56.8227 H         1 UNK         0.0800 
    245 H245        0.6711  -21.2243  -57.0193 H         1 UNK         0.0800 
    246 H246        2.0797  -20.2712  -55.0307 H         1 UNK         0.0800 
    247 H247        0.8088  -19.0683  -54.9658 H         1 UNK         0.0800 
@<TRIPOS>BOND
     1    1    2 1    
     2    1  127 1    
     3    1  128 1    
     4    1  129 1    
     5    2    3 2    
     6    2    4 am   BACKBONE|DICT|INTERRES
     7    4    5 1    
     8    4  130 1    
     9    5    6 1    
    10    5   65 1    
    11    5  131 1    
    12    6    7 1    
    13    6  132 1    
    14    6  133 1    
    15    7    8 1    
    16    8    9 1    
    17    8  134 1    
    18    8  135 1    
    19    9   10 ar   
    20    9   14 ar   
    21   10   11 ar   
    22   10  136 1    
    23   11   12 ar   
    24   11  126 1    
    25   12   13 ar   
    26   12  137 1    
    27   13   14 ar   
    28   13   15 1    
    29   14  138 1    
    30   15   16 1    
    31   15  139 1    
    32   15  140 1    
    33   16   17 1    
    34   17   18 1    
    35   17  141 1    
    36   17  142 1    
    37   18   19 1    
    38   18   67 1    
    39   18  143 1    
    40   19   20 am   BACKBONE|DICT|INTERRES
    41   19  144 1    
    42   20   21 2    
    43   20   22 1    
    44   22   23 1    
    45   22   24 1    
    46   22  145 1    
    47   23  146 1    
    48   23  147 1    
    49   23  148 1    
    50   24   25 am   BACKBONE|DICT|INTERRES
    51   24  149 1    
    52   25   26 2    
    53   25   27 1    
    54   27   28 1    
    55   27   29 1    
    56   27  150 1    
    57   28  151 1    
    58   28  152 1    
    59   28  153 1    
    60   29   30 am   BACKBONE|DICT|INTERRES
    61   29  154 1    
    62   30   31 2    
    63   30   32 1    
    64   32   33 1    
    65   32   34 1    
    66   32  155 1    
    67   33  156 1    
    68   33  157 1    
    69   33  158 1    
    70   34   35 am   BACKBONE|DICT|INTERRES
    71   34  159 1    
    72   35   36 2    
    73   35   37 1    
    74   37   38 1    
    75   37   39 1    
    76   37  160 1    
    77   38  161 1    
    78   38  162 1    
    79   38  163 1    
    80   39   40 am   BACKBONE|DICT|INTERRES
    81   39  164 1    
    82   40   41 2    
    83   40   42 1    
    84   42   43 1    
    85   42   44 1    
    86   42  165 1    
    87   43  166 1    
    88   43  167 1    
    89   43  168 1    
    90   44   45 am   BACKBONE|DICT|INTERRES
    91   44  169 1    
    92   45   46 2    
    93   45   47 1    
    94   47   48 1    
    95   47   49 1    
    96   47  170 1    
    97   48  171 1    
    98   48  172 1    
    99   48  173 1    
   100   49   50 am   BACKBONE|DICT|INTERRES
   101   49  174 1    
   102   50   51 2    
   103   50   52 1    
   104   52   53 1    
   105   52   54 1    
   106   52  175 1    
   107   53  176 1    
   108   53  177 1    
   109   53  178 1    
   110   54   55 am   BACKBONE|DICT|INTERRES
   111   54  179 1    
   112   55   56 2    
   113   55   57 1    
   114   57   58 1    
   115   57   59 1    
   116   57  180 1    
   117   58  181 1    
   118   58  182 1    
   119   58  183 1    
   120   59   60 am   BACKBONE|DICT|INTERRES
   121   59  184 1    
   122   60   61 2    
   123   60   62 1    
   124   62   63 1    
   125   62   64 1    
   126   62  185 1    
   127   63  186 1    
   128   63  187 1    
   129   63  188 1    
   130   64   65 am   BACKBONE|DICT|INTERRES
   131   64  189 1    
   132   65   66 2    
   133   67   68 2    
   134   67   69 am   BACKBONE|DICT|INTERRES
   135   69   70 1    
   136   69  190 1    
   137   70   71 1    
   138   70   72 1    
   139   70  191 1    
   140   71  192 1    
   141   71  193 1    
   142   71  194 1    
   143   72   73 2    
   144   72   74 am   BACKBONE|DICT|INTERRES
   145   74   75 1    
   146   74  195 1    
   147   75   76 1    
   148   75   77 1    
   149   75  196 1    
   150   76  197 1    
   151   76  198 1    
   152   76  199 1    
   153   77   78 2    
   154   77   79 am   BACKBONE|DICT|INTERRES
   155   79   80 1    
   156   79  200 1    
   157   80   81 1    
   158   80   82 1    
   159   80  201 1    
   160   81  202 1    
   161   81  203 1    
   162   81  204 1    
   163   82   83 2    
   164   82   84 am   BACKBONE|DICT|INTERRES
   165   84   85 1    
   166   84  205 1    
   167   85   86 1    
   168   85   87 1    
   169   85  206 1    
   170   86  207 1    
   171   86  208 1    
   172   86  209 1    
   173   87   88 2    
   174   87   89 am   BACKBONE|DICT|INTERRES
   175   89   90 1    
   176   89  210 1    
   177   90   91 1    
   178   90   92 1    
   179   90  211 1    
   180   91  212 1    
   181   91  213 1    
   182   91  214 1    
   183   92   93 2    
   184   92   94 am   BACKBONE|DICT|INTERRES
   185   94   95 1    
   186   94  215 1    
   187   95   96 1    
   188   95   97 1    
   189   95  216 1    
   190   96  217 1    
   191   96  218 1    
   192   96  219 1    
   193   97   98 2    
   194   97   99 am   BACKBONE|DICT|INTERRES
   195   99  100 1    
   196   99  220 1    
   197  100  101 1    
   198  100  102 1    
   199  100  221 1    
   200  101  222 1    
   201  101  223 1    
   202  101  224 1    
   203  102  103 2    
   204  102  104 am   BACKBONE|DICT|INTERRES
   205  104  105 1    
   206  104  225 1    
   207  105  106 1    
   208  105  107 1    
   209  105  226 1    
   210  106  227 1    
   211  106  228 1    
   212  106  229 1    
   213  107  108 2    
   214  107  109 am   BACKBONE|DICT|INTERRES
   215  109  110 1    
   216  109  230 1    
   217  110  111 1    
   218  110  112 1    
   219  110  231 1    
   220  111  232 1    
   221  111  233 1    
   222  111  234 1    
   223  112  113 2    
   224  112  114 am   BACKBONE|DICT|INTERRES
   225  114  115 1    
   226  114  235 1    
   227  115  116 1    
   228  115  117 1    
   229  115  236 1    
   230  116  237 1    
   231  116  238 1    
   232  116  239 1    
   233  117  118 2    
   234  117  119 am   BACKBONE|DICT|INTERRES
   235  119  120 1    
   236  119  240 1    
   237  120  121 1    
   238  120  124 1    
   239  120  241 1    
   240  121  122 am   BACKBONE|DICT|INTERRES
   241  121  123 2    
   242  122  242 1    
   243  122  243 1    
   244  124  125 1    
   245  124  244 1    
   246  124  245 1    
   247  125  126 1    
   248  126  246 1    
   249  126  247 1    
@<TRIPOS>SUBSTRUCTURE
     1 UNK         1 GROUP             0       ****    0 ROOT    
