@<TRIPOS>MOLECULE
3R540
247   249    1
SMALL
USER_CHARGES


@<TRIPOS>ATOM
      1 CA         -2.5135  -15.8162  -49.1507 C.3       0 UNK        -0.1800 
      2 C          -4.0286  -15.8106  -49.3530 C.2       0 UNK         0.5000 
      3 O          -4.5013  -16.2786  -50.3856 O.2       0 UNK        -0.5000 
      4 N          -4.8298  -15.3138  -48.4011 N.am      1 UNK        -0.5000 
      5 CA         -4.4235  -14.6530  -47.1564 C.3       1 UNK         0.1400 
      6 C6         -5.5720  -14.6032  -46.1124 C.3       23 UNK        -0.0398 
      7 S7         -6.4614  -16.1763  -45.8302 S.3       23 UNK        -0.2404 
      8 C8         -5.1138  -17.3573  -45.5249 C.3       23 UNK        -0.0205 
      9 C9         -5.6512  -18.7658  -45.3330 C.ar      23 UNK        -0.0193 
     10 C10        -6.0679  -19.5096  -46.4393 C.ar      23 UNK        -0.1150 
     11 C11        -6.5269  -20.8201  -46.2874 C.ar      23 UNK        -0.0193 
     12 C12        -6.5971  -21.3775  -45.0050 C.ar      23 UNK        -0.1150 
     13 C13        -6.1960  -20.6376  -43.8855 C.ar      23 UNK        -0.0193 
     14 C14        -5.7176  -19.3346  -44.0594 C.ar      23 UNK        -0.1150 
     15 C15        -6.3009  -21.2204  -42.4788 C.3       23 UNK        -0.0205 
     16 S16        -5.2331  -22.6729  -42.1932 S.3       23 UNK        -0.2404 
     17 C17        -3.6101  -22.1068  -42.8075 C.3       23 UNK        -0.0398 
     18 CA         -3.2853  -22.7825  -44.1632 C.3       11 UNK         0.1400 
     19 N          -2.6240  -21.8738  -45.0969 N.am      11 UNK        -0.5000 
     20 C          -2.4758  -22.1287  -46.4020 C.2       10 UNK         0.5000 
     21 O          -2.7623  -23.2047  -46.9247 O.2       10 UNK        -0.5000 
     22 CA         -1.8994  -21.0038  -47.2669 C.3       10 UNK         0.1400 
     23 CB         -2.7788  -19.7439  -47.2343 C.3       10 UNK        -0.1800 
     24 N          -0.5482  -20.6740  -46.8365 N.am      10 UNK        -0.5000 
     25 C           0.5523  -21.3117  -47.2465 C.2       9 UNK         0.5000 
     26 O           0.5323  -22.1936  -48.1056 O.2       9 UNK        -0.5000 
     27 CA          1.9010  -20.8734  -46.6444 C.3       9 UNK         0.1400 
     28 CB          2.6780  -20.0106  -47.6506 C.3       9 UNK        -0.1800 
     29 N           1.7516  -20.1315  -45.3918 N.am      9 UNK        -0.5000 
     30 C           1.4170  -20.6859  -44.2184 C.2       8 UNK         0.5000 
     31 O           1.3070  -21.8986  -44.0450 O.2       8 UNK        -0.5000 
     32 CA          1.1217  -19.7220  -43.0539 C.3       8 UNK         0.1400 
     33 CB          2.4133  -19.3743  -42.2993 C.3       8 UNK        -0.1800 
     34 N           0.4562  -18.4906  -43.4898 N.am      8 UNK        -0.5000 
     35 C          -0.7826  -18.4378  -44.0000 C.2       7 UNK         0.5000 
     36 O          -1.5148  -19.4213  -44.1058 O.2       7 UNK        -0.5000 
     37 CA         -1.2704  -17.0777  -44.5330 C.3       7 UNK         0.1400 
     38 CB         -1.8312  -16.2074  -43.3998 C.3       7 UNK        -0.1800 
     39 N          -0.2276  -16.3412  -45.2452 N.am      7 UNK        -0.5000 
     40 C           0.3173  -16.7206  -46.4094 C.2       6 UNK         0.5000 
     41 O          -0.0414  -17.7075  -47.0485 O.2       6 UNK        -0.5000 
     42 CA          1.4910  -15.8760  -46.9281 C.3       6 UNK         0.1400 
     43 CB          0.9823  -14.6302  -47.6673 C.3       6 UNK        -0.1800 
     44 N           2.3977  -15.4823  -45.8495 N.am      6 UNK        -0.5000 
     45 C           3.1915  -16.3333  -45.1835 C.2       5 UNK         0.5000 
     46 O           3.2619  -17.5364  -45.4324 O.2       5 UNK        -0.5000 
     47 CA          4.0152  -15.7477  -44.0215 C.3       5 UNK         0.1400 
     48 CB          5.3107  -15.1102  -44.5448 C.3       5 UNK        -0.1800 
     49 N           3.2687  -14.7587  -43.2418 N.am      5 UNK        -0.5000 
     50 C           2.2021  -15.0432  -42.4809 C.2       4 UNK         0.5000 
     51 O           1.7533  -16.1782  -42.3311 O.2       4 UNK        -0.5000 
     52 CA          1.4786  -13.8503  -41.8271 C.3       4 UNK         0.1400 
     53 CB          2.1478  -13.4743  -40.4969 C.3       4 UNK        -0.1800 
     54 N           1.4069  -12.6666  -42.6905 N.am      4 UNK        -0.5000 
     55 C           0.8308  -12.6445  -43.8993 C.2       3 UNK         0.5000 
     56 O           0.3187  -13.6366  -44.4254 O.2       3 UNK        -0.5000 
     57 CA          0.8916  -11.3091  -44.6670 C.3       3 UNK         0.1400 
     58 CB          2.3052  -11.0838  -45.2280 C.3       3 UNK        -0.1800 
     59 N          -0.0553  -11.2816  -45.7818 N.am      3 UNK        -0.5000 
     60 C          -1.3879  -11.2762  -45.6570 C.2       2 UNK         0.5000 
     61 O          -1.9749  -11.1432  -44.5817 O.2       2 UNK        -0.5000 
     62 CA         -2.2109  -11.5088  -46.9319 C.3       2 UNK         0.1400 
     63 CB         -1.4052  -11.4140  -48.2483 C.3       2 UNK        -0.1800 
     64 N          -2.8275  -12.8252  -46.8052 N.am      2 UNK        -0.5000 
     65 C          -3.9220  -13.2258  -47.4575 C.2       1 UNK         0.5000 
     66 O          -4.5376  -12.5208  -48.2607 O.2       1 UNK        -0.5000 
     67 C          -2.4912  -24.0928  -43.9923 C.2       11 UNK         0.5000 
     68 O          -1.3148  -24.0483  -43.6293 O.2       11 UNK        -0.5000 
     69 N          -3.1404  -25.2242  -44.3021 N.am      12 UNK        -0.5000 
     70 CA         -2.6378  -26.6059  -44.3214 C.3       12 UNK         0.1400 
     71 CB         -2.1344  -27.0454  -42.9332 C.3       12 UNK        -0.1800 
     72 C          -1.5880  -26.8984  -45.4151 C.2       12 UNK         0.5000 
     73 O          -1.6461  -27.9640  -46.0295 O.2       12 UNK        -0.5000 
     74 N          -0.6589  -25.9637  -45.6488 N.am      13 UNK        -0.5000 
     75 CA          0.3927  -26.0471  -46.6631 C.3       13 UNK         0.1400 
     76 CB          1.4478  -24.9691  -46.3772 C.3       13 UNK        -0.1800 
     77 C          -0.1363  -25.9512  -48.1086 C.2       13 UNK         0.5000 
     78 O           0.4349  -26.5854  -48.9964 O.2       13 UNK        -0.5000 
     79 N          -1.2263  -25.1944  -48.3092 N.am      14 UNK        -0.5000 
     80 CA         -2.0005  -25.0524  -49.5469 C.3       14 UNK         0.1400 
     81 CB         -2.7351  -26.3692  -49.8723 C.3       14 UNK        -0.1800 
     82 C          -1.2050  -24.4962  -50.7472 C.2       14 UNK         0.5000 
     83 O          -1.5139  -24.8360  -51.8901 O.2       14 UNK        -0.5000 
     84 N          -0.2129  -23.6372  -50.4799 N.am      15 UNK        -0.5000 
     85 CA          0.5477  -22.9116  -51.4980 C.3       15 UNK         0.1400 
     86 CB          2.0321  -22.8785  -51.0995 C.3       15 UNK        -0.1800 
     87 C          -0.0125  -21.4903  -51.6682 C.2       15 UNK         0.5000 
     88 O          -0.2156  -21.0481  -52.7996 O.2       15 UNK        -0.5000 
     89 N          -0.2693  -20.8185  -50.5344 N.am      16 UNK        -0.5000 
     90 CA         -0.8575  -19.4815  -50.3805 C.3       16 UNK         0.1400 
     91 CB         -2.3648  -19.5279  -50.6801 C.3       16 UNK        -0.1800 
     92 C          -0.1123  -18.4217  -51.2105 C.2       16 UNK         0.5000 
     93 O          -0.5520  -18.0557  -52.3041 O.2       16 UNK        -0.5000 
     94 N           1.0652  -18.0377  -50.6954 N.am      17 UNK        -0.5000 
     95 CA          2.0778  -17.1815  -51.3311 C.3       17 UNK         0.1400 
     96 CB          1.5191  -15.7676  -51.5968 C.3       17 UNK        -0.1800 
     97 C           2.7058  -17.8130  -52.5952 C.2       17 UNK         0.5000 
     98 O           3.3001  -17.0976  -53.4026 O.2       17 UNK        -0.5000 
     99 N           2.5535  -19.1407  -52.7377 N.am      18 UNK        -0.5000 
    100 CA         2.8987  -19.9645  -53.9013 C.3       18 UNK         0.1400 
    101 CB         4.4293  -20.0766  -54.0562 C.3       18 UNK        -0.1800 
    102 C          2.1839  -19.4869  -55.1822 C.2       18 UNK         0.5000 
    103 O          2.8027  -19.4174  -56.2464 O.2       18 UNK        -0.5000 
    104 N          0.8987  -19.1347  -55.0449 N.am      19 UNK        -0.5000 
    105 CA         0.1086  -18.5125  -56.1005 C.3       19 UNK         0.1400 
    106 CB         0.2863  -16.9834  -56.0532 C.3       19 UNK        -0.1800 
    107 C         -1.3690  -18.9082  -56.0122 C.2       19 UNK         0.5000 
    108 O         -1.9022  -19.4523  -56.9803 O.2       19 UNK        -0.5000 
    109 N         -2.0196  -18.6026  -54.8808 N.am      20 UNK        -0.5000 
    110 CA        -3.4744  -18.7236  -54.7476 C.3       20 UNK         0.1400 
    111 CB        -3.9732  -17.7414  -53.6762 C.3       20 UNK        -0.1800 
    112 C         -3.9588  -20.1575  -54.4663 C.2       20 UNK         0.5000 
    113 O         -5.1024  -20.4773  -54.7933 O.2       20 UNK        -0.5000 
    114 N         -3.1001  -20.9858  -53.8529 N.am      21 UNK        -0.5000 
    115 CA        -3.3097  -22.3954  -53.4954 C.3       21 UNK         0.1400 
    116 CB        -3.2203  -23.2670  -54.7637 C.3       21 UNK        -0.1800 
    117 C         -4.5812  -22.6940  -52.6617 C.2       21 UNK         0.5000 
    118 O         -5.1020  -23.8084  -52.7299 O.2       21 UNK        -0.5000 
    119 N         -5.0768  -21.6947  -51.9143 N.am      22 UNK        -0.5000 
    120 CA        -6.3894  -21.6908  -51.2349 C.3       22 UNK         0.1400 
    121 C         -7.6156  -21.7741  -52.2028 C.2       22 UNK         0.5000 
    122 N         -7.4761  -21.4639  -53.4867 N.am      22 UNK        -0.7600 
    123 O         -8.7272  -22.0859  -51.7840 O.2       22 UNK        -0.5000 
    124 C124       -6.4734  -22.6983  -50.0467 C.3       23 UNK        -0.0398 
    125 S125       -5.5779  -22.0993  -48.5743 S.3       23 UNK        -0.2404 
    126 C126       -6.9771  -21.6052  -47.5119 C.3       23 UNK        -0.0205 
    127 H127       -2.1261  -14.8031  -49.0513 H         1 UNK         0.0600 
    128 H128       -2.0159  -16.2717  -50.0067 H         1 UNK         0.0600 
    129 H129       -2.2416  -16.3897  -48.2651 H         1 UNK         0.0600 
    130 H130       -5.8255  -15.3186  -48.5670 H         1 UNK         0.3000 
    131 H131       -3.5987  -15.2171  -46.7183 H         1 UNK         0.0600 
    132 H132       -5.1878  -14.2578  -45.1509 H         1 UNK         0.0800 
    133 H133       -6.3255  -13.8719  -46.4120 H         1 UNK         0.0800 
    134 H134       -4.5443  -17.0386  -44.6511 H         1 UNK         0.0800 
    135 H135       -4.4249  -17.3619  -46.3693 H         1 UNK         0.0800 
    136 H136       -6.0222  -19.0702  -47.4261 H         1 UNK         0.1150 
    137 H137       -6.9667  -22.3848  -44.8739 H         1 UNK         0.1150 
    138 H138       -5.4016  -18.7581  -43.2014 H         1 UNK         0.1150 
    139 H139       -6.0583  -20.4635  -41.7313 H         1 UNK         0.0800 
    140 H140       -7.3369  -21.5061  -42.2924 H         1 UNK         0.0800 
    141 H141       -2.8462  -22.3090  -42.0543 H         1 UNK         0.0800 
    142 H142       -3.6300  -21.0210  -42.9069 H         1 UNK         0.0800 
    143 H143       -4.2300  -23.0321  -44.6522 H         1 UNK         0.0600 
    144 H144       -2.2930  -20.9877  -44.7225 H         1 UNK         0.3000 
    145 H145       -1.8753  -21.3655  -48.2952 H         1 UNK         0.0600 
    146 H146       -3.7197  -19.9293  -47.7481 H         1 UNK         0.0600 
    147 H147       -3.0133  -19.4294  -46.2195 H         1 UNK         0.0600 
    148 H148       -2.3083  -18.8998  -47.7336 H         1 UNK         0.0600 
    149 H149       -0.4555  -19.9372  -46.1507 H         1 UNK         0.3000 
    150 H150        2.4816  -21.7773  -46.4492 H         1 UNK         0.0600 
    151 H151        2.8220  -20.5367  -48.5948 H         1 UNK         0.0600 
    152 H152        3.6668  -19.7576  -47.2675 H         1 UNK         0.0600 
    153 H153        2.1579  -19.0779  -47.8663 H         1 UNK         0.0600 
    154 H154        1.9059  -19.1301  -45.4340 H         1 UNK         0.3000 
    155 H155        0.4525  -20.2374  -42.3616 H         1 UNK         0.0600 
    156 H156        3.1110  -18.8222  -42.9293 H         1 UNK         0.0600 
    157 H157        2.9217  -20.2766  -41.9572 H         1 UNK         0.0600 
    158 H158        2.2036  -18.7668  -41.4188 H         1 UNK         0.0600 
    159 H159        0.9736  -17.6259  -43.3602 H         1 UNK         0.3000 
    160 H160       -2.0775  -17.2738  -45.2409 H         1 UNK         0.0600 
    161 H161       -1.0613  -15.9529  -42.6708 H         1 UNK         0.0600 
    162 H162       -2.6301  -16.7251  -42.8675 H         1 UNK         0.0600 
    163 H163       -2.2454  -15.2759  -43.7859 H         1 UNK         0.0600 
    164 H164        0.1013  -15.4800  -44.8156 H         1 UNK         0.3000 
    165 H165        2.0515  -16.4856  -47.6401 H         1 UNK         0.0600 
    166 H166        1.8069  -14.0566  -48.0903 H         1 UNK         0.0600 
    167 H167        0.3241  -14.9095  -48.4898 H         1 UNK         0.0600 
    168 H168        0.4160  -13.9719  -47.0102 H         1 UNK         0.0600 
    169 H169        2.3481  -14.5231  -45.5413 H         1 UNK         0.3000 
    170 H170        4.2848  -16.5712  -43.3569 H         1 UNK         0.0600 
    171 H171        5.8962  -15.8309  -45.1174 H         1 UNK         0.0600 
    172 H172        5.1084  -14.2593  -45.1967 H         1 UNK         0.0600 
    173 H173        5.9384  -14.7628  -43.7240 H         1 UNK         0.0600 
    174 H174        3.5692  -13.7979  -43.3108 H         1 UNK         0.3000 
    175 H175        0.4548  -14.1654  -41.6156 H         1 UNK         0.0600 
    176 H176        3.1664  -13.1136  -40.6450 H         1 UNK         0.0600 
    177 H177        1.5872  -12.6957  -39.9794 H         1 UNK         0.0600 
    178 H178        2.1981  -14.3350  -39.8285 H         1 UNK         0.0600 
    179 H179        1.8170  -11.8187  -42.3262 H         1 UNK         0.3000 
    180 H180        0.6444  -10.4989  -43.9780 H         1 UNK         0.0600 
    181 H181        2.5971  -11.8774  -45.9173 H         1 UNK         0.0600 
    182 H182        3.0482  -11.0519  -44.4302 H         1 UNK         0.0600 
    183 H183        2.3694  -10.1362  -45.7632 H         1 UNK         0.0600 
    184 H184        0.3359  -11.4150  -46.7020 H         1 UNK         0.3000 
    185 H185       -2.9909  -10.7445  -46.9454 H         1 UNK         0.0600 
    186 H186       -0.8887  -10.4565  -48.3273 H         1 UNK         0.0600 
    187 H187       -0.6631  -12.2074  -48.3354 H         1 UNK         0.0600 
    188 H188       -2.0625  -11.4888  -49.1146 H         1 UNK         0.0600 
    189 H189       -2.3986  -13.4277  -46.1153 H         1 UNK         0.3000 
    190 H190       -4.0917  -25.1300  -44.6300 H         1 UNK         0.3000 
    191 H191       -3.5058  -27.2232  -44.5585 H         1 UNK         0.0600 
    192 H192       -1.2398  -26.5011  -42.6299 H         1 UNK         0.0600 
    193 H193       -1.8827  -28.1067  -42.9311 H         1 UNK         0.0600 
    194 H194       -2.8969  -26.8908  -42.1699 H         1 UNK         0.0600 
    195 H195       -0.6774  -25.1328  -45.0641 H         1 UNK         0.3000 
    196 H196        0.8771  -27.0210  -46.5667 H         1 UNK         0.0600 
    197 H197        2.1685  -24.8862  -47.1920 H         1 UNK         0.0600 
    198 H198        2.0056  -25.2005  -45.4697 H         1 UNK         0.0600 
    199 H199        0.9883  -23.9925  -46.2361 H         1 UNK         0.0600 
    200 H200       -1.6062  -24.6739  -47.5240 H         1 UNK         0.3000 
    201 H201       -2.7660  -24.3039  -49.3384 H         1 UNK         0.0600 
    202 H202       -3.3117  -26.7195  -49.0161 H         1 UNK         0.0600 
    203 H203       -2.0395  -27.1600  -50.1549 H         1 UNK         0.0600 
    204 H204       -3.4344  -26.2352  -50.6986 H         1 UNK         0.0600 
    205 H205       -0.0129  -23.4013  -49.5120 H         1 UNK         0.3000 
    206 H206        0.4743  -23.4181  -52.4626 H         1 UNK         0.0600 
    207 H207        2.4254  -23.8886  -50.9832 H         1 UNK         0.0600 
    208 H208        2.6354  -22.3852  -51.8608 H         1 UNK         0.0600 
    209 H209        2.1961  -22.3515  -50.1602 H         1 UNK         0.0600 
    210 H210       -0.0312  -21.2901  -49.6668 H         1 UNK         0.3000 
    211 H211       -0.7332  -19.2035  -49.3348 H         1 UNK         0.0600 
    212 H212       -2.5477  -19.7102  -51.7319 H         1 UNK         0.0600 
    213 H213       -2.8441  -18.5843  -50.4220 H         1 UNK         0.0600 
    214 H214       -2.8683  -20.3145  -50.1202 H         1 UNK         0.0600 
    215 H215        1.3276  -18.4117  -49.7952 H         1 UNK         0.3000 
    216 H216        2.8889  -17.0839  -50.6082 H         1 UNK         0.0600 
    217 H217        2.3143  -15.0827  -51.8928 H         1 UNK         0.0600 
    218 H218        1.0507  -15.3522  -50.7059 H         1 UNK         0.0600 
    219 H219        0.7774  -15.7671  -52.3960 H         1 UNK         0.0600 
    220 H220        2.0323  -19.6125  -52.0152 H         1 UNK         0.3000 
    221 H221        2.5136  -20.9649  -53.7051 H         1 UNK         0.0600 
    222 H222        4.8834  -19.1177  -54.3075 H         1 UNK         0.0600 
    223 H223        4.8923  -20.4365  -53.1374 H         1 UNK         0.0600 
    224 H224        4.6914  -20.7799  -54.8475 H         1 UNK         0.0600 
    225 H225        0.4423  -19.2693  -54.1495 H         1 UNK         0.3000 
    226 H226        0.4627  -18.8628  -57.0726 H         1 UNK         0.0600 
    227 H227        1.3203  -16.7020  -56.2533 H         1 UNK         0.0600 
    228 H228       -0.3354  -16.4919  -56.8026 H         1 UNK         0.0600 
    229 H229        0.0158  -16.5758  -55.0782 H         1 UNK         0.0600 
    230 H230       -1.5168  -18.1948  -54.0980 H         1 UNK         0.3000 
    231 H231       -3.9349  -18.4225  -55.6914 H         1 UNK         0.0600 
    232 H232       -3.8058  -16.7101  -53.9870 H         1 UNK         0.0600 
    233 H233       -3.4680  -17.8782  -52.7222 H         1 UNK         0.0600 
    234 H234       -5.0439  -17.8551  -53.5013 H         1 UNK         0.0600 
    235 H235       -2.1755  -20.6294  -53.6373 H         1 UNK         0.3000 
    236 H236       -2.4714  -22.6595  -52.8551 H         1 UNK         0.0600 
    237 H237       -4.0604  -23.0861  -55.4349 H         1 UNK         0.0600 
    238 H238       -2.3009  -23.0665  -55.3139 H         1 UNK         0.0600 
    239 H239       -3.2187  -24.3285  -54.5128 H         1 UNK         0.0600 
    240 H240       -4.5910  -20.8113  -51.9257 H         1 UNK         0.3000 
    241 H241       -6.4848  -20.6902  -50.8116 H         1 UNK         0.0600 
    242 H242       -8.2799  -21.5108  -54.0920 H         1 UNK         0.3800 
    243 H243       -6.5806  -21.1727  -53.8715 H         1 UNK         0.3800 
    244 H244       -6.0741  -23.6730  -50.3260 H         1 UNK         0.0800 
    245 H245       -7.5053  -22.8887  -49.7499 H         1 UNK         0.0800 
    246 H246       -7.5307  -22.4966  -47.2130 H         1 UNK         0.0800 
    247 H247       -7.6693  -20.9899  -48.0887 H         1 UNK         0.0800 
@<TRIPOS>BOND
     1    1    2 1    
     2    1  127 1    
     3    1  128 1    
     4    1  129 1    
     5    2    3 2    
     6    2    4 am   BACKBONE|DICT|INTERRES
     7    4    5 1    
     8    4  130 1    
     9    5    6 1    
    10    5   65 1    
    11    5  131 1    
    12    6    7 1    
    13    6  132 1    
    14    6  133 1    
    15    7    8 1    
    16    8    9 1    
    17    8  134 1    
    18    8  135 1    
    19    9   10 ar   
    20    9   14 ar   
    21   10   11 ar   
    22   10  136 1    
    23   11   12 ar   
    24   11  126 1    
    25   12   13 ar   
    26   12  137 1    
    27   13   14 ar   
    28   13   15 1    
    29   14  138 1    
    30   15   16 1    
    31   15  139 1    
    32   15  140 1    
    33   16   17 1    
    34   17   18 1    
    35   17  141 1    
    36   17  142 1    
    37   18   19 1    
    38   18   67 1    
    39   18  143 1    
    40   19   20 am   BACKBONE|DICT|INTERRES
    41   19  144 1    
    42   20   21 2    
    43   20   22 1    
    44   22   23 1    
    45   22   24 1    
    46   22  145 1    
    47   23  146 1    
    48   23  147 1    
    49   23  148 1    
    50   24   25 am   BACKBONE|DICT|INTERRES
    51   24  149 1    
    52   25   26 2    
    53   25   27 1    
    54   27   28 1    
    55   27   29 1    
    56   27  150 1    
    57   28  151 1    
    58   28  152 1    
    59   28  153 1    
    60   29   30 am   BACKBONE|DICT|INTERRES
    61   29  154 1    
    62   30   31 2    
    63   30   32 1    
    64   32   33 1    
    65   32   34 1    
    66   32  155 1    
    67   33  156 1    
    68   33  157 1    
    69   33  158 1    
    70   34   35 am   BACKBONE|DICT|INTERRES
    71   34  159 1    
    72   35   36 2    
    73   35   37 1    
    74   37   38 1    
    75   37   39 1    
    76   37  160 1    
    77   38  161 1    
    78   38  162 1    
    79   38  163 1    
    80   39   40 am   BACKBONE|DICT|INTERRES
    81   39  164 1    
    82   40   41 2    
    83   40   42 1    
    84   42   43 1    
    85   42   44 1    
    86   42  165 1    
    87   43  166 1    
    88   43  167 1    
    89   43  168 1    
    90   44   45 am   BACKBONE|DICT|INTERRES
    91   44  169 1    
    92   45   46 2    
    93   45   47 1    
    94   47   48 1    
    95   47   49 1    
    96   47  170 1    
    97   48  171 1    
    98   48  172 1    
    99   48  173 1    
   100   49   50 am   BACKBONE|DICT|INTERRES
   101   49  174 1    
   102   50   51 2    
   103   50   52 1    
   104   52   53 1    
   105   52   54 1    
   106   52  175 1    
   107   53  176 1    
   108   53  177 1    
   109   53  178 1    
   110   54   55 am   BACKBONE|DICT|INTERRES
   111   54  179 1    
   112   55   56 2    
   113   55   57 1    
   114   57   58 1    
   115   57   59 1    
   116   57  180 1    
   117   58  181 1    
   118   58  182 1    
   119   58  183 1    
   120   59   60 am   BACKBONE|DICT|INTERRES
   121   59  184 1    
   122   60   61 2    
   123   60   62 1    
   124   62   63 1    
   125   62   64 1    
   126   62  185 1    
   127   63  186 1    
   128   63  187 1    
   129   63  188 1    
   130   64   65 am   BACKBONE|DICT|INTERRES
   131   64  189 1    
   132   65   66 2    
   133   67   68 2    
   134   67   69 am   BACKBONE|DICT|INTERRES
   135   69   70 1    
   136   69  190 1    
   137   70   71 1    
   138   70   72 1    
   139   70  191 1    
   140   71  192 1    
   141   71  193 1    
   142   71  194 1    
   143   72   73 2    
   144   72   74 am   BACKBONE|DICT|INTERRES
   145   74   75 1    
   146   74  195 1    
   147   75   76 1    
   148   75   77 1    
   149   75  196 1    
   150   76  197 1    
   151   76  198 1    
   152   76  199 1    
   153   77   78 2    
   154   77   79 am   BACKBONE|DICT|INTERRES
   155   79   80 1    
   156   79  200 1    
   157   80   81 1    
   158   80   82 1    
   159   80  201 1    
   160   81  202 1    
   161   81  203 1    
   162   81  204 1    
   163   82   83 2    
   164   82   84 am   BACKBONE|DICT|INTERRES
   165   84   85 1    
   166   84  205 1    
   167   85   86 1    
   168   85   87 1    
   169   85  206 1    
   170   86  207 1    
   171   86  208 1    
   172   86  209 1    
   173   87   88 2    
   174   87   89 am   BACKBONE|DICT|INTERRES
   175   89   90 1    
   176   89  210 1    
   177   90   91 1    
   178   90   92 1    
   179   90  211 1    
   180   91  212 1    
   181   91  213 1    
   182   91  214 1    
   183   92   93 2    
   184   92   94 am   BACKBONE|DICT|INTERRES
   185   94   95 1    
   186   94  215 1    
   187   95   96 1    
   188   95   97 1    
   189   95  216 1    
   190   96  217 1    
   191   96  218 1    
   192   96  219 1    
   193   97   98 2    
   194   97   99 am   BACKBONE|DICT|INTERRES
   195   99  100 1    
   196   99  220 1    
   197  100  101 1    
   198  100  102 1    
   199  100  221 1    
   200  101  222 1    
   201  101  223 1    
   202  101  224 1    
   203  102  103 2    
   204  102  104 am   BACKBONE|DICT|INTERRES
   205  104  105 1    
   206  104  225 1    
   207  105  106 1    
   208  105  107 1    
   209  105  226 1    
   210  106  227 1    
   211  106  228 1    
   212  106  229 1    
   213  107  108 2    
   214  107  109 am   BACKBONE|DICT|INTERRES
   215  109  110 1    
   216  109  230 1    
   217  110  111 1    
   218  110  112 1    
   219  110  231 1    
   220  111  232 1    
   221  111  233 1    
   222  111  234 1    
   223  112  113 2    
   224  112  114 am   BACKBONE|DICT|INTERRES
   225  114  115 1    
   226  114  235 1    
   227  115  116 1    
   228  115  117 1    
   229  115  236 1    
   230  116  237 1    
   231  116  238 1    
   232  116  239 1    
   233  117  118 2    
   234  117  119 am   BACKBONE|DICT|INTERRES
   235  119  120 1    
   236  119  240 1    
   237  120  121 1    
   238  120  124 1    
   239  120  241 1    
   240  121  122 am   BACKBONE|DICT|INTERRES
   241  121  123 2    
   242  122  242 1    
   243  122  243 1    
   244  124  125 1    
   245  124  244 1    
   246  124  245 1    
   247  125  126 1    
   248  126  246 1    
   249  126  247 1    
@<TRIPOS>SUBSTRUCTURE
     1 UNK         1 GROUP             0       ****    0 ROOT    
