@<TRIPOS>MOLECULE
3R540
247   249    1
SMALL
USER_CHARGES


@<TRIPOS>ATOM
      1 CA         -6.0322  -14.2322  -47.9974 C.3       0 UNK        -0.1800 
      2 C          -4.5952  -14.5568  -47.6203 C.2       0 UNK         0.5000 
      3 O          -3.7048  -14.4839  -48.4655 O.2       0 UNK        -0.5000 
      4 N          -4.3616  -14.8938  -46.3466 N.am      1 UNK        -0.5000 
      5 CA         -3.0684  -15.3276  -45.7989 C.3       1 UNK         0.1400 
      6 C6         -3.1942  -15.8114  -44.3348 C.3       23 UNK        -0.0398 
      7 S7         -4.4838  -17.0815  -44.1194 S.3       23 UNK        -0.2404 
      8 C8         -3.5029  -18.6119  -44.0819 C.3       23 UNK        -0.0205 
      9 C9         -2.9098  -18.9730  -45.4381 C.ar      23 UNK        -0.0193 
     10 C10        -3.7473  -19.3493  -46.4923 C.ar      23 UNK        -0.1150 
     11 C11        -3.2124  -19.7356  -47.7250 C.ar      23 UNK        -0.0193 
     12 C12        -1.8259  -19.7300  -47.9017 C.ar      23 UNK        -0.1150 
     13 C13        -0.9770  -19.3352  -46.8648 C.ar      23 UNK        -0.0193 
     14 C14        -1.5250  -18.9698  -45.6312 C.ar      23 UNK        -0.1150 
     15 C15         0.5241  -19.2504  -47.0976 C.3       23 UNK        -0.0205 
     16 S16         1.2891  -20.8501  -47.5115 S.3       23 UNK        -0.2404 
     17 C17         1.4509  -21.5985  -45.8567 C.3       23 UNK        -0.0398 
     18 CA          0.7951  -22.9940  -45.7464 C.3       11 UNK         0.1400 
     19 N           1.1449  -23.6627  -44.4939 N.am      11 UNK        -0.5000 
     20 C           0.9121  -24.9553  -44.2235 C.2       10 UNK         0.5000 
     21 O           0.4361  -25.7531  -45.0318 O.2       10 UNK        -0.5000 
     22 CA          1.2081  -25.4083  -42.7822 C.3       10 UNK         0.1400 
     23 CB          2.6996  -25.7306  -42.6085 C.3       10 UNK        -0.1800 
     24 N           0.8091  -24.3972  -41.7998 N.am      10 UNK        -0.5000 
     25 C          -0.4621  -24.0423  -41.5626 C.2       9 UNK         0.5000 
     26 O          -1.4288  -24.5921  -42.0897 O.2       9 UNK        -0.5000 
     27 CA         -0.6882  -22.8457  -40.6177 C.3       9 UNK         0.1400 
     28 CB         -0.8108  -23.3240  -39.1636 C.3       9 UNK        -0.1800 
     29 N           0.3630  -21.8261  -40.7071 N.am      9 UNK        -0.5000 
     30 C           0.6109  -21.0796  -41.7921 C.2       8 UNK         0.5000 
     31 O          -0.0157  -21.1861  -42.8471 O.2       8 UNK        -0.5000 
     32 CA          1.8149  -20.1227  -41.6974 C.3       8 UNK         0.1400 
     33 CB          3.1085  -20.8811  -42.0358 C.3       8 UNK        -0.1800 
     34 N           1.7339  -18.9482  -42.5693 N.am      8 UNK        -0.5000 
     35 C           0.7954  -17.9956  -42.5410 C.2       7 UNK         0.5000 
     36 O          -0.1938  -18.0431  -41.8091 O.2       7 UNK        -0.5000 
     37 CA          0.9755  -16.7569  -43.4535 C.3       7 UNK         0.1400 
     38 CB          1.3554  -15.5229  -42.6144 C.3       7 UNK        -0.1800 
     39 N           1.8782  -16.8636  -44.6120 N.am      7 UNK        -0.5000 
     40 C           3.1941  -17.1242  -44.6536 C.2       6 UNK         0.5000 
     41 O           3.8532  -17.5023  -43.6858 O.2       6 UNK        -0.5000 
     42 CA          3.9076  -16.9081  -46.0040 C.3       6 UNK         0.1400 
     43 CB          4.1176  -18.2300  -46.7569 C.3       6 UNK        -0.1800 
     44 N           3.2380  -15.9447  -46.8833 N.am      6 UNK        -0.5000 
     45 C           3.1934  -14.6256  -46.6606 C.2       5 UNK         0.5000 
     46 O           3.6702  -14.0930  -45.6575 O.2       5 UNK        -0.5000 
     47 CA          2.5296  -13.7354  -47.7261 C.3       5 UNK         0.1400 
     48 CB          3.5440  -13.3279  -48.8108 C.3       5 UNK        -0.1800 
     49 N           1.2976  -14.2542  -48.3304 N.am      5 UNK        -0.5000 
     50 C           1.1047  -15.2917  -49.1572 C.2       4 UNK         0.5000 
     51 O           1.9707  -16.1260  -49.4205 O.2       4 UNK        -0.5000 
     52 CA         -0.2899  -15.4078  -49.8163 C.3       4 UNK         0.1400 
     53 CB         -1.0857  -16.5825  -49.2351 C.3       4 UNK        -0.1800 
     54 N          -1.0990  -14.1955  -49.6805 N.am      4 UNK        -0.5000 
     55 C          -0.8772  -13.0347  -50.3126 C.2       3 UNK         0.5000 
     56 O          -0.0154  -12.8761  -51.1770 O.2       3 UNK        -0.5000 
     57 CA         -1.7267  -11.8373  -49.8504 C.3       3 UNK         0.1400 
     58 CB         -3.0594  -11.7774  -50.6107 C.3       3 UNK        -0.1800 
     59 N          -1.9863  -11.8854  -48.4089 N.am      3 UNK        -0.5000 
     60 C          -1.0804  -11.5885  -47.4659 C.2       2 UNK         0.5000 
     61 O           0.0544  -11.1834  -47.7149 O.2       2 UNK        -0.5000 
     62 CA         -1.4964  -11.8115  -46.0004 C.3       2 UNK         0.1400 
     63 CB         -2.1994  -10.5648  -45.4431 C.3       2 UNK        -0.1800 
     64 N          -2.3723  -12.9716  -45.8377 N.am      2 UNK        -0.5000 
     65 C          -1.9693  -14.2490  -45.9046 C.2       1 UNK         0.5000 
     66 O          -0.7963  -14.5900  -46.0570 O.2       1 UNK        -0.5000 
     67 C          -0.7323  -22.9458  -45.9357 C.2       11 UNK         0.5000 
     68 O          -1.2028  -23.2566  -47.0264 O.2       11 UNK        -0.5000 
     69 N          -1.4728  -22.6261  -44.8655 N.am      12 UNK        -0.5000 
     70 CA         -2.9357  -22.6064  -44.8374 C.3       12 UNK         0.1400 
     71 CB         -3.4134  -22.1112  -43.4635 C.3       12 UNK        -0.1800 
     72 C          -3.5673  -23.9716  -45.1620 C.2       12 UNK         0.5000 
     73 O          -4.5463  -24.0272  -45.9065 O.2       12 UNK        -0.5000 
     74 N          -2.9875  -25.0429  -44.6050 N.am      13 UNK        -0.5000 
     75 CA         -3.4126  -26.4225  -44.8251 C.3       13 UNK         0.1400 
     76 CB         -2.7369  -27.3322  -43.7872 C.3       13 UNK        -0.1800 
     77 C          -3.1244  -26.9158  -46.2548 C.2       13 UNK         0.5000 
     78 O          -3.9969  -27.5278  -46.8724 O.2       13 UNK        -0.5000 
     79 N          -1.9060  -26.6576  -46.7474 N.am      14 UNK        -0.5000 
     80 CA         -1.4292  -27.1489  -48.0416 C.3       14 UNK         0.1400 
     81 CB          0.1014  -27.2646  -47.9810 C.3       14 UNK        -0.1800 
     82 C          -1.8420  -26.2732  -49.2401 C.2       14 UNK         0.5000 
     83 O          -1.8459  -26.7719  -50.3660 O.2       14 UNK        -0.5000 
     84 N          -2.1211  -24.9850  -48.9900 N.am      15 UNK        -0.5000 
     85 CA         -2.2264  -23.8891  -49.9637 C.3       15 UNK         0.1400 
     86 CB         -3.4447  -24.0650  -50.8927 C.3       15 UNK        -0.1800 
     87 C          -0.8961  -23.6755  -50.7196 C.2       15 UNK         0.5000 
     88 O          -0.8966  -23.4238  -51.9257 O.2       15 UNK        -0.5000 
     89 N           0.2197  -23.8109  -49.9847 N.am      16 UNK        -0.5000 
     90 CA          1.5889  -23.9250  -50.5007 C.3       16 UNK         0.1400 
     91 CB          2.5485  -24.1985  -49.3320 C.3       16 UNK        -0.1800 
     92 C           2.0836  -22.7223  -51.3240 C.2       16 UNK         0.5000 
     93 O           2.9273  -22.8994  -52.2036 O.2       16 UNK        -0.5000 
     94 N           1.5471  -21.5301  -51.0370 N.am      17 UNK        -0.5000 
     95 CA          1.8281  -20.2967  -51.7717 C.3       17 UNK         0.1400 
     96 CB          1.2677  -19.1104  -50.9764 C.3       17 UNK        -0.1800 
     97 C           1.2536  -20.2890  -53.2017 C.2       17 UNK         0.5000 
     98 O           1.7784  -19.5677  -54.0507 O.2       17 UNK        -0.5000 
     99 N           0.1808  -21.0659  -53.4317 N.am      18 UNK        -0.5000 
    100 CA        -0.5821  -21.1851  -54.6814 C.3       18 UNK         0.1400 
    101 CB         0.2597  -21.8977  -55.7599 C.3       18 UNK        -0.1800 
    102 C         -1.1804  -19.8467  -55.1744 C.2       18 UNK         0.5000 
    103 O         -1.3598  -19.6542  -56.3788 O.2       18 UNK        -0.5000 
    104 N         -1.4648  -18.9378  -54.2323 N.am      19 UNK        -0.5000 
    105 CA        -2.0174  -17.6106  -54.4843 C.3       19 UNK         0.1400 
    106 CB        -1.8335  -16.7561  -53.2191 C.3       19 UNK        -0.1800 
    107 C         -3.5037  -17.6822  -54.8675 C.2       19 UNK         0.5000 
    108 O         -4.2266  -18.5418  -54.3599 O.2       19 UNK        -0.5000 
    109 N         -3.9547  -16.7327  -55.6986 N.am      20 UNK        -0.5000 
    110 CA        -5.3605  -16.5770  -56.0941 C.3       20 UNK         0.1400 
    111 CB        -5.4665  -15.4873  -57.1713 C.3       20 UNK        -0.1800 
    112 C         -6.2891  -16.2566  -54.9053 C.2       20 UNK         0.5000 
    113 O         -7.4546  -16.6548  -54.9115 O.2       20 UNK        -0.5000 
    114 N         -5.7314  -15.5961  -53.8805 N.am      21 UNK        -0.5000 
    115 CA        -6.3730  -15.2945  -52.6004 C.3       21 UNK         0.1400 
    116 CB        -5.4293  -14.3994  -51.7846 C.3       21 UNK        -0.1800 
    117 C         -6.7703  -16.5457  -51.7882 C.2       21 UNK         0.5000 
    118 O         -7.6734  -16.4565  -50.9557 O.2       21 UNK        -0.5000 
    119 N         -6.1161  -17.6842  -52.0557 N.am      22 UNK        -0.5000 
    120 CA        -6.4599  -19.0005  -51.4968 C.3       22 UNK         0.1400 
    121 C         -7.6418  -19.7039  -52.2302 C.2       22 UNK         0.5000 
    122 N         -8.1807  -19.1676  -53.3204 N.am      22 UNK        -0.7600 
    123 O         -8.0929  -20.7581  -51.7909 O.2       22 UNK        -0.5000 
    124 C124       -5.2231  -19.9330  -51.4116 C.3       23 UNK        -0.0398 
    125 S125       -3.8883  -19.2351  -50.3807 S.3       23 UNK        -0.2404 
    126 C126       -4.1323  -20.1893  -48.8491 C.3       23 UNK        -0.0205 
    127 H127       -6.0800  -13.2664  -48.5003 H         1 UNK         0.0600 
    128 H128       -6.6811  -14.1917  -47.1223 H         1 UNK         0.0600 
    129 H129       -6.4205  -14.9939  -48.6733 H         1 UNK         0.0600 
    130 H130       -5.1382  -14.9496  -45.7028 H         1 UNK         0.3000 
    131 H131       -2.7398  -16.1751  -46.4033 H         1 UNK         0.0600 
    132 H132       -3.4426  -14.9764  -43.6771 H         1 UNK         0.0800 
    133 H133       -2.2453  -16.2065  -43.9735 H         1 UNK         0.0800 
    134 H134       -2.7268  -18.5372  -43.3179 H         1 UNK         0.0800 
    135 H135       -4.1680  -19.4141  -43.7654 H         1 UNK         0.0800 
    136 H136       -4.8176  -19.3583  -46.3415 H         1 UNK         0.1150 
    137 H137       -1.4065  -20.0213  -48.8540 H         1 UNK         0.1150 
    138 H138       -0.8745  -18.6846  -44.8191 H         1 UNK         0.1150 
    139 H139        0.7181  -18.5507  -47.9087 H         1 UNK         0.0800 
    140 H140        1.0223  -18.8372  -46.2228 H         1 UNK         0.0800 
    141 H141        1.0486  -20.9194  -45.1062 H         1 UNK         0.0800 
    142 H142        2.5180  -21.6773  -45.6453 H         1 UNK         0.0800 
    143 H143        1.1976  -23.6112  -46.5523 H         1 UNK         0.0600 
    144 H144        1.4804  -23.0723  -43.7488 H         1 UNK         0.3000 
    145 H145        0.6350  -26.3184  -42.5925 H         1 UNK         0.0600 
    146 H146        2.9051  -26.1172  -41.6102 H         1 UNK         0.0600 
    147 H147        3.0192  -26.4910  -43.3224 H         1 UNK         0.0600 
    148 H148        3.3254  -24.8508  -42.7635 H         1 UNK         0.0600 
    149 H149        1.5468  -23.9112  -41.3123 H         1 UNK         0.3000 
    150 H150       -1.6322  -22.3764  -40.9014 H         1 UNK         0.0600 
    151 H151        0.1145  -23.7796  -38.8089 H         1 UNK         0.0600 
    152 H152       -1.6026  -24.0678  -39.0632 H         1 UNK         0.0600 
    153 H153       -1.0569  -22.4981  -38.4960 H         1 UNK         0.0600 
    154 H154        0.9289  -21.6936  -39.8811 H         1 UNK         0.3000 
    155 H155        1.8801  -19.7595  -40.6699 H         1 UNK         0.0600 
    156 H156        3.1091  -21.2339  -43.0678 H         1 UNK         0.0600 
    157 H157        3.2415  -21.7499  -41.3899 H         1 UNK         0.0600 
    158 H158        3.9836  -20.2446  -41.9019 H         1 UNK         0.0600 
    159 H159        2.5498  -18.7554  -43.1404 H         1 UNK         0.3000 
    160 H160       -0.0057  -16.5624  -43.8839 H         1 UNK         0.0600 
    161 H161        2.3406  -15.6327  -42.1599 H         1 UNK         0.0600 
    162 H162        0.6391  -15.3579  -41.8085 H         1 UNK         0.0600 
    163 H163        1.3671  -14.6207  -43.2265 H         1 UNK         0.0600 
    164 H164        1.4666  -16.5580  -45.4828 H         1 UNK         0.3000 
    165 H165        4.8967  -16.5102  -45.7670 H         1 UNK         0.0600 
    166 H166        4.8358  -18.1044  -47.5672 H         1 UNK         0.0600 
    167 H167        4.5059  -19.0079  -46.0980 H         1 UNK         0.0600 
    168 H168        3.1942  -18.5980  -47.1967 H         1 UNK         0.0600 
    169 H169        2.8485  -16.2864  -47.7584 H         1 UNK         0.3000 
    170 H170        2.2281  -12.8228  -47.2100 H         1 UNK         0.0600 
    171 H171        4.4156  -12.8449  -48.3675 H         1 UNK         0.0600 
    172 H172        3.9015  -14.1881  -49.3776 H         1 UNK         0.0600 
    173 H173        3.1035  -12.6214  -49.5146 H         1 UNK         0.0600 
    174 H174        0.4794  -13.6957  -48.1330 H         1 UNK         0.3000 
    175 H175       -0.1333  -15.5921  -50.8802 H         1 UNK         0.0600 
    176 H176       -1.1691  -16.5164  -48.1507 H         1 UNK         0.0600 
    177 H177       -2.0944  -16.6262  -49.6470 H         1 UNK         0.0600 
    178 H178       -0.6056  -17.5282  -49.4726 H         1 UNK         0.0600 
    179 H179       -1.8975  -14.2551  -49.0540 H         1 UNK         0.3000 
    180 H180       -1.1685  -10.9259  -50.0754 H         1 UNK         0.0600 
    181 H181       -3.6853  -12.6416  -50.3922 H         1 UNK         0.0600 
    182 H182       -2.8950  -11.7540  -51.6887 H         1 UNK         0.0600 
    183 H183       -3.6228  -10.8823  -50.3474 H         1 UNK         0.0600 
    184 H184       -2.8765  -12.2692  -48.1256 H         1 UNK         0.3000 
    185 H185       -0.5879  -11.9794  -45.4175 H         1 UNK         0.0600 
    186 H186       -1.5608   -9.6848  -45.5315 H         1 UNK         0.0600 
    187 H187       -3.1273  -10.3519  -45.9754 H         1 UNK         0.0600 
    188 H188       -2.4384  -10.6865  -44.3865 H         1 UNK         0.0600 
    189 H189       -3.3565  -12.7866  -45.7089 H         1 UNK         0.3000 
    190 H190       -0.9960  -22.3125  -44.0251 H         1 UNK         0.3000 
    191 H191       -3.2629  -21.8987  -45.5988 H         1 UNK         0.0600 
    192 H192       -2.8558  -21.2336  -43.1387 H         1 UNK         0.0600 
    193 H193       -4.4699  -21.8443  -43.4968 H         1 UNK         0.0600 
    194 H194       -3.2996  -22.8726  -42.6929 H         1 UNK         0.0600 
    195 H195       -2.2245  -24.8960  -43.9524 H         1 UNK         0.3000 
    196 H196       -4.4918  -26.4734  -44.6660 H         1 UNK         0.0600 
    197 H197       -3.0457  -28.3703  -43.9164 H         1 UNK         0.0600 
    198 H198       -3.0040  -27.0367  -42.7724 H         1 UNK         0.0600 
    199 H199       -1.6497  -27.2991  -43.8676 H         1 UNK         0.0600 
    200 H200       -1.2293  -26.1757  -46.1639 H         1 UNK         0.3000 
    201 H201       -1.8326  -28.1490  -48.2143 H         1 UNK         0.0600 
    202 H202        0.5107  -27.6195  -48.9278 H         1 UNK         0.0600 
    203 H203        0.4125  -27.9671  -47.2076 H         1 UNK         0.0600 
    204 H204        0.5632  -26.3025  -47.7602 H         1 UNK         0.0600 
    205 H205       -2.0422  -24.6661  -48.0286 H         1 UNK         0.3000 
    206 H206       -2.3890  -22.9806  -49.3841 H         1 UNK         0.0600 
    207 H207       -4.3584  -24.2152  -50.3179 H         1 UNK         0.0600 
    208 H208       -3.5922  -23.1783  -51.5104 H         1 UNK         0.0600 
    209 H209       -3.3261  -24.9145  -51.5654 H         1 UNK         0.0600 
    210 H210        0.0995  -23.9611  -48.9930 H         1 UNK         0.3000 
    211 H211        1.6076  -24.7928  -51.1631 H         1 UNK         0.0600 
    212 H212        2.5508  -23.3797  -48.6127 H         1 UNK         0.0600 
    213 H213        3.5722  -24.3204  -49.6884 H         1 UNK         0.0600 
    214 H214        2.2841  -25.1132  -48.8034 H         1 UNK         0.0600 
    215 H215        0.8859  -21.4735  -50.2762 H         1 UNK         0.3000 
    216 H216        2.9110  -20.1793  -51.8486 H         1 UNK         0.0600 
    217 H217        1.4233  -18.1688  -51.5051 H         1 UNK         0.0600 
    218 H218        1.7615  -19.0189  -50.0096 H         1 UNK         0.0600 
    219 H219        0.1967  -19.2198  -50.8051 H         1 UNK         0.0600 
    220 H220       -0.1410  -21.6688  -52.6815 H         1 UNK         0.3000 
    221 H221       -1.4338  -21.8273  -54.4526 H         1 UNK         0.0600 
    222 H222        1.1017  -21.2862  -56.0853 H         1 UNK         0.0600 
    223 H223        0.6556  -22.8429  -55.3879 H         1 UNK         0.0600 
    224 H224       -0.3411  -22.1239  -56.6415 H         1 UNK         0.0600 
    225 H225       -1.3263  -19.1933  -53.2667 H         1 UNK         0.3000 
    226 H226       -1.4595  -17.1519  -55.3034 H         1 UNK         0.0600 
    227 H227       -0.7805  -16.6849  -52.9466 H         1 UNK         0.0600 
    228 H228       -2.1974  -15.7394  -53.3717 H         1 UNK         0.0600 
    229 H229       -2.3726  -17.1728  -52.3667 H         1 UNK         0.0600 
    230 H230       -3.3045  -16.0574  -56.0746 H         1 UNK         0.3000 
    231 H231       -5.6947  -17.5223  -56.5268 H         1 UNK         0.0600 
    232 H232       -5.1230  -14.5202  -56.8019 H         1 UNK         0.0600 
    233 H233       -6.4988  -15.3646  -57.5018 H         1 UNK         0.0600 
    234 H234       -4.8738  -15.7419  -58.0501 H         1 UNK         0.0600 
    235 H235       -4.7673  -15.3145  -53.9733 H         1 UNK         0.3000 
    236 H236       -7.2860  -14.7339  -52.8109 H         1 UNK         0.0600 
    237 H237       -5.1464  -13.5075  -52.3438 H         1 UNK         0.0600 
    238 H238       -5.9123  -14.0619  -50.8686 H         1 UNK         0.0600 
    239 H239       -4.5160  -14.9250  -51.5008 H         1 UNK         0.0600 
    240 H240       -5.4019  -17.6916  -52.7732 H         1 UNK         0.3000 
    241 H241       -6.8086  -18.8464  -50.4739 H         1 UNK         0.0600 
    242 H242       -7.8384  -18.2957  -53.7063 H         1 UNK         0.3800 
    243 H243       -8.9481  -19.6399  -53.7713 H         1 UNK         0.3800 
    244 H244       -5.5023  -20.9093  -51.0115 H         1 UNK         0.0800 
    245 H245       -4.8218  -20.1283  -52.4062 H         1 UNK         0.0800 
    246 H246       -5.1765  -20.1006  -48.5449 H         1 UNK         0.0800 
    247 H247       -3.9555  -21.2465  -49.0462 H         1 UNK         0.0800 
@<TRIPOS>BOND
     1    1    2 1    
     2    1  127 1    
     3    1  128 1    
     4    1  129 1    
     5    2    3 2    
     6    2    4 am   BACKBONE|DICT|INTERRES
     7    4    5 1    
     8    4  130 1    
     9    5    6 1    
    10    5   65 1    
    11    5  131 1    
    12    6    7 1    
    13    6  132 1    
    14    6  133 1    
    15    7    8 1    
    16    8    9 1    
    17    8  134 1    
    18    8  135 1    
    19    9   10 ar   
    20    9   14 ar   
    21   10   11 ar   
    22   10  136 1    
    23   11   12 ar   
    24   11  126 1    
    25   12   13 ar   
    26   12  137 1    
    27   13   14 ar   
    28   13   15 1    
    29   14  138 1    
    30   15   16 1    
    31   15  139 1    
    32   15  140 1    
    33   16   17 1    
    34   17   18 1    
    35   17  141 1    
    36   17  142 1    
    37   18   19 1    
    38   18   67 1    
    39   18  143 1    
    40   19   20 am   BACKBONE|DICT|INTERRES
    41   19  144 1    
    42   20   21 2    
    43   20   22 1    
    44   22   23 1    
    45   22   24 1    
    46   22  145 1    
    47   23  146 1    
    48   23  147 1    
    49   23  148 1    
    50   24   25 am   BACKBONE|DICT|INTERRES
    51   24  149 1    
    52   25   26 2    
    53   25   27 1    
    54   27   28 1    
    55   27   29 1    
    56   27  150 1    
    57   28  151 1    
    58   28  152 1    
    59   28  153 1    
    60   29   30 am   BACKBONE|DICT|INTERRES
    61   29  154 1    
    62   30   31 2    
    63   30   32 1    
    64   32   33 1    
    65   32   34 1    
    66   32  155 1    
    67   33  156 1    
    68   33  157 1    
    69   33  158 1    
    70   34   35 am   BACKBONE|DICT|INTERRES
    71   34  159 1    
    72   35   36 2    
    73   35   37 1    
    74   37   38 1    
    75   37   39 1    
    76   37  160 1    
    77   38  161 1    
    78   38  162 1    
    79   38  163 1    
    80   39   40 am   BACKBONE|DICT|INTERRES
    81   39  164 1    
    82   40   41 2    
    83   40   42 1    
    84   42   43 1    
    85   42   44 1    
    86   42  165 1    
    87   43  166 1    
    88   43  167 1    
    89   43  168 1    
    90   44   45 am   BACKBONE|DICT|INTERRES
    91   44  169 1    
    92   45   46 2    
    93   45   47 1    
    94   47   48 1    
    95   47   49 1    
    96   47  170 1    
    97   48  171 1    
    98   48  172 1    
    99   48  173 1    
   100   49   50 am   BACKBONE|DICT|INTERRES
   101   49  174 1    
   102   50   51 2    
   103   50   52 1    
   104   52   53 1    
   105   52   54 1    
   106   52  175 1    
   107   53  176 1    
   108   53  177 1    
   109   53  178 1    
   110   54   55 am   BACKBONE|DICT|INTERRES
   111   54  179 1    
   112   55   56 2    
   113   55   57 1    
   114   57   58 1    
   115   57   59 1    
   116   57  180 1    
   117   58  181 1    
   118   58  182 1    
   119   58  183 1    
   120   59   60 am   BACKBONE|DICT|INTERRES
   121   59  184 1    
   122   60   61 2    
   123   60   62 1    
   124   62   63 1    
   125   62   64 1    
   126   62  185 1    
   127   63  186 1    
   128   63  187 1    
   129   63  188 1    
   130   64   65 am   BACKBONE|DICT|INTERRES
   131   64  189 1    
   132   65   66 2    
   133   67   68 2    
   134   67   69 am   BACKBONE|DICT|INTERRES
   135   69   70 1    
   136   69  190 1    
   137   70   71 1    
   138   70   72 1    
   139   70  191 1    
   140   71  192 1    
   141   71  193 1    
   142   71  194 1    
   143   72   73 2    
   144   72   74 am   BACKBONE|DICT|INTERRES
   145   74   75 1    
   146   74  195 1    
   147   75   76 1    
   148   75   77 1    
   149   75  196 1    
   150   76  197 1    
   151   76  198 1    
   152   76  199 1    
   153   77   78 2    
   154   77   79 am   BACKBONE|DICT|INTERRES
   155   79   80 1    
   156   79  200 1    
   157   80   81 1    
   158   80   82 1    
   159   80  201 1    
   160   81  202 1    
   161   81  203 1    
   162   81  204 1    
   163   82   83 2    
   164   82   84 am   BACKBONE|DICT|INTERRES
   165   84   85 1    
   166   84  205 1    
   167   85   86 1    
   168   85   87 1    
   169   85  206 1    
   170   86  207 1    
   171   86  208 1    
   172   86  209 1    
   173   87   88 2    
   174   87   89 am   BACKBONE|DICT|INTERRES
   175   89   90 1    
   176   89  210 1    
   177   90   91 1    
   178   90   92 1    
   179   90  211 1    
   180   91  212 1    
   181   91  213 1    
   182   91  214 1    
   183   92   93 2    
   184   92   94 am   BACKBONE|DICT|INTERRES
   185   94   95 1    
   186   94  215 1    
   187   95   96 1    
   188   95   97 1    
   189   95  216 1    
   190   96  217 1    
   191   96  218 1    
   192   96  219 1    
   193   97   98 2    
   194   97   99 am   BACKBONE|DICT|INTERRES
   195   99  100 1    
   196   99  220 1    
   197  100  101 1    
   198  100  102 1    
   199  100  221 1    
   200  101  222 1    
   201  101  223 1    
   202  101  224 1    
   203  102  103 2    
   204  102  104 am   BACKBONE|DICT|INTERRES
   205  104  105 1    
   206  104  225 1    
   207  105  106 1    
   208  105  107 1    
   209  105  226 1    
   210  106  227 1    
   211  106  228 1    
   212  106  229 1    
   213  107  108 2    
   214  107  109 am   BACKBONE|DICT|INTERRES
   215  109  110 1    
   216  109  230 1    
   217  110  111 1    
   218  110  112 1    
   219  110  231 1    
   220  111  232 1    
   221  111  233 1    
   222  111  234 1    
   223  112  113 2    
   224  112  114 am   BACKBONE|DICT|INTERRES
   225  114  115 1    
   226  114  235 1    
   227  115  116 1    
   228  115  117 1    
   229  115  236 1    
   230  116  237 1    
   231  116  238 1    
   232  116  239 1    
   233  117  118 2    
   234  117  119 am   BACKBONE|DICT|INTERRES
   235  119  120 1    
   236  119  240 1    
   237  120  121 1    
   238  120  124 1    
   239  120  241 1    
   240  121  122 am   BACKBONE|DICT|INTERRES
   241  121  123 2    
   242  122  242 1    
   243  122  243 1    
   244  124  125 1    
   245  124  244 1    
   246  124  245 1    
   247  125  126 1    
   248  126  246 1    
   249  126  247 1    
@<TRIPOS>SUBSTRUCTURE
     1 UNK         1 GROUP             0       ****    0 ROOT    
