@<TRIPOS>MOLECULE
3R540
247   249    1
SMALL
USER_CHARGES


@<TRIPOS>ATOM
      1 CA         -1.1653  -14.9677  -50.3206 C.3       0 UNK        -0.1800 
      2 C           0.2672  -14.8689  -49.8177 C.2       0 UNK         0.5000 
      3 O           1.0552  -14.0989  -50.3666 O.2       0 UNK        -0.5000 
      4 N           0.6026  -15.6357  -48.7715 N.am      1 UNK        -0.5000 
      5 CA          1.9224  -15.6455  -48.1237 C.3       1 UNK         0.1400 
      6 C6          2.0959  -16.8747  -47.2003 C.3       23 UNK        -0.0398 
      7 S7          2.4160  -18.3869  -48.1657 S.3       23 UNK        -0.2404 
      8 C8          1.0220  -19.4598  -47.7011 C.3       23 UNK        -0.0205 
      9 C9         -0.3121  -19.0277  -48.2949 C.ar      23 UNK        -0.0193 
     10 C10        -0.4540  -18.8367  -49.6726 C.ar      23 UNK        -0.1150 
     11 C11        -1.7000  -18.5249  -50.2232 C.ar      23 UNK        -0.0193 
     12 C12        -2.8170  -18.4435  -49.3868 C.ar      23 UNK        -0.1150 
     13 C13        -2.6989  -18.6497  -48.0080 C.ar      23 UNK        -0.0193 
     14 C14        -1.4307  -18.8981  -47.4678 C.ar      23 UNK        -0.1150 
     15 C15        -3.9650  -18.5910  -47.1501 C.3       23 UNK        -0.0205 
     16 S16        -3.8656  -19.3724  -45.4974 S.3       23 UNK        -0.2404 
     17 C17        -3.6535  -21.1496  -45.8698 C.3       23 UNK        -0.0398 
     18 CA         -2.2972  -21.7176  -45.3648 C.3       11 UNK         0.1400 
     19 N          -2.0125  -21.4494  -43.9488 N.am      11 UNK        -0.5000 
     20 C          -2.6650  -21.9373  -42.8849 C.2       10 UNK         0.5000 
     21 O          -3.6733  -22.6399  -42.9558 O.2       10 UNK        -0.5000 
     22 CA         -2.0509  -21.6254  -41.5119 C.3       10 UNK         0.1400 
     23 CB         -0.7870  -22.4728  -41.2866 C.3       10 UNK        -0.1800 
     24 N          -1.7032  -20.2127  -41.3736 N.am      10 UNK        -0.5000 
     25 C          -2.4900  -19.2930  -40.8003 C.2       9 UNK         0.5000 
     26 O          -3.6190  -19.5301  -40.3683 O.2       9 UNK        -0.5000 
     27 CA         -1.9121  -17.8723  -40.6537 C.3       9 UNK         0.1400 
     28 CB         -1.2398  -17.7125  -39.2814 C.3       9 UNK        -0.1800 
     29 N          -0.9486  -17.5354  -41.7020 N.am      9 UNK        -0.5000 
     30 C          -1.2885  -17.2471  -42.9648 C.2       8 UNK         0.5000 
     31 O          -2.4533  -17.1610  -43.3497 O.2       8 UNK        -0.5000 
     32 CA         -0.1463  -17.0106  -43.9700 C.3       8 UNK         0.1400 
     33 CB          0.1813  -15.5134  -44.0615 C.3       8 UNK        -0.1800 
     34 N           1.0814  -17.7554  -43.6757 N.am      8 UNK        -0.5000 
     35 C           1.1971  -19.0911  -43.6900 C.2       7 UNK         0.5000 
     36 O           0.2584  -19.8572  -43.9020 O.2       7 UNK        -0.5000 
     37 CA          2.5884  -19.6728  -43.3983 C.3       7 UNK         0.1400 
     38 CB          3.4884  -19.6049  -44.6413 C.3       7 UNK        -0.1800 
     39 N           3.2261  -18.9666  -42.2916 N.am      7 UNK        -0.5000 
     40 C           3.0110  -19.2478  -40.9994 C.2       6 UNK         0.5000 
     41 O           2.3101  -20.1818  -40.6085 O.2       6 UNK        -0.5000 
     42 CA          3.6697  -18.3110  -39.9685 C.3       6 UNK         0.1400 
     43 CB          5.0804  -18.8044  -39.6139 C.3       6 UNK        -0.1800 
     44 N           3.7451  -16.9197  -40.4196 N.am      6 UNK        -0.5000 
     45 C           2.6801  -16.1427  -40.6595 C.2       5 UNK         0.5000 
     46 O           1.5166  -16.5147  -40.5169 O.2       5 UNK        -0.5000 
     47 CA          2.9584  -14.7253  -41.1862 C.3       5 UNK         0.1400 
     48 CB          3.1765  -13.7513  -40.0193 C.3       5 UNK        -0.1800 
     49 N           4.0894  -14.6257  -42.1106 N.am      5 UNK        -0.5000 
     50 C           4.2556  -15.3124  -43.2491 C.2       4 UNK         0.5000 
     51 O           3.5288  -16.2415  -43.6076 O.2       4 UNK        -0.5000 
     52 CA          5.4039  -14.8225  -44.1520 C.3       4 UNK         0.1400 
     53 CB          5.7479  -15.8079  -45.2813 C.3       4 UNK        -0.1800 
     54 N           5.0485  -13.5251  -44.7276 N.am      4 UNK        -0.5000 
     55 C           5.1382  -12.3566  -44.0753 C.2       3 UNK         0.5000 
     56 O           5.6708  -12.2393  -42.9701 O.2       3 UNK        -0.5000 
     57 CA          4.4934  -11.1204  -44.7306 C.3       3 UNK         0.1400 
     58 CB          5.5468  -10.3096  -45.5004 C.3       3 UNK        -0.1800 
     59 N           3.3817  -11.4314  -45.6307 N.am      3 UNK        -0.5000 
     60 C           2.2205  -12.0077  -45.2858 C.2       2 UNK         0.5000 
     61 O           1.9381  -12.3534  -44.1382 O.2       2 UNK        -0.5000 
     62 CA          1.1966  -12.2337  -46.4192 C.3       2 UNK         0.1400 
     63 CB          1.3422  -11.2273  -47.5814 C.3       2 UNK        -0.1800 
     64 N           1.1917  -13.5992  -46.9562 N.am      2 UNK        -0.5000 
     65 C           2.2385  -14.3278  -47.3789 C.2       1 UNK         0.5000 
     66 O           3.4158  -13.9918  -47.2407 O.2       1 UNK        -0.5000 
     67 C          -2.0795  -23.2022  -45.7451 C.2       11 UNK         0.5000 
     68 O          -2.6272  -23.6703  -46.7420 O.2       11 UNK        -0.5000 
     69 N          -1.2469  -23.9140  -44.9705 N.am      12 UNK        -0.5000 
     70 CA         -0.8662  -25.3080  -45.2126 C.3       12 UNK         0.1400 
     71 CB         -0.3054  -25.9040  -43.9124 C.3       12 UNK        -0.1800 
     72 C           0.1555  -25.4460  -46.3577 C.2       12 UNK         0.5000 
     73 O           0.1639  -26.4627  -47.0513 O.2       12 UNK        -0.5000 
     74 N           0.9836  -24.4090  -46.5408 N.am      13 UNK        -0.5000 
     75 CA          1.9852  -24.2970  -47.6039 C.3       13 UNK         0.1400 
     76 CB          3.1578  -23.4575  -47.0674 C.3       13 UNK        -0.1800 
     77 C           1.4196  -23.6691  -48.8956 C.2       13 UNK         0.5000 
     78 O           2.1614  -23.5156  -49.8670 O.2       13 UNK        -0.5000 
     79 N           0.1400  -23.2752  -48.8760 N.am      14 UNK        -0.5000 
     80 CA         -0.5432  -22.5832  -49.9631 C.3       14 UNK         0.1400 
     81 CB         -1.8677  -22.0327  -49.4254 C.3       14 UNK        -0.1800 
     82 C          -0.8307  -23.4905  -51.1690 C.2       14 UNK         0.5000 
     83 O          -0.9938  -24.7039  -51.0181 O.2       14 UNK        -0.5000 
     84 N          -0.9862  -22.8596  -52.3364 N.am      15 UNK        -0.5000 
     85 CA         -1.4726  -23.4757  -53.5663 C.3       15 UNK         0.1400 
     86 CB         -0.8738  -22.7210  -54.7651 C.3       15 UNK        -0.1800 
     87 C          -3.0131  -23.4674  -53.5668 C.2       15 UNK         0.5000 
     88 O          -3.6224  -22.6770  -54.2842 O.2       15 UNK        -0.5000 
     89 N          -3.5960  -24.3273  -52.7195 N.am      16 UNK        -0.5000 
     90 CA         -5.0302  -24.5740  -52.5079 C.3       16 UNK         0.1400 
     91 CB         -5.7554  -24.9350  -53.8206 C.3       16 UNK        -0.1800 
     92 C          -5.7748  -23.5009  -51.6818 C.2       16 UNK         0.5000 
     93 O          -6.9957  -23.5941  -51.5475 O.2       16 UNK        -0.5000 
     94 N          -5.0345  -22.5533  -51.0861 N.am      17 UNK        -0.5000 
     95 CA         -5.4137  -21.5930  -50.0322 C.3       17 UNK         0.1400 
     96 CB         -5.8044  -22.3343  -48.7399 C.3       17 UNK        -0.1800 
     97 C          -6.4782  -20.5345  -50.3852 C.2       17 UNK         0.5000 
     98 O          -6.3028  -19.3719  -50.0220 O.2       17 UNK        -0.5000 
     99 N          -7.5535  -20.9377  -51.0620 N.am      18 UNK        -0.5000 
    100 CA        -8.6828  -20.0934  -51.4562 C.3       18 UNK         0.1400 
    101 CB        -9.7404  -20.0926  -50.3364 C.3       18 UNK        -0.1800 
    102 C         -9.2547  -20.5389  -52.8146 C.2       18 UNK         0.5000 
    103 O        -10.4203  -20.2764  -53.1158 O.2       18 UNK        -0.5000 
    104 N         -8.4219  -21.2136  -53.6088 N.am      19 UNK        -0.5000 
    105 CA        -8.6917  -21.7142  -54.9471 C.3       19 UNK         0.1400 
    106 CB        -9.3415  -23.1063  -54.8530 C.3       19 UNK        -0.1800 
    107 C         -7.3518  -21.7616  -55.6935 C.2       19 UNK         0.5000 
    108 O         -6.3062  -21.5496  -55.0736 O.2       19 UNK        -0.5000 
    109 N         -7.4037  -22.0349  -57.0041 N.am      20 UNK        -0.5000 
    110 CA        -6.2582  -22.1137  -57.9177 C.3       20 UNK         0.1400 
    111 CB        -5.4210  -23.3799  -57.6227 C.3       20 UNK        -0.1800 
    112 C         -5.4439  -20.8005  -57.9213 C.2       20 UNK         0.5000 
    113 O         -6.0387  -19.7273  -58.0496 O.2       20 UNK        -0.5000 
    114 N         -4.1171  -20.8896  -57.7585 N.am      21 UNK        -0.5000 
    115 CA        -3.2050  -19.7449  -57.6971 C.3       21 UNK         0.1400 
    116 CB        -1.7562  -20.2494  -57.7600 C.3       21 UNK        -0.1800 
    117 C         -3.4214  -18.8393  -56.4670 C.2       21 UNK         0.5000 
    118 O         -3.1002  -17.6522  -56.5379 O.2       21 UNK        -0.5000 
    119 N         -3.9824  -19.3948  -55.3853 N.am      22 UNK        -0.5000 
    120 CA        -4.4076  -18.6523  -54.1883 C.3       22 UNK         0.1400 
    121 C         -5.8853  -18.1585  -54.2570 C.2       22 UNK         0.5000 
    122 N         -6.5999  -18.3085  -55.3671 N.am      22 UNK        -0.7600 
    123 O         -6.3938  -17.5989  -53.2903 O.2       22 UNK        -0.5000 
    124 C124       -4.1155  -19.4427  -52.8870 C.3       23 UNK        -0.0398 
    125 S125       -2.3319  -19.7468  -52.6403 S.3       23 UNK        -0.2404 
    126 C126       -1.8280  -18.2623  -51.7165 C.3       23 UNK        -0.0205 
    127 H127       -1.7667  -15.6357  -49.7042 H         1 UNK         0.0600 
    128 H128       -1.1779  -15.3385  -51.3450 H         1 UNK         0.0600 
    129 H129       -1.6349  -13.9842  -50.3085 H         1 UNK         0.0600 
    130 H130       -0.0757  -16.2858  -48.4006 H         1 UNK         0.3000 
    131 H131        2.6708  -15.7136  -48.9166 H         1 UNK         0.0600 
    132 H132        1.2206  -17.0098  -46.5668 H         1 UNK         0.0800 
    133 H133        2.9379  -16.7499  -46.5203 H         1 UNK         0.0800 
    134 H134        0.9640  -19.5200  -46.6147 H         1 UNK         0.0800 
    135 H135        1.2370  -20.4708  -48.0491 H         1 UNK         0.0800 
    136 H136        0.4084  -18.9335  -50.3170 H         1 UNK         0.1150 
    137 H137       -3.7858  -18.2217  -49.8119 H         1 UNK         0.1150 
    138 H138       -1.3136  -19.0331  -46.4036 H         1 UNK         0.1150 
    139 H139       -4.2299  -17.5422  -47.0122 H         1 UNK         0.0800 
    140 H140       -4.7947  -19.0476  -47.6917 H         1 UNK         0.0800 
    141 H141       -3.7412  -21.2880  -46.9476 H         1 UNK         0.0800 
    142 H142       -4.4861  -21.6947  -45.4233 H         1 UNK         0.0800 
    143 H143       -1.5089  -21.1983  -45.9065 H         1 UNK         0.0600 
    144 H144       -1.2000  -20.8548  -43.7922 H         1 UNK         0.3000 
    145 H145       -2.7787  -21.9077  -40.7480 H         1 UNK         0.0600 
    146 H146       -0.3919  -22.3252  -40.2813 H         1 UNK         0.0600 
    147 H147       -1.0021  -23.5365  -41.3977 H         1 UNK         0.0600 
    148 H148        0.0053  -22.2193  -41.9924 H         1 UNK         0.0600 
    149 H149       -0.8082  -19.9213  -41.7405 H         1 UNK         0.3000 
    150 H150       -2.7452  -17.1682  -40.7058 H         1 UNK         0.0600 
    151 H151       -1.9307  -17.9588  -38.4741 H         1 UNK         0.0600 
    152 H152       -0.9092  -16.6859  -39.1229 H         1 UNK         0.0600 
    153 H153       -0.3699  -18.3634  -39.1821 H         1 UNK         0.0600 
    154 H154        0.0273  -17.4776  -41.4277 H         1 UNK         0.3000 
    155 H155       -0.5022  -17.3409  -44.9469 H         1 UNK         0.0600 
    156 H156        0.3968  -15.0927  -43.0805 H         1 UNK         0.0600 
    157 H157       -0.6588  -14.9553  -44.4760 H         1 UNK         0.0600 
    158 H158        1.0456  -15.3272  -44.6975 H         1 UNK         0.0600 
    159 H159        1.9187  -17.2012  -43.5148 H         1 UNK         0.3000 
    160 H160        2.4648  -20.7254  -43.1340 H         1 UNK         0.0600 
    161 H161        3.6394  -18.5803  -44.9816 H         1 UNK         0.0600 
    162 H162        3.0543  -20.1660  -45.4690 H         1 UNK         0.0600 
    163 H163        4.4690  -20.0359  -44.4397 H         1 UNK         0.0600 
    164 H164        3.7571  -18.1389  -42.5298 H         1 UNK         0.3000 
    165 H165        3.0599  -18.3373  -39.0629 H         1 UNK         0.0600 
    166 H166        5.5247  -18.1964  -38.8258 H         1 UNK         0.0600 
    167 H167        5.0546  -19.8336  -39.2532 H         1 UNK         0.0600 
    168 H168        5.7462  -18.7756  -40.4774 H         1 UNK         0.0600 
    169 H169        4.6656  -16.5348  -40.5727 H         1 UNK         0.3000 
    170 H170        2.0731  -14.3970  -41.7310 H         1 UNK         0.0600 
    171 H171        2.3377  -13.7812  -39.3224 H         1 UNK         0.0600 
    172 H172        4.0802  -13.9915  -39.4578 H         1 UNK         0.0600 
    173 H173        3.2650  -12.7245  -40.3751 H         1 UNK         0.0600 
    174 H174        4.7214  -13.8495  -41.9523 H         1 UNK         0.3000 
    175 H175        6.2942  -14.7169  -43.5284 H         1 UNK         0.0600 
    176 H176        4.9383  -15.8978  -46.0024 H         1 UNK         0.0600 
    177 H177        6.6365  -15.4845  -45.8234 H         1 UNK         0.0600 
    178 H178        5.9517  -16.8040  -44.8863 H         1 UNK         0.0600 
    179 H179        4.5504  -13.5482  -45.6126 H         1 UNK         0.3000 
    180 H180        4.1006  -10.4951  -43.9263 H         1 UNK         0.0600 
    181 H181        5.9557  -10.8757  -46.3383 H         1 UNK         0.0600 
    182 H182        6.3799  -10.0350  -44.8518 H         1 UNK         0.0600 
    183 H183        5.1243   -9.3845  -45.8930 H         1 UNK         0.0600 
    184 H184        3.5285  -11.2221  -46.6073 H         1 UNK         0.3000 
    185 H185        0.2138  -12.0749  -45.9726 H         1 UNK         0.0600 
    186 H186        1.3531  -10.1993  -47.2164 H         1 UNK         0.0600 
    187 H187        2.2548  -11.3893  -48.1561 H         1 UNK         0.0600 
    188 H188        0.5042  -11.3124  -48.2735 H         1 UNK         0.0600 
    189 H189        0.2745  -13.9920  -47.1100 H         1 UNK         0.3000 
    190 H190       -0.8435  -23.4643  -44.1626 H         1 UNK         0.3000 
    191 H191       -1.7591  -25.8722  -45.4908 H         1 UNK         0.0600 
    192 H192       -1.0432  -25.8640  -43.1107 H         1 UNK         0.0600 
    193 H193        0.5859  -25.3732  -43.5754 H         1 UNK         0.0600 
    194 H194       -0.0322  -26.9511  -44.0493 H         1 UNK         0.0600 
    195 H195        0.9046  -23.6206  -45.9163 H         1 UNK         0.3000 
    196 H196        2.3616  -25.2899  -47.8582 H         1 UNK         0.0600 
    197 H197        3.9605  -23.3878  -47.8026 H         1 UNK         0.0600 
    198 H198        3.5835  -23.9031  -46.1681 H         1 UNK         0.0600 
    199 H199        2.8476  -22.4404  -46.8241 H         1 UNK         0.0600 
    200 H200       -0.4218  -23.5108  -48.0719 H         1 UNK         0.3000 
    201 H201        0.0847  -21.7487  -50.2830 H         1 UNK         0.0600 
    202 H202       -1.7276  -21.4890  -48.4939 H         1 UNK         0.0600 
    203 H203       -2.5915  -22.8273  -49.2421 H         1 UNK         0.0600 
    204 H204       -2.3079  -21.3424  -50.1414 H         1 UNK         0.0600 
    205 H205       -0.9040  -21.8519  -52.3616 H         1 UNK         0.3000 
    206 H206       -1.1381  -24.5138  -53.6240 H         1 UNK         0.0600 
    207 H207        0.2134  -22.7982  -54.7753 H         1 UNK         0.0600 
    208 H208       -1.2388  -23.1317  -55.7072 H         1 UNK         0.0600 
    209 H209       -1.1325  -21.6621  -54.7417 H         1 UNK         0.0600 
    210 H210       -2.9776  -24.8863  -52.1431 H         1 UNK         0.3000 
    211 H211       -5.0642  -25.4684  -51.8844 H         1 UNK         0.0600 
    212 H212       -5.8358  -24.0800  -54.4886 H         1 UNK         0.0600 
    213 H213       -6.7681  -25.2885  -53.6246 H         1 UNK         0.0600 
    214 H214       -5.2345  -25.7293  -54.3548 H         1 UNK         0.0600 
    215 H215       -4.0550  -22.5506  -51.3288 H         1 UNK         0.3000 
    216 H216       -4.5105  -21.0255  -49.8119 H         1 UNK         0.0600 
    217 H217       -6.0174  -21.6303  -47.9344 H         1 UNK         0.0600 
    218 H218       -4.9996  -22.9855  -48.3985 H         1 UNK         0.0600 
    219 H219       -6.6954  -22.9476  -48.8770 H         1 UNK         0.0600 
    220 H220       -7.6099  -21.9250  -51.3105 H         1 UNK         0.3000 
    221 H221       -8.3328  -19.0693  -51.6017 H         1 UNK         0.0600 
    222 H222      -10.1444  -21.0917  -50.1696 H         1 UNK         0.0600 
    223 H223       -9.3183  -19.7401  -49.3952 H         1 UNK         0.0600 
    224 H224      -10.5746  -19.4343  -50.5811 H         1 UNK         0.0600 
    225 H225       -7.4516  -21.3154  -53.3367 H         1 UNK         0.3000 
    226 H226       -9.3545  -21.0241  -55.4731 H         1 UNK         0.0600 
    227 H227      -10.2859  -23.0645  -54.3102 H         1 UNK         0.0600 
    228 H228       -9.5552  -23.5127  -55.8420 H         1 UNK         0.0600 
    229 H229       -8.6926  -23.8152  -54.3375 H         1 UNK         0.0600 
    230 H230       -8.3093  -22.1587  -57.4339 H         1 UNK         0.3000 
    231 H231       -6.6707  -22.2169  -58.9222 H         1 UNK         0.0600 
    232 H232       -4.9281  -23.3297  -56.6513 H         1 UNK         0.0600 
    233 H233       -4.6518  -23.5317  -58.3806 H         1 UNK         0.0600 
    234 H234       -6.0490  -24.2708  -57.6249 H         1 UNK         0.0600 
    235 H235       -3.7096  -21.8020  -57.6152 H         1 UNK         0.3000 
    236 H236       -3.3848  -19.1311  -58.5823 H         1 UNK         0.0600 
    237 H237       -1.0502  -19.4185  -57.7298 H         1 UNK         0.0600 
    238 H238       -1.5251  -20.9066  -56.9234 H         1 UNK         0.0600 
    239 H239       -1.5694  -20.8005  -58.6818 H         1 UNK         0.0600 
    240 H240       -4.2412  -20.3749  -55.4049 H         1 UNK         0.3000 
    241 H241       -3.8215  -17.7339  -54.1264 H         1 UNK         0.0600 
    242 H242       -7.5433  -17.9580  -55.3940 H         1 UNK         0.3800 
    243 H243       -6.2134  -18.7699  -56.1813 H         1 UNK         0.3800 
    244 H244       -4.4972  -18.9142  -52.0134 H         1 UNK         0.0800 
    245 H245       -4.6303  -20.4038  -52.9163 H         1 UNK         0.0800 
    246 H246       -0.8710  -17.9200  -52.1128 H         1 UNK         0.0800 
    247 H247       -2.5310  -17.4475  -51.8945 H         1 UNK         0.0800 
@<TRIPOS>BOND
     1    1    2 1    
     2    1  127 1    
     3    1  128 1    
     4    1  129 1    
     5    2    3 2    
     6    2    4 am   BACKBONE|DICT|INTERRES
     7    4    5 1    
     8    4  130 1    
     9    5    6 1    
    10    5   65 1    
    11    5  131 1    
    12    6    7 1    
    13    6  132 1    
    14    6  133 1    
    15    7    8 1    
    16    8    9 1    
    17    8  134 1    
    18    8  135 1    
    19    9   10 ar   
    20    9   14 ar   
    21   10   11 ar   
    22   10  136 1    
    23   11   12 ar   
    24   11  126 1    
    25   12   13 ar   
    26   12  137 1    
    27   13   14 ar   
    28   13   15 1    
    29   14  138 1    
    30   15   16 1    
    31   15  139 1    
    32   15  140 1    
    33   16   17 1    
    34   17   18 1    
    35   17  141 1    
    36   17  142 1    
    37   18   19 1    
    38   18   67 1    
    39   18  143 1    
    40   19   20 am   BACKBONE|DICT|INTERRES
    41   19  144 1    
    42   20   21 2    
    43   20   22 1    
    44   22   23 1    
    45   22   24 1    
    46   22  145 1    
    47   23  146 1    
    48   23  147 1    
    49   23  148 1    
    50   24   25 am   BACKBONE|DICT|INTERRES
    51   24  149 1    
    52   25   26 2    
    53   25   27 1    
    54   27   28 1    
    55   27   29 1    
    56   27  150 1    
    57   28  151 1    
    58   28  152 1    
    59   28  153 1    
    60   29   30 am   BACKBONE|DICT|INTERRES
    61   29  154 1    
    62   30   31 2    
    63   30   32 1    
    64   32   33 1    
    65   32   34 1    
    66   32  155 1    
    67   33  156 1    
    68   33  157 1    
    69   33  158 1    
    70   34   35 am   BACKBONE|DICT|INTERRES
    71   34  159 1    
    72   35   36 2    
    73   35   37 1    
    74   37   38 1    
    75   37   39 1    
    76   37  160 1    
    77   38  161 1    
    78   38  162 1    
    79   38  163 1    
    80   39   40 am   BACKBONE|DICT|INTERRES
    81   39  164 1    
    82   40   41 2    
    83   40   42 1    
    84   42   43 1    
    85   42   44 1    
    86   42  165 1    
    87   43  166 1    
    88   43  167 1    
    89   43  168 1    
    90   44   45 am   BACKBONE|DICT|INTERRES
    91   44  169 1    
    92   45   46 2    
    93   45   47 1    
    94   47   48 1    
    95   47   49 1    
    96   47  170 1    
    97   48  171 1    
    98   48  172 1    
    99   48  173 1    
   100   49   50 am   BACKBONE|DICT|INTERRES
   101   49  174 1    
   102   50   51 2    
   103   50   52 1    
   104   52   53 1    
   105   52   54 1    
   106   52  175 1    
   107   53  176 1    
   108   53  177 1    
   109   53  178 1    
   110   54   55 am   BACKBONE|DICT|INTERRES
   111   54  179 1    
   112   55   56 2    
   113   55   57 1    
   114   57   58 1    
   115   57   59 1    
   116   57  180 1    
   117   58  181 1    
   118   58  182 1    
   119   58  183 1    
   120   59   60 am   BACKBONE|DICT|INTERRES
   121   59  184 1    
   122   60   61 2    
   123   60   62 1    
   124   62   63 1    
   125   62   64 1    
   126   62  185 1    
   127   63  186 1    
   128   63  187 1    
   129   63  188 1    
   130   64   65 am   BACKBONE|DICT|INTERRES
   131   64  189 1    
   132   65   66 2    
   133   67   68 2    
   134   67   69 am   BACKBONE|DICT|INTERRES
   135   69   70 1    
   136   69  190 1    
   137   70   71 1    
   138   70   72 1    
   139   70  191 1    
   140   71  192 1    
   141   71  193 1    
   142   71  194 1    
   143   72   73 2    
   144   72   74 am   BACKBONE|DICT|INTERRES
   145   74   75 1    
   146   74  195 1    
   147   75   76 1    
   148   75   77 1    
   149   75  196 1    
   150   76  197 1    
   151   76  198 1    
   152   76  199 1    
   153   77   78 2    
   154   77   79 am   BACKBONE|DICT|INTERRES
   155   79   80 1    
   156   79  200 1    
   157   80   81 1    
   158   80   82 1    
   159   80  201 1    
   160   81  202 1    
   161   81  203 1    
   162   81  204 1    
   163   82   83 2    
   164   82   84 am   BACKBONE|DICT|INTERRES
   165   84   85 1    
   166   84  205 1    
   167   85   86 1    
   168   85   87 1    
   169   85  206 1    
   170   86  207 1    
   171   86  208 1    
   172   86  209 1    
   173   87   88 2    
   174   87   89 am   BACKBONE|DICT|INTERRES
   175   89   90 1    
   176   89  210 1    
   177   90   91 1    
   178   90   92 1    
   179   90  211 1    
   180   91  212 1    
   181   91  213 1    
   182   91  214 1    
   183   92   93 2    
   184   92   94 am   BACKBONE|DICT|INTERRES
   185   94   95 1    
   186   94  215 1    
   187   95   96 1    
   188   95   97 1    
   189   95  216 1    
   190   96  217 1    
   191   96  218 1    
   192   96  219 1    
   193   97   98 2    
   194   97   99 am   BACKBONE|DICT|INTERRES
   195   99  100 1    
   196   99  220 1    
   197  100  101 1    
   198  100  102 1    
   199  100  221 1    
   200  101  222 1    
   201  101  223 1    
   202  101  224 1    
   203  102  103 2    
   204  102  104 am   BACKBONE|DICT|INTERRES
   205  104  105 1    
   206  104  225 1    
   207  105  106 1    
   208  105  107 1    
   209  105  226 1    
   210  106  227 1    
   211  106  228 1    
   212  106  229 1    
   213  107  108 2    
   214  107  109 am   BACKBONE|DICT|INTERRES
   215  109  110 1    
   216  109  230 1    
   217  110  111 1    
   218  110  112 1    
   219  110  231 1    
   220  111  232 1    
   221  111  233 1    
   222  111  234 1    
   223  112  113 2    
   224  112  114 am   BACKBONE|DICT|INTERRES
   225  114  115 1    
   226  114  235 1    
   227  115  116 1    
   228  115  117 1    
   229  115  236 1    
   230  116  237 1    
   231  116  238 1    
   232  116  239 1    
   233  117  118 2    
   234  117  119 am   BACKBONE|DICT|INTERRES
   235  119  120 1    
   236  119  240 1    
   237  120  121 1    
   238  120  124 1    
   239  120  241 1    
   240  121  122 am   BACKBONE|DICT|INTERRES
   241  121  123 2    
   242  122  242 1    
   243  122  243 1    
   244  124  125 1    
   245  124  244 1    
   246  124  245 1    
   247  125  126 1    
   248  126  246 1    
   249  126  247 1    
@<TRIPOS>SUBSTRUCTURE
     1 UNK         1 GROUP             0       ****    0 ROOT    
