@<TRIPOS>MOLECULE
3R540
247   249    1
SMALL
USER_CHARGES


@<TRIPOS>ATOM
      1 CA          4.7809  -14.2667  -46.4531 C.3       0 UNK        -0.1800 
      2 C           4.1705  -14.1273  -47.8408 C.2       0 UNK         0.5000 
      3 O           4.3516  -13.0966  -48.4883 O.2       0 UNK        -0.5000 
      4 N           3.4413  -15.1601  -48.2857 N.am      1 UNK        -0.5000 
      5 CA          2.7464  -15.2605  -49.5796 C.3       1 UNK         0.1400 
      6 C6          3.7110  -15.3012  -50.7973 C.3       23 UNK        -0.0398 
      7 S7          4.9138  -16.6746  -50.7085 S.3       23 UNK        -0.2404 
      8 C8          4.2833  -17.8180  -51.9789 C.3       23 UNK        -0.0205 
      9 C9          3.1419  -18.6816  -51.4611 C.ar      23 UNK        -0.0193 
     10 C10         1.8238  -18.2166  -51.5048 C.ar      23 UNK        -0.1150 
     11 C11         0.7739  -19.0147  -51.0429 C.ar      23 UNK        -0.0193 
     12 C12         1.0476  -20.2939  -50.5504 C.ar      23 UNK        -0.1150 
     13 C13         2.3565  -20.7834  -50.5298 C.ar      23 UNK        -0.0193 
     14 C14         3.4007  -19.9672  -50.9743 C.ar      23 UNK        -0.1150 
     15 C15         2.6314  -22.2158  -50.0922 C.3       23 UNK        -0.0205 
     16 S16         3.4602  -22.3367  -48.4735 S.3       23 UNK        -0.2404 
     17 C17         2.2391  -21.6132  -47.3285 C.3       23 UNK        -0.0398 
     18 CA          1.2653  -22.6541  -46.7170 C.3       11 UNK         0.1400 
     19 N           0.7787  -22.2455  -45.3948 N.am      11 UNK        -0.5000 
     20 C           0.0048  -22.9904  -44.5906 C.2       10 UNK         0.5000 
     21 O          -0.3390  -24.1442  -44.8474 O.2       10 UNK        -0.5000 
     22 CA         -0.5178  -22.3156  -43.3077 C.3       10 UNK         0.1400 
     23 CB          0.5581  -22.3019  -42.2118 C.3       10 UNK        -0.1800 
     24 N          -0.9944  -20.9532  -43.5478 N.am      10 UNK        -0.5000 
     25 C          -2.0357  -20.6418  -44.3339 C.2       9 UNK         0.5000 
     26 O          -2.7563  -21.4790  -44.8767 O.2       9 UNK        -0.5000 
     27 CA         -2.2726  -19.1461  -44.6102 C.3       9 UNK         0.1400 
     28 CB         -3.0623  -18.4840  -43.4717 C.3       9 UNK        -0.1800 
     29 N          -1.0232  -18.4198  -44.8316 N.am      9 UNK        -0.5000 
     30 C          -0.1894  -18.6506  -45.8561 C.2       8 UNK         0.5000 
     31 O          -0.3819  -19.4965  -46.7262 O.2       8 UNK        -0.5000 
     32 CA          1.1184  -17.8485  -45.8697 C.3       8 UNK         0.1400 
     33 CB          0.8688  -16.4385  -46.4098 C.3       8 UNK        -0.1800 
     34 N           1.7159  -17.7690  -44.5371 N.am      8 UNK        -0.5000 
     35 C           2.2416  -18.8175  -43.8865 C.2       7 UNK         0.5000 
     36 O           2.3126  -19.9493  -44.3621 O.2       7 UNK        -0.5000 
     37 CA          2.7285  -18.5726  -42.4473 C.3       7 UNK         0.1400 
     38 CB          4.1768  -18.0613  -42.4492 C.3       7 UNK        -0.1800 
     39 N           1.8832  -17.6269  -41.7191 N.am      7 UNK        -0.5000 
     40 C           0.5936  -17.8306  -41.4121 C.2       6 UNK         0.5000 
     41 O          -0.0114  -18.8727  -41.6637 O.2       6 UNK        -0.5000 
     42 CA         -0.1518  -16.6506  -40.7584 C.3       6 UNK         0.1400 
     43 CB         -0.0871  -16.7533  -39.2276 C.3       6 UNK        -0.1800 
     44 N           0.3727  -15.3470  -41.1813 N.am      6 UNK        -0.5000 
     45 C           0.2672  -14.8636  -42.4261 C.2       5 UNK         0.5000 
     46 O          -0.3204  -15.4529  -43.3352 O.2       5 UNK        -0.5000 
     47 CA          1.0003  -13.5458  -42.7167 C.3       5 UNK         0.1400 
     48 CB          2.2205  -13.7969  -43.6176 C.3       5 UNK        -0.1800 
     49 N           0.1027  -12.6095  -43.3846 N.am      5 UNK        -0.5000 
     50 C          -0.5620  -11.6236  -42.7656 C.2       4 UNK         0.5000 
     51 O          -0.4602  -11.3862  -41.5610 O.2       4 UNK        -0.5000 
     52 CA         -1.4940  -10.7408  -43.6228 C.3       4 UNK         0.1400 
     53 CB         -0.7783   -9.4434  -44.0295 C.3       4 UNK        -0.1800 
     54 N          -1.9785  -11.4082  -44.8298 N.am      4 UNK        -0.5000 
     55 C          -2.8268  -12.4439  -44.8430 C.2       3 UNK         0.5000 
     56 O          -3.3901  -12.8717  -43.8347 O.2       3 UNK        -0.5000 
     57 CA         -3.0900  -13.1263  -46.2013 C.3       3 UNK         0.1400 
     58 CB         -4.5091  -12.8053  -46.6980 C.3       3 UNK        -0.1800 
     59 N          -2.1392  -12.8131  -47.2773 N.am      3 UNK        -0.5000 
     60 C          -0.8220  -13.0546  -47.2597 C.2       2 UNK         0.5000 
     61 O          -0.1990  -13.4216  -46.2614 O.2       2 UNK        -0.5000 
     62 CA         -0.0652  -12.8063  -48.5685 C.3       2 UNK         0.1400 
     63 CB          0.4669  -11.3647  -48.6318 C.3       2 UNK        -0.1800 
     64 N           1.0432  -13.7495  -48.6339 N.am      2 UNK        -0.5000 
     65 C           1.6186  -14.2103  -49.7507 C.2       1 UNK         0.5000 
     66 O           1.2804  -13.8471  -50.8786 O.2       1 UNK        -0.5000 
     67 C           0.0982  -22.9582  -47.6772 C.2       11 UNK         0.5000 
     68 O           0.0765  -24.0227  -48.2932 O.2       11 UNK        -0.5000 
     69 N          -0.8672  -22.0330  -47.7561 N.am      12 UNK        -0.5000 
     70 CA         -2.0754  -22.1364  -48.5694 C.3       12 UNK         0.1400 
     71 CB         -2.8661  -20.8260  -48.4735 C.3       12 UNK        -0.1800 
     72 C          -2.9543  -23.3374  -48.1901 C.2       12 UNK         0.5000 
     73 O          -3.4192  -24.0434  -49.0830 O.2       12 UNK        -0.5000 
     74 N          -3.1297  -23.5740  -46.8830 N.am      13 UNK        -0.5000 
     75 CA         -3.8518  -24.7250  -46.3418 C.3       13 UNK         0.1400 
     76 CB         -4.0367  -24.5498  -44.8269 C.3       13 UNK        -0.1800 
     77 C          -3.1639  -26.0668  -46.6557 C.2       13 UNK         0.5000 
     78 O          -3.8516  -27.0341  -46.9836 O.2       13 UNK        -0.5000 
     79 N          -1.8268  -26.0988  -46.5644 N.am      14 UNK        -0.5000 
     80 CA         -1.0052  -27.2676  -46.8784 C.3       14 UNK         0.1400 
     81 CB          0.4183  -27.0552  -46.3400 C.3       14 UNK        -0.1800 
     82 C          -0.9799  -27.5879  -48.3842 C.2       14 UNK         0.5000 
     83 O          -1.1212  -28.7526  -48.7595 O.2       14 UNK        -0.5000 
     84 N          -0.8019  -26.5532  -49.2163 N.am      15 UNK        -0.5000 
     85 CA         -0.7565  -26.6581  -50.6751 C.3       15 UNK         0.1400 
     86 CB         -0.1533  -25.3686  -51.2514 C.3       15 UNK        -0.1800 
     87 C          -2.1334  -26.9293  -51.3069 C.2       15 UNK         0.5000 
     88 O          -2.2010  -27.5940  -52.3417 O.2       15 UNK        -0.5000 
     89 N          -3.1947  -26.3870  -50.6927 N.am      16 UNK        -0.5000 
     90 CA         -4.6131  -26.4241  -51.0682 C.3       16 UNK         0.1400 
     91 CB         -5.1497  -27.8661  -51.1373 C.3       16 UNK        -0.1800 
     92 C          -4.9364  -25.6335  -52.3499 C.2       16 UNK         0.5000 
     93 O          -5.8264  -24.7838  -52.3327 O.2       16 UNK        -0.5000 
     94 N          -4.1953  -25.8975  -53.4322 N.am      17 UNK        -0.5000 
     95 CA         -4.3358  -25.2469  -54.7367 C.3       17 UNK         0.1400 
     96 CB         -3.5255  -26.0389  -55.7737 C.3       17 UNK        -0.1800 
     97 C          -3.9068  -23.7664  -54.7355 C.2       17 UNK         0.5000 
     98 O          -4.3797  -22.9978  -55.5730 O.2       17 UNK        -0.5000 
     99 N          -3.0266  -23.3911  -53.7971 N.am      18 UNK        -0.5000 
    100 CA        -2.5046  -22.0327  -53.6373 C.3       18 UNK         0.1400 
    101 CB        -1.1558  -22.1002  -52.9047 C.3       18 UNK        -0.1800 
    102 C         -3.4711  -21.0817  -52.9033 C.2       18 UNK         0.5000 
    103 O         -3.2090  -19.8796  -52.8668 O.2       18 UNK        -0.5000 
    104 N         -4.5669  -21.6062  -52.3348 N.am      19 UNK        -0.5000 
    105 CA        -5.5676  -20.8693  -51.5550 C.3       19 UNK         0.1400 
    106 CB        -6.3188  -21.8596  -50.6479 C.3       19 UNK        -0.1800 
    107 C         -6.5198  -19.9957  -52.4056 C.2       19 UNK         0.5000 
    108 O         -7.7243  -19.9530  -52.1469 O.2       19 UNK        -0.5000 
    109 N         -5.9622  -19.2817  -53.3892 N.am      20 UNK        -0.5000 
    110 CA        -6.5995  -18.1827  -54.1065 C.3       20 UNK         0.1400 
    111 CB        -5.9910  -18.0895  -55.5165 C.3       20 UNK        -0.1800 
    112 C         -6.3627  -16.9137  -53.2717 C.2       20 UNK         0.5000 
    113 O         -5.3668  -16.2187  -53.4808 O.2       20 UNK        -0.5000 
    114 N         -7.2272  -16.7143  -52.2660 N.am      21 UNK        -0.5000 
    115 CA        -7.0132  -15.8693  -51.0865 C.3       21 UNK         0.1400 
    116 CB        -6.8663  -14.3750  -51.4559 C.3       21 UNK        -0.1800 
    117 C         -5.8553  -16.4547  -50.2504 C.2       21 UNK         0.5000 
    118 O         -5.9232  -17.6355  -49.9047 O.2       21 UNK        -0.5000 
    119 N         -4.8190  -15.6574  -49.9564 N.am      22 UNK        -0.5000 
    120 CA        -3.5754  -16.0836  -49.2826 C.3       22 UNK         0.1400 
    121 C         -3.7224  -16.4244  -47.7651 C.2       22 UNK         0.5000 
    122 N         -4.8943  -16.2894  -47.1564 N.am      22 UNK        -0.7600 
    123 O         -2.7474  -16.7627  -47.1067 O.2       22 UNK        -0.5000 
    124 C124       -2.8515  -17.2026  -50.0872 C.3       23 UNK        -0.0398 
    125 S125       -1.0386  -17.2481  -49.8902 S.3       23 UNK        -0.2404 
    126 C126       -0.6613  -18.5222  -51.1311 C.3       23 UNK        -0.0205 
    127 H127        5.8687  -14.2707  -46.5208 H         1 UNK         0.0600 
    128 H128        4.4662  -15.1870  -45.9600 H         1 UNK         0.0600 
    129 H129        4.4804  -13.4277  -45.8256 H         1 UNK         0.0600 
    130 H130        3.3744  -15.9848  -47.7079 H         1 UNK         0.3000 
    131 H131        2.2259  -16.2183  -49.5490 H         1 UNK         0.0600 
    132 H132        3.1544  -15.3847  -51.7313 H         1 UNK         0.0800 
    133 H133        4.2679  -14.3664  -50.8717 H         1 UNK         0.0800 
    134 H134        5.1065  -18.4559  -52.3044 H         1 UNK         0.0800 
    135 H135        3.9702  -17.2651  -52.8656 H         1 UNK         0.0800 
    136 H136        1.6095  -17.2346  -51.9018 H         1 UNK         0.1150 
    137 H137        0.2361  -20.9214  -50.2122 H         1 UNK         0.1150 
    138 H138        4.4141  -20.3432  -50.9588 H         1 UNK         0.1150 
    139 H139        1.7107  -22.7990  -50.0795 H         1 UNK         0.0800 
    140 H140        3.2681  -22.6927  -50.8386 H         1 UNK         0.0800 
    141 H141        1.7145  -20.7808  -47.7989 H         1 UNK         0.0800 
    142 H142        2.8339  -21.1627  -46.5352 H         1 UNK         0.0800 
    143 H143        1.8120  -23.5867  -46.5618 H         1 UNK         0.0600 
    144 H144        1.0510  -21.3188  -45.0831 H         1 UNK         0.3000 
    145 H145       -1.3630  -22.9038  -42.9444 H         1 UNK         0.0600 
    146 H146        1.4307  -21.7199  -42.5079 H         1 UNK         0.0600 
    147 H147        0.1716  -21.8753  -41.2860 H         1 UNK         0.0600 
    148 H148        0.8987  -23.3135  -41.9879 H         1 UNK         0.0600 
    149 H149       -0.4873  -20.2007  -43.0928 H         1 UNK         0.3000 
    150 H150       -2.8659  -19.0673  -45.5234 H         1 UNK         0.0600 
    151 H151       -4.0239  -18.9781  -43.3283 H         1 UNK         0.0600 
    152 H152       -3.2639  -17.4354  -43.6924 H         1 UNK         0.0600 
    153 H153       -2.5257  -18.5300  -42.5243 H         1 UNK         0.0600 
    154 H154       -0.7918  -17.6879  -44.1737 H         1 UNK         0.3000 
    155 H155        1.8264  -18.3512  -46.5323 H         1 UNK         0.0600 
    156 H156        0.0398  -15.9572  -45.8917 H         1 UNK         0.0600 
    157 H157        1.7452  -15.8051  -46.2958 H         1 UNK         0.0600 
    158 H158        0.6083  -16.4710  -47.4675 H         1 UNK         0.0600 
    159 H159        1.6330  -16.8864  -44.0551 H         1 UNK         0.3000 
    160 H160        2.7007  -19.5275  -41.9184 H         1 UNK         0.0600 
    161 H161        4.8351  -18.7576  -42.9706 H         1 UNK         0.0600 
    162 H162        4.2634  -17.0937  -42.9454 H         1 UNK         0.0600 
    163 H163        4.5586  -17.9540  -41.4338 H         1 UNK         0.0600 
    164 H164        2.3028  -16.7464  -41.4616 H         1 UNK         0.3000 
    165 H165       -1.1990  -16.7124  -41.0623 H         1 UNK         0.0600 
    166 H166       -0.6714  -15.9641  -38.7543 H         1 UNK         0.0600 
    167 H167       -0.4917  -17.7062  -38.8836 H         1 UNK         0.0600 
    168 H168        0.9375  -16.6800  -38.8606 H         1 UNK         0.0600 
    169 H169        0.8639  -14.8088  -40.4817 H         1 UNK         0.3000 
    170 H170        1.3617  -13.1219  -41.7774 H         1 UNK         0.0600 
    171 H171        2.9040  -14.5173  -43.1668 H         1 UNK         0.0600 
    172 H172        1.9274  -14.1838  -44.5932 H         1 UNK         0.0600 
    173 H173        2.7804  -12.8764  -43.7825 H         1 UNK         0.0600 
    174 H174       -0.0828  -12.7995  -44.3656 H         1 UNK         0.3000 
    175 H175       -2.3575  -10.4780  -43.0081 H         1 UNK         0.0600 
    176 H176        0.0873   -9.6434  -44.6625 H         1 UNK         0.0600 
    177 H177       -1.4474   -8.7771  -44.5744 H         1 UNK         0.0600 
    178 H178       -0.4249   -8.9004  -43.1519 H         1 UNK         0.0600 
    179 H179       -1.5587  -11.1292  -45.7038 H         1 UNK         0.3000 
    180 H180       -3.0238  -14.1993  -46.0159 H         1 UNK         0.0600 
    181 H181       -4.6310  -11.7407  -46.9014 H         1 UNK         0.0600 
    182 H182       -5.2570  -13.0859  -45.9553 H         1 UNK         0.0600 
    183 H183       -4.7439  -13.3511  -47.6116 H         1 UNK         0.0600 
    184 H184       -2.5487  -12.4530  -48.1269 H         1 UNK         0.3000 
    185 H185       -0.7444  -12.9863  -49.4046 H         1 UNK         0.0600 
    186 H186        0.9954  -11.1797  -49.5671 H         1 UNK         0.0600 
    187 H187       -0.3476  -10.6421  -48.5707 H         1 UNK         0.0600 
    188 H188        1.1564  -11.1563  -47.8126 H         1 UNK         0.0600 
    189 H189        1.3406  -14.1012  -47.7333 H         1 UNK         0.3000 
    190 H190       -0.7486  -21.1608  -47.2409 H         1 UNK         0.3000 
    191 H191       -1.7627  -22.2705  -49.6052 H         1 UNK         0.0600 
    192 H192       -3.2179  -20.6388  -47.4591 H         1 UNK         0.0600 
    193 H193       -3.7385  -20.8470  -49.1243 H         1 UNK         0.0600 
    194 H194       -2.2502  -19.9781  -48.7694 H         1 UNK         0.0600 
    195 H195       -2.7555  -22.9120  -46.2087 H         1 UNK         0.3000 
    196 H196       -4.8410  -24.7444  -46.8039 H         1 UNK         0.0600 
    197 H197       -4.5831  -25.3912  -44.3991 H         1 UNK         0.0600 
    198 H198       -4.6027  -23.6458  -44.6017 H         1 UNK         0.0600 
    199 H199       -3.0790  -24.4813  -44.3099 H         1 UNK         0.0600 
    200 H200       -1.3362  -25.2701  -46.2439 H         1 UNK         0.3000 
    201 H201       -1.4331  -28.1298  -46.3627 H         1 UNK         0.0600 
    202 H202        0.4123  -26.9128  -45.2592 H         1 UNK         0.0600 
    203 H203        0.8944  -26.1824  -46.7877 H         1 UNK         0.0600 
    204 H204        1.0494  -27.9192  -46.5512 H         1 UNK         0.0600 
    205 H205       -0.6353  -25.6293  -48.8213 H         1 UNK         0.3000 
    206 H206       -0.1005  -27.4896  -50.9410 H         1 UNK         0.0600 
    207 H207        0.8664  -25.2188  -50.8961 H         1 UNK         0.0600 
    208 H208       -0.1183  -25.3988  -52.3412 H         1 UNK         0.0600 
    209 H209       -0.7373  -24.4959  -50.9604 H         1 UNK         0.0600 
    210 H210       -3.0092  -25.7828  -49.8975 H         1 UNK         0.3000 
    211 H211       -5.1398  -25.9239  -50.2537 H         1 UNK         0.0600 
    212 H212       -4.6917  -28.4386  -51.9441 H         1 UNK         0.0600 
    213 H213       -6.2269  -27.8701  -51.3079 H         1 UNK         0.0600 
    214 H214       -4.9661  -28.3970  -50.2031 H         1 UNK         0.0600 
    215 H215       -3.4689  -26.6030  -53.3382 H         1 UNK         0.3000 
    216 H216       -5.3891  -25.2834  -55.0226 H         1 UNK         0.0600 
    217 H217       -3.6230  -25.5986  -56.7670 H         1 UNK         0.0600 
    218 H218       -3.8726  -27.0702  -55.8410 H         1 UNK         0.0600 
    219 H219       -2.4637  -26.0579  -55.5245 H         1 UNK         0.0600 
    220 H220       -2.6974  -24.0882  -53.1464 H         1 UNK         0.3000 
    221 H221       -2.3260  -21.6101  -54.6283 H         1 UNK         0.0600 
    222 H222       -1.2745  -22.4343  -51.8755 H         1 UNK         0.0600 
    223 H223       -0.4639  -22.7789  -53.4036 H         1 UNK         0.0600 
    224 H224       -0.6798  -21.1195  -52.8775 H         1 UNK         0.0600 
    225 H225       -4.7387  -22.5960  -52.4486 H         1 UNK         0.3000 
    226 H226       -5.0358  -20.1730  -50.9044 H         1 UNK         0.0600 
    227 H227       -5.6279  -22.4517  -50.0473 H         1 UNK         0.0600 
    228 H228       -6.9786  -21.3341  -49.9565 H         1 UNK         0.0600 
    229 H229       -6.9323  -22.5483  -51.2295 H         1 UNK         0.0600 
    230 H230       -4.9512  -19.3373  -53.4702 H         1 UNK         0.3000 
    231 H231       -7.6733  -18.3562  -54.2042 H         1 UNK         0.0600 
    232 H232       -6.4164  -17.2509  -56.0689 H         1 UNK         0.0600 
    233 H233       -6.1929  -18.9943  -56.0901 H         1 UNK         0.0600 
    234 H234       -4.9095  -17.9504  -55.4857 H         1 UNK         0.0600 
    235 H235       -7.9679  -17.3954  -52.1622 H         1 UNK         0.3000 
    236 H236       -7.9101  -15.9672  -50.4734 H         1 UNK         0.0600 
    237 H237       -6.8455  -13.7527  -50.5605 H         1 UNK         0.0600 
    238 H238       -7.7120  -14.0399  -52.0564 H         1 UNK         0.0600 
    239 H239       -5.9588  -14.1672  -52.0227 H         1 UNK         0.0600 
    240 H240       -4.8450  -14.6991  -50.2734 H         1 UNK         0.3000 
    241 H241       -2.9382  -15.1989  -49.3067 H         1 UNK         0.0600 
    242 H242       -5.7152  -16.0281  -47.6760 H         1 UNK         0.3800 
    243 H243       -4.9645  -16.5014  -46.1750 H         1 UNK         0.3800 
    244 H244       -3.2671  -18.1802  -49.8419 H         1 UNK         0.0800 
    245 H245       -3.0411  -17.0664  -51.1536 H         1 UNK         0.0800 
    246 H246       -1.3485  -19.3589  -51.0002 H         1 UNK         0.0800 
    247 H247       -0.8514  -18.1248  -52.1292 H         1 UNK         0.0800 
@<TRIPOS>BOND
     1    1    2 1    
     2    1  127 1    
     3    1  128 1    
     4    1  129 1    
     5    2    3 2    
     6    2    4 am   BACKBONE|DICT|INTERRES
     7    4    5 1    
     8    4  130 1    
     9    5    6 1    
    10    5   65 1    
    11    5  131 1    
    12    6    7 1    
    13    6  132 1    
    14    6  133 1    
    15    7    8 1    
    16    8    9 1    
    17    8  134 1    
    18    8  135 1    
    19    9   10 ar   
    20    9   14 ar   
    21   10   11 ar   
    22   10  136 1    
    23   11   12 ar   
    24   11  126 1    
    25   12   13 ar   
    26   12  137 1    
    27   13   14 ar   
    28   13   15 1    
    29   14  138 1    
    30   15   16 1    
    31   15  139 1    
    32   15  140 1    
    33   16   17 1    
    34   17   18 1    
    35   17  141 1    
    36   17  142 1    
    37   18   19 1    
    38   18   67 1    
    39   18  143 1    
    40   19   20 am   BACKBONE|DICT|INTERRES
    41   19  144 1    
    42   20   21 2    
    43   20   22 1    
    44   22   23 1    
    45   22   24 1    
    46   22  145 1    
    47   23  146 1    
    48   23  147 1    
    49   23  148 1    
    50   24   25 am   BACKBONE|DICT|INTERRES
    51   24  149 1    
    52   25   26 2    
    53   25   27 1    
    54   27   28 1    
    55   27   29 1    
    56   27  150 1    
    57   28  151 1    
    58   28  152 1    
    59   28  153 1    
    60   29   30 am   BACKBONE|DICT|INTERRES
    61   29  154 1    
    62   30   31 2    
    63   30   32 1    
    64   32   33 1    
    65   32   34 1    
    66   32  155 1    
    67   33  156 1    
    68   33  157 1    
    69   33  158 1    
    70   34   35 am   BACKBONE|DICT|INTERRES
    71   34  159 1    
    72   35   36 2    
    73   35   37 1    
    74   37   38 1    
    75   37   39 1    
    76   37  160 1    
    77   38  161 1    
    78   38  162 1    
    79   38  163 1    
    80   39   40 am   BACKBONE|DICT|INTERRES
    81   39  164 1    
    82   40   41 2    
    83   40   42 1    
    84   42   43 1    
    85   42   44 1    
    86   42  165 1    
    87   43  166 1    
    88   43  167 1    
    89   43  168 1    
    90   44   45 am   BACKBONE|DICT|INTERRES
    91   44  169 1    
    92   45   46 2    
    93   45   47 1    
    94   47   48 1    
    95   47   49 1    
    96   47  170 1    
    97   48  171 1    
    98   48  172 1    
    99   48  173 1    
   100   49   50 am   BACKBONE|DICT|INTERRES
   101   49  174 1    
   102   50   51 2    
   103   50   52 1    
   104   52   53 1    
   105   52   54 1    
   106   52  175 1    
   107   53  176 1    
   108   53  177 1    
   109   53  178 1    
   110   54   55 am   BACKBONE|DICT|INTERRES
   111   54  179 1    
   112   55   56 2    
   113   55   57 1    
   114   57   58 1    
   115   57   59 1    
   116   57  180 1    
   117   58  181 1    
   118   58  182 1    
   119   58  183 1    
   120   59   60 am   BACKBONE|DICT|INTERRES
   121   59  184 1    
   122   60   61 2    
   123   60   62 1    
   124   62   63 1    
   125   62   64 1    
   126   62  185 1    
   127   63  186 1    
   128   63  187 1    
   129   63  188 1    
   130   64   65 am   BACKBONE|DICT|INTERRES
   131   64  189 1    
   132   65   66 2    
   133   67   68 2    
   134   67   69 am   BACKBONE|DICT|INTERRES
   135   69   70 1    
   136   69  190 1    
   137   70   71 1    
   138   70   72 1    
   139   70  191 1    
   140   71  192 1    
   141   71  193 1    
   142   71  194 1    
   143   72   73 2    
   144   72   74 am   BACKBONE|DICT|INTERRES
   145   74   75 1    
   146   74  195 1    
   147   75   76 1    
   148   75   77 1    
   149   75  196 1    
   150   76  197 1    
   151   76  198 1    
   152   76  199 1    
   153   77   78 2    
   154   77   79 am   BACKBONE|DICT|INTERRES
   155   79   80 1    
   156   79  200 1    
   157   80   81 1    
   158   80   82 1    
   159   80  201 1    
   160   81  202 1    
   161   81  203 1    
   162   81  204 1    
   163   82   83 2    
   164   82   84 am   BACKBONE|DICT|INTERRES
   165   84   85 1    
   166   84  205 1    
   167   85   86 1    
   168   85   87 1    
   169   85  206 1    
   170   86  207 1    
   171   86  208 1    
   172   86  209 1    
   173   87   88 2    
   174   87   89 am   BACKBONE|DICT|INTERRES
   175   89   90 1    
   176   89  210 1    
   177   90   91 1    
   178   90   92 1    
   179   90  211 1    
   180   91  212 1    
   181   91  213 1    
   182   91  214 1    
   183   92   93 2    
   184   92   94 am   BACKBONE|DICT|INTERRES
   185   94   95 1    
   186   94  215 1    
   187   95   96 1    
   188   95   97 1    
   189   95  216 1    
   190   96  217 1    
   191   96  218 1    
   192   96  219 1    
   193   97   98 2    
   194   97   99 am   BACKBONE|DICT|INTERRES
   195   99  100 1    
   196   99  220 1    
   197  100  101 1    
   198  100  102 1    
   199  100  221 1    
   200  101  222 1    
   201  101  223 1    
   202  101  224 1    
   203  102  103 2    
   204  102  104 am   BACKBONE|DICT|INTERRES
   205  104  105 1    
   206  104  225 1    
   207  105  106 1    
   208  105  107 1    
   209  105  226 1    
   210  106  227 1    
   211  106  228 1    
   212  106  229 1    
   213  107  108 2    
   214  107  109 am   BACKBONE|DICT|INTERRES
   215  109  110 1    
   216  109  230 1    
   217  110  111 1    
   218  110  112 1    
   219  110  231 1    
   220  111  232 1    
   221  111  233 1    
   222  111  234 1    
   223  112  113 2    
   224  112  114 am   BACKBONE|DICT|INTERRES
   225  114  115 1    
   226  114  235 1    
   227  115  116 1    
   228  115  117 1    
   229  115  236 1    
   230  116  237 1    
   231  116  238 1    
   232  116  239 1    
   233  117  118 2    
   234  117  119 am   BACKBONE|DICT|INTERRES
   235  119  120 1    
   236  119  240 1    
   237  120  121 1    
   238  120  124 1    
   239  120  241 1    
   240  121  122 am   BACKBONE|DICT|INTERRES
   241  121  123 2    
   242  122  242 1    
   243  122  243 1    
   244  124  125 1    
   245  124  244 1    
   246  124  245 1    
   247  125  126 1    
   248  126  246 1    
   249  126  247 1    
@<TRIPOS>SUBSTRUCTURE
     1 UNK         1 GROUP             0       ****    0 ROOT    
