@<TRIPOS>MOLECULE
3R540
247   249    1
SMALL
USER_CHARGES


@<TRIPOS>ATOM
      1 CA         -1.2068  -10.2710  -49.6195 C.3       0 UNK        -0.1800 
      2 C          -0.1521  -11.2480  -49.1204 C.2       0 UNK         0.5000 
      3 O           0.8223  -10.8309  -48.4952 O.2       0 UNK        -0.5000 
      4 N          -0.3434  -12.5451  -49.3933 N.am      1 UNK        -0.5000 
      5 CA          0.5368  -13.6406  -48.9656 C.3       1 UNK         0.1400 
      6 C6          0.2615  -14.9540  -49.7414 C.3       23 UNK        -0.0398 
      7 S7         -1.5001  -15.4400  -49.7796 S.3       23 UNK        -0.2404 
      8 C8         -1.4556  -17.0903  -49.0186 C.3       23 UNK        -0.0205 
      9 C9         -2.8451  -17.7062  -49.0236 C.ar      23 UNK        -0.0193 
     10 C10        -3.3708  -18.2345  -50.2064 C.ar      23 UNK        -0.1150 
     11 C11        -4.6707  -18.7478  -50.2491 C.ar      23 UNK        -0.0193 
     12 C12        -5.4283  -18.7661  -49.0704 C.ar      23 UNK        -0.1150 
     13 C13        -4.9154  -18.2422  -47.8810 C.ar      23 UNK        -0.0193 
     14 C14        -3.6222  -17.7118  -47.8627 C.ar      23 UNK        -0.1150 
     15 C15        -5.7805  -18.2174  -46.6293 C.3       23 UNK        -0.0205 
     16 S16        -5.8389  -19.8379  -45.8027 S.3       23 UNK        -0.2404 
     17 C17        -4.1322  -19.9836  -45.1800 C.3       23 UNK        -0.0398 
     18 CA         -3.3027  -21.0256  -45.9697 C.3       11 UNK         0.1400 
     19 N          -1.8706  -20.7218  -45.9241 N.am      11 UNK        -0.5000 
     20 C          -0.9318  -21.3614  -46.6376 C.2       10 UNK         0.5000 
     21 O          -1.1867  -22.2561  -47.4403 O.2       10 UNK        -0.5000 
     22 CA          0.5399  -20.9797  -46.3834 C.3       10 UNK         0.1400 
     23 CB          0.9669  -19.8638  -47.3479 C.3       10 UNK        -0.1800 
     24 N           0.7981  -20.5634  -45.0038 N.am      10 UNK        -0.5000 
     25 C           0.5573  -21.3162  -43.9169 C.2       9 UNK         0.5000 
     26 O           0.2206  -22.4989  -43.9774 O.2       9 UNK        -0.5000 
     27 CA          0.6265  -20.6263  -42.5366 C.3       9 UNK         0.1400 
     28 CB          1.9391  -20.9805  -41.8242 C.3       9 UNK        -0.1800 
     29 N           0.4919  -19.1681  -42.5910 N.am      9 UNK        -0.5000 
     30 C          -0.5359  -18.4899  -43.1228 C.2       8 UNK         0.5000 
     31 O          -1.5614  -19.0276  -43.5403 O.2       8 UNK        -0.5000 
     32 CA         -0.3615  -16.9692  -43.2942 C.3       8 UNK         0.1400 
     33 CB         -1.1387  -16.2151  -42.2066 C.3       8 UNK        -0.1800 
     34 N           1.0353  -16.5247  -43.2811 N.am      8 UNK        -0.5000 
     35 C           1.9939  -16.8868  -44.1476 C.2       7 UNK         0.5000 
     36 O           1.8023  -17.6512  -45.0929 O.2       7 UNK        -0.5000 
     37 CA          3.4136  -16.3663  -43.8596 C.3       7 UNK         0.1400 
     38 CB          3.6157  -14.9493  -44.4160 C.3       7 UNK        -0.1800 
     39 N           3.6874  -16.3588  -42.4225 N.am      7 UNK        -0.5000 
     40 C           4.1619  -17.4056  -41.7342 C.2       6 UNK         0.5000 
     41 O           4.4615  -18.4817  -42.2507 O.2       6 UNK        -0.5000 
     42 CA          4.3300  -17.2272  -40.2122 C.3       6 UNK         0.1400 
     43 CB          5.7652  -16.7919  -39.8796 C.3       6 UNK        -0.1800 
     44 N           3.3946  -16.2588  -39.6375 N.am      6 UNK        -0.5000 
     45 C           2.0789  -16.4670  -39.4905 C.2       5 UNK         0.5000 
     46 O           1.5142  -17.5175  -39.7960 O.2       5 UNK        -0.5000 
     47 CA          1.2505  -15.2811  -38.9536 C.3       5 UNK         0.1400 
     48 CB          1.2129  -15.3040  -37.4183 C.3       5 UNK        -0.1800 
     49 N           1.7191  -13.9641  -39.4072 N.am      5 UNK        -0.5000 
     50 C           1.8258  -13.5940  -40.6895 C.2       4 UNK         0.5000 
     51 O           1.5943  -14.3513  -41.6358 O.2       4 UNK        -0.5000 
     52 CA          2.3077  -12.1660  -40.9751 C.3       4 UNK         0.1400 
     53 CB          3.8128  -12.0226  -40.6864 C.3       4 UNK        -0.1800 
     54 N           2.0472  -11.8993  -42.3834 N.am      4 UNK        -0.5000 
     55 C           1.9227  -10.7089  -42.9740 C.2       3 UNK         0.5000 
     56 O           2.0517   -9.6348  -42.3853 O.2       3 UNK        -0.5000 
     57 CA          1.6033  -10.7215  -44.4826 C.3       3 UNK         0.1400 
     58 CB          2.8880  -10.5115  -45.2988 C.3       3 UNK        -0.1800 
     59 N           0.9564  -11.9551  -44.9416 N.am      3 UNK        -0.5000 
     60 C          -0.3056  -12.3161  -44.6751 C.2       2 UNK         0.5000 
     61 O          -1.0674  -11.6493  -43.9732 O.2       2 UNK        -0.5000 
     62 CA         -0.7939  -13.6241  -45.3354 C.3       2 UNK         0.1400 
     63 CB         -2.2686  -13.9421  -45.0291 C.3       2 UNK        -0.1800 
     64 N          -0.6177  -13.5835  -46.7876 N.am      2 UNK        -0.5000 
     65 C           0.5206  -13.8584  -47.4378 C.2       1 UNK         0.5000 
     66 O           1.5487  -14.2202  -46.8683 O.2       1 UNK        -0.5000 
     67 C          -3.5880  -22.4620  -45.4816 C.2       11 UNK         0.5000 
     68 O          -4.2958  -23.2131  -46.1554 O.2       11 UNK        -0.5000 
     69 N          -2.9774  -22.8253  -44.3430 N.am      12 UNK        -0.5000 
     70 CA         -3.0503  -24.1569  -43.7406 C.3       12 UNK         0.1400 
     71 CB         -2.4710  -24.1076  -42.3187 C.3       12 UNK        -0.1800 
     72 C          -2.3417  -25.2305  -44.5857 C.2       12 UNK         0.5000 
     73 O          -2.8011  -26.3728  -44.6225 O.2       12 UNK        -0.5000 
     74 N          -1.2745  -24.8404  -45.2965 N.am      13 UNK        -0.5000 
     75 CA         -0.5465  -25.6551  -46.2721 C.3       13 UNK         0.1400 
     76 CB          0.8632  -25.0690  -46.4614 C.3       13 UNK        -0.1800 
     77 C          -1.3147  -25.7967  -47.6066 C.2       13 UNK         0.5000 
     78 O          -0.7737  -25.4970  -48.6730 O.2       13 UNK        -0.5000 
     79 N          -2.5703  -26.2560  -47.5141 N.am      14 UNK        -0.5000 
     80 CA         -3.5004  -26.5641  -48.6030 C.3       14 UNK         0.1400 
     81 CB         -3.0536  -27.8529  -49.3244 C.3       14 UNK        -0.1800 
     82 C          -3.7349  -25.3848  -49.5697 C.2       14 UNK         0.5000 
     83 O          -3.7080  -25.5797  -50.7859 O.2       14 UNK        -0.5000 
     84 N          -3.9508  -24.1833  -49.0089 N.am      15 UNK        -0.5000 
     85 CA         -4.2011  -22.9236  -49.7203 C.3       15 UNK         0.1400 
     86 CB         -5.5759  -22.9771  -50.4196 C.3       15 UNK        -0.1800 
     87 C          -3.0425  -22.5622  -50.6742 C.2       15 UNK         0.5000 
     88 O          -3.2446  -22.4211  -51.8821 O.2       15 UNK        -0.5000 
     89 N          -1.8320  -22.4831  -50.1039 N.am      16 UNK        -0.5000 
     90 CA         -0.5393  -22.2739  -50.7614 C.3       16 UNK         0.1400 
     91 CB         -0.4555  -20.8492  -51.3453 C.3       16 UNK        -0.1800 
     92 C          -0.2327  -23.3756  -51.7950 C.2       16 UNK         0.5000 
     93 O           0.1944  -23.0780  -52.9112 O.2       16 UNK        -0.5000 
     94 N          -0.5265  -24.6310  -51.4215 N.am      17 UNK        -0.5000 
     95 CA         -0.4696  -25.8459  -52.2454 C.3       17 UNK         0.1400 
     96 CB          0.9985  -26.2330  -52.5158 C.3       17 UNK        -0.1800 
     97 C          -1.3087  -25.7604  -53.5429 C.2       17 UNK         0.5000 
     98 O          -0.9824  -26.4224  -54.5292 O.2       17 UNK        -0.5000 
     99 N          -2.3463  -24.9095  -53.5268 N.am      18 UNK        -0.5000 
    100 CA        -3.2025  -24.4866  -54.6383 C.3       18 UNK         0.1400 
    101 CB        -3.9950  -25.6773  -55.2136 C.3       18 UNK        -0.1800 
    102 C         -2.4732  -23.6833  -55.7399 C.2       18 UNK         0.5000 
    103 O         -3.0923  -23.3700  -56.7578 O.2       18 UNK        -0.5000 
    104 N         -1.1982  -23.3178  -55.5305 N.am      19 UNK        -0.5000 
    105 CA        -0.3734  -22.5781  -56.4921 C.3       19 UNK         0.1400 
    106 CB         1.1037  -22.6795  -56.0838 C.3       19 UNK        -0.1800 
    107 C         -0.7982  -21.1050  -56.6352 C.2       19 UNK         0.5000 
    108 O         -0.5596  -20.4991  -57.6801 O.2       19 UNK        -0.5000 
    109 N         -1.4546  -20.5708  -55.5972 N.am      20 UNK        -0.5000 
    110 CA        -2.0801  -19.2485  -55.5825 C.3       20 UNK         0.1400 
    111 CB        -2.2322  -18.8020  -54.1186 C.3       20 UNK        -0.1800 
    112 C         -3.4454  -19.2136  -56.3032 C.2       20 UNK         0.5000 
    113 O         -4.0414  -18.1394  -56.3940 O.2       20 UNK        -0.5000 
    114 N         -3.9441  -20.3769  -56.7553 N.am      21 UNK        -0.5000 
    115 CA        -5.2531  -20.6589  -57.3631 C.3       21 UNK         0.1400 
    116 CB        -5.4926  -19.8265  -58.6372 C.3       21 UNK        -0.1800 
    117 C         -6.4258  -20.5342  -56.3715 C.2       21 UNK         0.5000 
    118 O         -7.2494  -21.4455  -56.2888 O.2       21 UNK        -0.5000 
    119 N         -6.4501  -19.4356  -55.6086 N.am      22 UNK        -0.5000 
    120 CA        -7.3629  -19.1559  -54.4899 C.3       22 UNK         0.1400 
    121 C         -8.8488  -18.8921  -54.8864 C.2       22 UNK         0.5000 
    122 N         -9.1577  -18.6384  -56.1523 N.am      22 UNK        -0.7600 
    123 O         -9.7348  -18.8856  -54.0361 O.2       22 UNK        -0.5000 
    124 C124       -7.1968  -20.1885  -53.3337 C.3       23 UNK        -0.0398 
    125 S125       -7.0266  -19.3912  -51.7040 S.3       23 UNK        -0.2404 
    126 C126       -5.2064  -19.2636  -51.5853 C.3       23 UNK        -0.0205 
    127 H127       -1.6464   -9.7331  -48.7796 H         1 UNK         0.0600 
    128 H128       -2.0089  -10.7789  -50.1557 H         1 UNK         0.0600 
    129 H129       -0.7549   -9.5431  -50.2933 H         1 UNK         0.0600 
    130 H130       -1.1618  -12.8313  -49.9130 H         1 UNK         0.3000 
    131 H131        1.5573  -13.3389  -49.2119 H         1 UNK         0.0600 
    132 H132        0.5811  -14.8271  -50.7766 H         1 UNK         0.0800 
    133 H133        0.8714  -15.7709  -49.3505 H         1 UNK         0.0800 
    134 H134       -0.7664  -17.7326  -49.5689 H         1 UNK         0.0800 
    135 H135       -1.0704  -17.0117  -48.0005 H         1 UNK         0.0800 
    136 H136       -2.7719  -18.2160  -51.1064 H         1 UNK         0.1150 
    137 H137       -6.4292  -19.1718  -49.0668 H         1 UNK         0.1150 
    138 H138       -3.2260  -17.2883  -46.9507 H         1 UNK         0.1150 
    139 H139       -5.4276  -17.4592  -45.9284 H         1 UNK         0.0800 
    140 H140       -6.7965  -17.9262  -46.9001 H         1 UNK         0.0800 
    141 H141       -4.1598  -20.2125  -44.1130 H         1 UNK         0.0800 
    142 H142       -3.6613  -19.0027  -45.2444 H         1 UNK         0.0800 
    143 H143       -3.5907  -20.9668  -47.0210 H         1 UNK         0.0600 
    144 H144       -1.5842  -20.0323  -45.2365 H         1 UNK         0.3000 
    145 H145        1.1560  -21.8568  -46.5837 H         1 UNK         0.0600 
    146 H146        2.0255  -19.6289  -47.2356 H         1 UNK         0.0600 
    147 H147        0.8075  -20.1594  -48.3857 H         1 UNK         0.0600 
    148 H148        0.4015  -18.9473  -47.1761 H         1 UNK         0.0600 
    149 H149        1.0914  -19.6005  -44.8766 H         1 UNK         0.3000 
    150 H150       -0.2037  -21.0090  -41.9400 H         1 UNK         0.0600 
    151 H151        2.0350  -22.0595  -41.6967 H         1 UNK         0.0600 
    152 H152        1.9866  -20.5296  -40.8325 H         1 UNK         0.0600 
    153 H153        2.8060  -20.6392  -42.3908 H         1 UNK         0.0600 
    154 H154        1.2768  -18.6323  -42.2488 H         1 UNK         0.3000 
    155 H155       -0.7819  -16.7053  -44.2663 H         1 UNK         0.0600 
    156 H156       -2.2039  -16.4433  -42.2589 H         1 UNK         0.0600 
    157 H157       -1.0302  -15.1359  -42.3137 H         1 UNK         0.0600 
    158 H158       -0.7931  -16.4882  -41.2096 H         1 UNK         0.0600 
    159 H159        1.2784  -15.8542  -42.5549 H         1 UNK         0.3000 
    160 H160        4.1261  -17.0264  -44.3590 H         1 UNK         0.0600 
    161 H161        2.8325  -14.2651  -44.0908 H         1 UNK         0.0600 
    162 H162        3.6111  -14.9644  -45.5054 H         1 UNK         0.0600 
    163 H163        4.5748  -14.5336  -44.1069 H         1 UNK         0.0600 
    164 H164        3.4060  -15.5315  -41.9148 H         1 UNK         0.3000 
    165 H165        4.1503  -18.1978  -39.7446 H         1 UNK         0.0600 
    166 H166        5.9199  -16.7325  -38.8021 H         1 UNK         0.0600 
    167 H167        6.4908  -17.5059  -40.2718 H         1 UNK         0.0600 
    168 H168        6.0000  -15.8165  -40.3079 H         1 UNK         0.0600 
    169 H169        3.7744  -15.3665  -39.3577 H         1 UNK         0.3000 
    170 H170        0.2292  -15.4063  -39.3175 H         1 UNK         0.0600 
    171 H171        0.8477  -16.2640  -37.0505 H         1 UNK         0.0600 
    172 H172        2.2023  -15.1425  -36.9885 H         1 UNK         0.0600 
    173 H173        0.5467  -14.5343  -37.0281 H         1 UNK         0.0600 
    174 H174        1.9396  -13.2939  -38.6845 H         1 UNK         0.3000 
    175 H175        1.7347  -11.4716  -40.3576 H         1 UNK         0.0600 
    176 H176        4.4043  -12.7154  -41.2868 H         1 UNK         0.0600 
    177 H177        4.1625  -11.0130  -40.9027 H         1 UNK         0.0600 
    178 H178        4.0352  -12.2216  -39.6376 H         1 UNK         0.0600 
    179 H179        1.8608  -12.7349  -42.9223 H         1 UNK         0.3000 
    180 H180        0.9285   -9.8870  -44.6839 H         1 UNK         0.0600 
    181 H181        3.5943  -11.3302  -45.1538 H         1 UNK         0.0600 
    182 H182        3.3904   -9.5878  -45.0086 H         1 UNK         0.0600 
    183 H183        2.6706  -10.4406  -46.3647 H         1 UNK         0.0600 
    184 H184        1.4980  -12.5554  -45.5529 H         1 UNK         0.3000 
    185 H185       -0.1873  -14.4319  -44.9229 H         1 UNK         0.0600 
    186 H186       -2.4463  -13.9960  -43.9547 H         1 UNK         0.0600 
    187 H187       -2.9367  -13.1810  -45.4338 H         1 UNK         0.0600 
    188 H188       -2.5596  -14.9034  -45.4534 H         1 UNK         0.0600 
    189 H189       -1.4031  -13.2510  -47.3278 H         1 UNK         0.3000 
    190 H190       -2.3685  -22.1607  -43.8882 H         1 UNK         0.3000 
    191 H191       -4.1038  -24.4354  -43.6692 H         1 UNK         0.0600 
    192 H192       -1.4157  -23.8339  -42.3195 H         1 UNK         0.0600 
    193 H193       -3.0048  -23.3866  -41.6994 H         1 UNK         0.0600 
    194 H194       -2.5556  -25.0796  -41.8309 H         1 UNK         0.0600 
    195 H195       -0.9530  -23.8869  -45.1823 H         1 UNK         0.3000 
    196 H196       -0.4307  -26.6601  -45.8614 H         1 UNK         0.0600 
    197 H197        1.4762  -25.7235  -47.0819 H         1 UNK         0.0600 
    198 H198        1.3763  -24.9490  -45.5070 H         1 UNK         0.0600 
    199 H199        0.8292  -24.0967  -46.9504 H         1 UNK         0.0600 
    200 H200       -2.9126  -26.4435  -46.5764 H         1 UNK         0.3000 
    201 H201       -4.4651  -26.7662  -48.1357 H         1 UNK         0.0600 
    202 H202       -3.7783  -28.1518  -50.0828 H         1 UNK         0.0600 
    203 H203       -2.9598  -28.6828  -48.6240 H         1 UNK         0.0600 
    204 H204       -2.0916  -27.7254  -49.8206 H         1 UNK         0.0600 
    205 H205       -3.9377  -24.1115  -47.9965 H         1 UNK         0.3000 
    206 H206       -4.2455  -22.1370  -48.9668 H         1 UNK         0.0600 
    207 H207       -6.3633  -23.2496  -49.7172 H         1 UNK         0.0600 
    208 H208       -5.8426  -22.0087  -50.8366 H         1 UNK         0.0600 
    209 H209       -5.5922  -23.6983  -51.2374 H         1 UNK         0.0600 
    210 H210       -1.7635  -22.6109  -49.0949 H         1 UNK         0.3000 
    211 H211        0.2203  -22.3614  -49.9834 H         1 UNK         0.0600 
    212 H212       -0.6761  -20.0987  -50.5866 H         1 UNK         0.0600 
    213 H213        0.5431  -20.6414  -51.7308 H         1 UNK         0.0600 
    214 H214       -1.1584  -20.7123  -52.1660 H         1 UNK         0.0600 
    215 H215       -0.8401  -24.7812  -50.4652 H         1 UNK         0.3000 
    216 H216       -0.9190  -26.6387  -51.6470 H         1 UNK         0.0600 
    217 H217        1.0654  -27.2054  -53.0048 H         1 UNK         0.0600 
    218 H218        1.4948  -25.5067  -53.1605 H         1 UNK         0.0600 
    219 H219        1.5648  -26.2998  -51.5868 H         1 UNK         0.0600 
    220 H220       -2.5319  -24.4279  -52.6538 H         1 UNK         0.3000 
    221 H221       -3.9258  -23.7968  -54.2014 H         1 UNK         0.0600 
    222 H222       -3.3494  -26.3795  -55.7412 H         1 UNK         0.0600 
    223 H223       -4.5131  -26.2229  -54.4248 H         1 UNK         0.0600 
    224 H224       -4.7516  -25.3374  -55.9217 H         1 UNK         0.0600 
    225 H225       -0.7602  -23.5409  -54.6422 H         1 UNK         0.3000 
    226 H226       -0.4877  -23.0516  -57.4695 H         1 UNK         0.0600 
    227 H227        1.4129  -23.7187  -55.9696 H         1 UNK         0.0600 
    228 H228        1.7476  -22.2286  -56.8400 H         1 UNK         0.0600 
    229 H229        1.2985  -22.1653  -55.1422 H         1 UNK         0.0600 
    230 H230       -1.5904  -21.1469  -54.7787 H         1 UNK         0.3000 
    231 H231       -1.4253  -18.5384  -56.0915 H         1 UNK         0.0600 
    232 H232       -2.6979  -17.8180  -54.0491 H         1 UNK         0.0600 
    233 H233       -1.2619  -18.7315  -53.6268 H         1 UNK         0.0600 
    234 H234       -2.8487  -19.4991  -53.5501 H         1 UNK         0.0600 
    235 H235       -3.3752  -21.2034  -56.6194 H         1 UNK         0.3000 
    236 H236       -5.2115  -21.7064  -57.6662 H         1 UNK         0.0600 
    237 H237       -4.6754  -19.9515  -59.3475 H         1 UNK         0.0600 
    238 H238       -6.4090  -20.1420  -59.1373 H         1 UNK         0.0600 
    239 H239       -5.5916  -18.7622  -58.4235 H         1 UNK         0.0600 
    240 H240       -5.7250  -18.7436  -55.7786 H         1 UNK         0.3000 
    241 H241       -7.0187  -18.1865  -54.1279 H         1 UNK         0.0600 
    242 H242      -10.1172  -18.4586  -56.4041 H         1 UNK         0.3800 
    243 H243       -8.4421  -18.6310  -56.8614 H         1 UNK         0.3800 
    244 H244       -8.0345  -20.8872  -53.2988 H         1 UNK         0.0800 
    245 H245       -6.3187  -20.8171  -53.4884 H         1 UNK         0.0800 
    246 H246       -4.8719  -18.5978  -52.3823 H         1 UNK         0.0800 
    247 H247       -4.7538  -20.2328  -51.7876 H         1 UNK         0.0800 
@<TRIPOS>BOND
     1    1    2 1    
     2    1  127 1    
     3    1  128 1    
     4    1  129 1    
     5    2    3 2    
     6    2    4 am   BACKBONE|DICT|INTERRES
     7    4    5 1    
     8    4  130 1    
     9    5    6 1    
    10    5   65 1    
    11    5  131 1    
    12    6    7 1    
    13    6  132 1    
    14    6  133 1    
    15    7    8 1    
    16    8    9 1    
    17    8  134 1    
    18    8  135 1    
    19    9   10 ar   
    20    9   14 ar   
    21   10   11 ar   
    22   10  136 1    
    23   11   12 ar   
    24   11  126 1    
    25   12   13 ar   
    26   12  137 1    
    27   13   14 ar   
    28   13   15 1    
    29   14  138 1    
    30   15   16 1    
    31   15  139 1    
    32   15  140 1    
    33   16   17 1    
    34   17   18 1    
    35   17  141 1    
    36   17  142 1    
    37   18   19 1    
    38   18   67 1    
    39   18  143 1    
    40   19   20 am   BACKBONE|DICT|INTERRES
    41   19  144 1    
    42   20   21 2    
    43   20   22 1    
    44   22   23 1    
    45   22   24 1    
    46   22  145 1    
    47   23  146 1    
    48   23  147 1    
    49   23  148 1    
    50   24   25 am   BACKBONE|DICT|INTERRES
    51   24  149 1    
    52   25   26 2    
    53   25   27 1    
    54   27   28 1    
    55   27   29 1    
    56   27  150 1    
    57   28  151 1    
    58   28  152 1    
    59   28  153 1    
    60   29   30 am   BACKBONE|DICT|INTERRES
    61   29  154 1    
    62   30   31 2    
    63   30   32 1    
    64   32   33 1    
    65   32   34 1    
    66   32  155 1    
    67   33  156 1    
    68   33  157 1    
    69   33  158 1    
    70   34   35 am   BACKBONE|DICT|INTERRES
    71   34  159 1    
    72   35   36 2    
    73   35   37 1    
    74   37   38 1    
    75   37   39 1    
    76   37  160 1    
    77   38  161 1    
    78   38  162 1    
    79   38  163 1    
    80   39   40 am   BACKBONE|DICT|INTERRES
    81   39  164 1    
    82   40   41 2    
    83   40   42 1    
    84   42   43 1    
    85   42   44 1    
    86   42  165 1    
    87   43  166 1    
    88   43  167 1    
    89   43  168 1    
    90   44   45 am   BACKBONE|DICT|INTERRES
    91   44  169 1    
    92   45   46 2    
    93   45   47 1    
    94   47   48 1    
    95   47   49 1    
    96   47  170 1    
    97   48  171 1    
    98   48  172 1    
    99   48  173 1    
   100   49   50 am   BACKBONE|DICT|INTERRES
   101   49  174 1    
   102   50   51 2    
   103   50   52 1    
   104   52   53 1    
   105   52   54 1    
   106   52  175 1    
   107   53  176 1    
   108   53  177 1    
   109   53  178 1    
   110   54   55 am   BACKBONE|DICT|INTERRES
   111   54  179 1    
   112   55   56 2    
   113   55   57 1    
   114   57   58 1    
   115   57   59 1    
   116   57  180 1    
   117   58  181 1    
   118   58  182 1    
   119   58  183 1    
   120   59   60 am   BACKBONE|DICT|INTERRES
   121   59  184 1    
   122   60   61 2    
   123   60   62 1    
   124   62   63 1    
   125   62   64 1    
   126   62  185 1    
   127   63  186 1    
   128   63  187 1    
   129   63  188 1    
   130   64   65 am   BACKBONE|DICT|INTERRES
   131   64  189 1    
   132   65   66 2    
   133   67   68 2    
   134   67   69 am   BACKBONE|DICT|INTERRES
   135   69   70 1    
   136   69  190 1    
   137   70   71 1    
   138   70   72 1    
   139   70  191 1    
   140   71  192 1    
   141   71  193 1    
   142   71  194 1    
   143   72   73 2    
   144   72   74 am   BACKBONE|DICT|INTERRES
   145   74   75 1    
   146   74  195 1    
   147   75   76 1    
   148   75   77 1    
   149   75  196 1    
   150   76  197 1    
   151   76  198 1    
   152   76  199 1    
   153   77   78 2    
   154   77   79 am   BACKBONE|DICT|INTERRES
   155   79   80 1    
   156   79  200 1    
   157   80   81 1    
   158   80   82 1    
   159   80  201 1    
   160   81  202 1    
   161   81  203 1    
   162   81  204 1    
   163   82   83 2    
   164   82   84 am   BACKBONE|DICT|INTERRES
   165   84   85 1    
   166   84  205 1    
   167   85   86 1    
   168   85   87 1    
   169   85  206 1    
   170   86  207 1    
   171   86  208 1    
   172   86  209 1    
   173   87   88 2    
   174   87   89 am   BACKBONE|DICT|INTERRES
   175   89   90 1    
   176   89  210 1    
   177   90   91 1    
   178   90   92 1    
   179   90  211 1    
   180   91  212 1    
   181   91  213 1    
   182   91  214 1    
   183   92   93 2    
   184   92   94 am   BACKBONE|DICT|INTERRES
   185   94   95 1    
   186   94  215 1    
   187   95   96 1    
   188   95   97 1    
   189   95  216 1    
   190   96  217 1    
   191   96  218 1    
   192   96  219 1    
   193   97   98 2    
   194   97   99 am   BACKBONE|DICT|INTERRES
   195   99  100 1    
   196   99  220 1    
   197  100  101 1    
   198  100  102 1    
   199  100  221 1    
   200  101  222 1    
   201  101  223 1    
   202  101  224 1    
   203  102  103 2    
   204  102  104 am   BACKBONE|DICT|INTERRES
   205  104  105 1    
   206  104  225 1    
   207  105  106 1    
   208  105  107 1    
   209  105  226 1    
   210  106  227 1    
   211  106  228 1    
   212  106  229 1    
   213  107  108 2    
   214  107  109 am   BACKBONE|DICT|INTERRES
   215  109  110 1    
   216  109  230 1    
   217  110  111 1    
   218  110  112 1    
   219  110  231 1    
   220  111  232 1    
   221  111  233 1    
   222  111  234 1    
   223  112  113 2    
   224  112  114 am   BACKBONE|DICT|INTERRES
   225  114  115 1    
   226  114  235 1    
   227  115  116 1    
   228  115  117 1    
   229  115  236 1    
   230  116  237 1    
   231  116  238 1    
   232  116  239 1    
   233  117  118 2    
   234  117  119 am   BACKBONE|DICT|INTERRES
   235  119  120 1    
   236  119  240 1    
   237  120  121 1    
   238  120  124 1    
   239  120  241 1    
   240  121  122 am   BACKBONE|DICT|INTERRES
   241  121  123 2    
   242  122  242 1    
   243  122  243 1    
   244  124  125 1    
   245  124  244 1    
   246  124  245 1    
   247  125  126 1    
   248  126  246 1    
   249  126  247 1    
@<TRIPOS>SUBSTRUCTURE
     1 UNK         1 GROUP             0       ****    0 ROOT    
