@<TRIPOS>MOLECULE
3R540
247   249    1
SMALL
USER_CHARGES


@<TRIPOS>ATOM
      1 CA          5.4977  -16.9165  -42.6383 C.3       0 UNK        -0.1800 
      2 C           4.4344  -16.0598  -43.3104 C.2       0 UNK         0.5000 
      3 O           3.4064  -15.7724  -42.6996 O.2       0 UNK        -0.5000 
      4 N           4.6741  -15.6647  -44.5666 N.am      1 UNK        -0.5000 
      5 CA          3.7751  -14.8412  -45.3803 C.3       1 UNK         0.1400 
      6 C6          4.2765  -14.7131  -46.8402 C.3       23 UNK        -0.0398 
      7 S7          4.2688  -16.2903  -47.7496 S.3       23 UNK        -0.2404 
      8 C8          2.4794  -16.4861  -48.0216 C.3       23 UNK        -0.0205 
      9 C9          2.1558  -17.3654  -49.2184 C.ar      23 UNK        -0.0193 
     10 C10         1.3184  -16.8780  -50.2238 C.ar      23 UNK        -0.1150 
     11 C11         0.9345  -17.6927  -51.2938 C.ar      23 UNK        -0.0193 
     12 C12         1.4441  -18.9924  -51.3767 C.ar      23 UNK        -0.1150 
     13 C13         2.2985  -19.4878  -50.3873 C.ar      23 UNK        -0.0193 
     14 C14         2.6400  -18.6739  -49.3031 C.ar      23 UNK        -0.1150 
     15 C15         2.8503  -20.9031  -50.4880 C.3       23 UNK        -0.0205 
     16 S16         1.5898  -22.1643  -50.1215 S.3       23 UNK        -0.2404 
     17 C17         1.1022  -21.6935  -48.4324 C.3       23 UNK        -0.0398 
     18 CA          0.4055  -22.8133  -47.6242 C.3       11 UNK         0.1400 
     19 N           0.3477  -22.4244  -46.2144 N.am      11 UNK        -0.5000 
     20 C           0.0520  -23.2076  -45.1715 C.2       10 UNK         0.5000 
     21 O          -0.2115  -24.4039  -45.2809 O.2       10 UNK        -0.5000 
     22 CA         -0.0246  -22.5167  -43.7907 C.3       10 UNK         0.1400 
     23 CB          0.4670  -23.4235  -42.6443 C.3       10 UNK        -0.1800 
     24 N           0.6271  -21.1986  -43.7616 N.am      10 UNK        -0.5000 
     25 C           1.9353  -20.9231  -43.8868 C.2       9 UNK         0.5000 
     26 O           2.8155  -21.7819  -43.9395 O.2       9 UNK        -0.5000 
     27 CA          2.3317  -19.4396  -44.0320 C.3       9 UNK         0.1400 
     28 CB          2.8712  -19.1683  -45.4446 C.3       9 UNK        -0.1800 
     29 N           1.2255  -18.5152  -43.7775 N.am      9 UNK        -0.5000 
     30 C           0.8497  -18.0893  -42.5641 C.2       8 UNK         0.5000 
     31 O           1.4029  -18.4234  -41.5160 O.2       8 UNK        -0.5000 
     32 CA         -0.3860  -17.1711  -42.5185 C.3       8 UNK         0.1400 
     33 CB          0.0108  -15.7013  -42.7330 C.3       8 UNK        -0.1800 
     34 N          -1.3959  -17.5594  -43.5075 N.am      8 UNK        -0.5000 
     35 C          -2.1656  -18.6538  -43.3995 C.2       7 UNK         0.5000 
     36 O          -2.1031  -19.4369  -42.4522 O.2       7 UNK        -0.5000 
     37 CA         -3.1506  -18.9526  -44.5466 C.3       7 UNK         0.1400 
     38 CB         -4.5308  -18.3551  -44.2415 C.3       7 UNK        -0.1800 
     39 N          -2.6944  -18.4790  -45.8536 N.am      7 UNK        -0.5000 
     40 C          -1.6090  -18.9392  -46.4898 C.2       6 UNK         0.5000 
     41 O          -0.9270  -19.8790  -46.0813 O.2       6 UNK        -0.5000 
     42 CA         -1.1978  -18.2220  -47.7857 C.3       6 UNK         0.1400 
     43 CB         -1.8070  -18.9393  -48.9912 C.3       6 UNK        -0.1800 
     44 N          -1.5828  -16.8119  -47.8260 N.am      6 UNK        -0.5000 
     45 C          -1.1863  -15.8815  -46.9523 C.2       5 UNK         0.5000 
     46 O          -0.3719  -16.0926  -46.0517 O.2       5 UNK        -0.5000 
     47 CA         -1.7991  -14.4916  -47.1411 C.3       5 UNK         0.1400 
     48 CB         -1.6384  -13.6005  -45.8978 C.3       5 UNK        -0.1800 
     49 N          -1.1348  -13.8704  -48.2760 N.am      5 UNK        -0.5000 
     50 C          -1.7266  -13.2056  -49.2704 C.2       4 UNK         0.5000 
     51 O          -2.9406  -13.0096  -49.3350 O.2       4 UNK        -0.5000 
     52 CA         -0.7803  -12.6372  -50.3502 C.3       4 UNK         0.1400 
     53 CB         -1.5387  -12.0520  -51.5547 C.3       4 UNK        -0.1800 
     54 N           0.1086  -11.6095  -49.7996 N.am      4 UNK        -0.5000 
     55 C           1.1688  -11.8431  -49.0146 C.2       3 UNK         0.5000 
     56 O           1.5486  -12.9793  -48.7190 O.2       3 UNK        -0.5000 
     57 CA          1.9380  -10.6304  -48.4470 C.3       3 UNK         0.1400 
     58 CB          1.2527   -9.2639  -48.6771 C.3       3 UNK        -0.1800 
     59 N           2.2574  -10.8471  -47.0311 N.am      3 UNK        -0.5000 
     60 C           1.3880  -10.9564  -46.0149 C.2       2 UNK         0.5000 
     61 O           0.1828  -10.7201  -46.1041 O.2       2 UNK        -0.5000 
     62 CA          1.9733  -11.5200  -44.7103 C.3       2 UNK         0.1400 
     63 CB          0.9816  -11.4947  -43.5324 C.3       2 UNK        -0.1800 
     64 N           2.3582  -12.9007  -44.9858 N.am      2 UNK        -0.5000 
     65 C           3.5691  -13.4303  -44.7916 C.2       1 UNK         0.5000 
     66 O           4.5067  -12.8378  -44.2518 O.2       1 UNK        -0.5000 
     67 C          -1.0020  -23.1460  -48.1701 C.2       11 UNK         0.5000 
     68 O          -1.1467  -24.0144  -49.0351 O.2       11 UNK        -0.5000 
     69 N          -2.0246  -22.4706  -47.6253 N.am      12 UNK        -0.5000 
     70 CA         -3.4339  -22.7515  -47.8886 C.3       12 UNK         0.1400 
     71 CB         -4.2894  -21.5803  -47.3921 C.3       12 UNK        -0.1800 
     72 C          -3.8801  -24.0715  -47.2390 C.2       12 UNK         0.5000 
     73 O          -4.5248  -24.8834  -47.9012 O.2       12 UNK        -0.5000 
     74 N          -3.4886  -24.2742  -45.9721 N.am      13 UNK        -0.5000 
     75 CA         -3.7881  -25.4681  -45.1754 C.3       13 UNK         0.1400 
     76 CB         -3.3969  -25.2131  -43.7118 C.3       13 UNK        -0.1800 
     77 C          -3.0995  -26.7365  -45.7123 C.2       13 UNK         0.5000 
     78 O          -3.6936  -27.8142  -45.6794 O.2       13 UNK        -0.5000 
     79 N          -1.8798  -26.5728  -46.2419 N.am      14 UNK        -0.5000 
     80 CA         -1.1140  -27.6031  -46.9466 C.3       14 UNK         0.1400 
     81 CB          0.3391  -27.1207  -47.0853 C.3       14 UNK        -0.1800 
     82 C          -1.6871  -27.9633  -48.3341 C.2       14 UNK         0.5000 
     83 O          -1.2340  -28.9405  -48.9306 O.2       14 UNK        -0.5000 
     84 N          -2.6436  -27.1620  -48.8304 N.am      15 UNK        -0.5000 
     85 CA         -3.2938  -27.2449  -50.1418 C.3       15 UNK         0.1400 
     86 CB         -4.0879  -28.5585  -50.2935 C.3       15 UNK        -0.1800 
     87 C          -2.3327  -26.9784  -51.3191 C.2       15 UNK         0.5000 
     88 O          -2.6015  -27.4119  -52.4403 O.2       15 UNK        -0.5000 
     89 N          -1.2404  -26.2506  -51.0506 N.am      16 UNK        -0.5000 
     90 CA         -0.2742  -25.8087  -52.0518 C.3       16 UNK         0.1400 
     91 CB          1.0906  -25.5892  -51.3834 C.3       16 UNK        -0.1800 
     92 C          -0.7824  -24.5454  -52.7650 C.2       16 UNK         0.5000 
     93 O          -0.7799  -24.5006  -53.9957 O.2       16 UNK        -0.5000 
     94 N          -1.2646  -23.5699  -51.9817 N.am      17 UNK        -0.5000 
     95 CA         -2.0021  -22.4107  -52.4903 C.3       17 UNK         0.1400 
     96 CB         -1.8672  -21.2398  -51.5085 C.3       17 UNK        -0.1800 
     97 C          -3.4881  -22.7488  -52.6990 C.2       17 UNK         0.5000 
     98 O          -4.0927  -22.2712  -53.6582 O.2       17 UNK        -0.5000 
     99 N          -4.0385  -23.5622  -51.7820 N.am      18 UNK        -0.5000 
    100 CA        -5.4188  -24.0657  -51.7321 C.3       18 UNK         0.1400 
    101 CB        -5.6989  -24.9964  -52.9296 C.3       18 UNK        -0.1800 
    102 C         -6.5089  -22.9821  -51.5587 C.2       18 UNK         0.5000 
    103 O         -7.6912  -23.2773  -51.7402 O.2       18 UNK        -0.5000 
    104 N         -6.1114  -21.7637  -51.1778 N.am      19 UNK        -0.5000 
    105 CA        -6.9793  -20.6289  -50.8926 C.3       19 UNK         0.1400 
    106 CB        -7.3410  -19.8975  -52.1951 C.3       19 UNK        -0.1800 
    107 C         -6.2209  -19.7078  -49.9340 C.2       19 UNK         0.5000 
    108 O         -5.0287  -19.4786  -50.1457 O.2       19 UNK        -0.5000 
    109 N         -6.9134  -19.2072  -48.9026 N.am      20 UNK        -0.5000 
    110 CA        -6.3493  -18.4398  -47.7855 C.3       20 UNK         0.1400 
    111 CB        -7.4679  -18.1291  -46.7792 C.3       20 UNK        -0.1800 
    112 C         -5.6240  -17.1447  -48.1890 C.2       20 UNK         0.5000 
    113 O         -4.6148  -16.7989  -47.5725 O.2       20 UNK        -0.5000 
    114 N         -6.1505  -16.4760  -49.2205 N.am      21 UNK        -0.5000 
    115 CA        -5.6389  -15.2209  -49.7705 C.3       21 UNK         0.1400 
    116 CB        -6.7817  -14.1897  -49.7828 C.3       21 UNK        -0.1800 
    117 C         -5.0239  -15.4206  -51.1706 C.2       21 UNK         0.5000 
    118 O         -4.9750  -14.4702  -51.9523 O.2       21 UNK        -0.5000 
    119 N         -4.5856  -16.6517  -51.4750 N.am      22 UNK        -0.5000 
    120 CA        -3.9215  -17.0594  -52.7301 C.3       22 UNK         0.1400 
    121 C         -4.8530  -17.1363  -53.9787 C.2       22 UNK         0.5000 
    122 N         -6.1609  -16.9485  -53.8530 N.am      22 UNK        -0.7600 
    123 O         -4.3865  -17.4031  -55.0828 O.2       22 UNK        -0.5000 
    124 C124       -2.6219  -16.2559  -53.0349 C.3       23 UNK        -0.0398 
    125 S125       -1.4439  -16.2697  -51.6430 S.3       23 UNK        -0.2404 
    126 C126       -0.0365  -17.1872  -52.3556 C.3       23 UNK        -0.0205 
    127 H127        6.3177  -17.1525  -43.3171 H         1 UNK         0.0600 
    128 H128        5.9089  -16.3939  -41.7748 H         1 UNK         0.0600 
    129 H129        5.0611  -17.8541  -42.2943 H         1 UNK         0.0600 
    130 H130        5.5433  -15.9246  -45.0095 H         1 UNK         0.3000 
    131 H131        2.8036  -15.3407  -45.3854 H         1 UNK         0.0600 
    132 H132        5.2931  -14.3163  -46.8585 H         1 UNK         0.0800 
    133 H133        3.6734  -14.0008  -47.4063 H         1 UNK         0.0800 
    134 H134        2.0233  -15.5046  -48.1491 H         1 UNK         0.0800 
    135 H135        2.0204  -16.9160  -47.1321 H         1 UNK         0.0800 
    136 H136        0.9356  -15.8697  -50.1554 H         1 UNK         0.1150 
    137 H137        1.1669  -19.6295  -52.2048 H         1 UNK         0.1150 
    138 H138        3.2863  -19.0548  -48.5250 H         1 UNK         0.1150 
    139 H139        3.2326  -21.0696  -51.4960 H         1 UNK         0.0800 
    140 H140        3.6988  -21.0362  -49.8150 H         1 UNK         0.0800 
    141 H141        2.0120  -21.3931  -47.9101 H         1 UNK         0.0800 
    142 H142        0.4810  -20.7995  -48.4823 H         1 UNK         0.0800 
    143 H143        1.0093  -23.7204  -47.6928 H         1 UNK         0.0600 
    144 H144        0.4262  -21.4320  -46.0273 H         1 UNK         0.3000 
    145 H145       -1.0839  -22.3224  -43.6172 H         1 UNK         0.0600 
    146 H146        0.4085  -22.9113  -41.6840 H         1 UNK         0.0600 
    147 H147       -0.1438  -24.3235  -42.5685 H         1 UNK         0.0600 
    148 H148        1.4976  -23.7461  -42.7923 H         1 UNK         0.0600 
    149 H149       -0.0037  -20.4091  -43.7424 H         1 UNK         0.3000 
    150 H150        3.1348  -19.2457  -43.3182 H         1 UNK         0.0600 
    151 H151        3.6887  -19.8455  -45.6954 H         1 UNK         0.0600 
    152 H152        3.2635  -18.1551  -45.5196 H         1 UNK         0.0600 
    153 H153        2.0969  -19.2912  -46.2029 H         1 UNK         0.0600 
    154 H154        0.7067  -18.1897  -44.5809 H         1 UNK         0.3000 
    155 H155       -0.8309  -17.2562  -41.5247 H         1 UNK         0.0600 
    156 H156       -0.8616  -15.0479  -42.7345 H         1 UNK         0.0600 
    157 H157        0.5431  -15.5555  -43.6730 H         1 UNK         0.0600 
    158 H158        0.6717  -15.3604  -41.9353 H         1 UNK         0.0600 
    159 H159       -1.4542  -16.9899  -44.3419 H         1 UNK         0.3000 
    160 H160       -3.2560  -20.0377  -44.5994 H         1 UNK         0.0600 
    161 H161       -4.5243  -17.2664  -44.3076 H         1 UNK         0.0600 
    162 H162       -4.8644  -18.6234  -43.2381 H         1 UNK         0.0600 
    163 H163       -5.2783  -18.7332  -44.9360 H         1 UNK         0.0600 
    164 H164       -3.2260  -17.7323  -46.2881 H         1 UNK         0.3000 
    165 H165       -0.1116  -18.2849  -47.8545 H         1 UNK         0.0600 
    166 H166       -2.8749  -18.7451  -49.0671 H         1 UNK         0.0600 
    167 H167       -1.3419  -18.6210  -49.9212 H         1 UNK         0.0600 
    168 H168       -1.6720  -20.0157  -48.9172 H         1 UNK         0.0600 
    169 H169       -2.2602  -16.5548  -48.5296 H         1 UNK         0.3000 
    170 H170       -2.8652  -14.6207  -47.3393 H         1 UNK         0.0600 
    171 H171       -2.1196  -14.0504  -45.0287 H         1 UNK         0.0600 
    172 H172       -0.5891  -13.4443  -45.6496 H         1 UNK         0.0600 
    173 H173       -2.0919  -12.6215  -46.0538 H         1 UNK         0.0600 
    174 H174       -0.1216  -13.9352  -48.2952 H         1 UNK         0.3000 
    175 H175       -0.1724  -13.4668  -50.7180 H         1 UNK         0.0600 
    176 H176       -0.8498  -11.7262  -52.3340 H         1 UNK         0.0600 
    177 H177       -2.1993  -12.7991  -51.9979 H         1 UNK         0.0600 
    178 H178       -2.1532  -11.1973  -51.2693 H         1 UNK         0.0600 
    179 H179       -0.1619  -10.6513  -49.9659 H         1 UNK         0.3000 
    180 H180        2.8932  -10.6092  -48.9733 H         1 UNK         0.0600 
    181 H181        1.8269   -8.4591  -48.2180 H         1 UNK         0.0600 
    182 H182        1.1803   -9.0347  -49.7408 H         1 UNK         0.0600 
    183 H183        0.2453   -9.2284  -48.2613 H         1 UNK         0.0600 
    184 H184        3.2177  -11.1013  -46.8486 H         1 UNK         0.3000 
    185 H185        2.8410  -10.9115  -44.4468 H         1 UNK         0.0600 
    186 H186        0.6565  -10.4760  -43.3185 H         1 UNK         0.0600 
    187 H187        0.0909  -12.0899  -43.7352 H         1 UNK         0.0600 
    188 H188        1.4426  -11.8871  -42.6258 H         1 UNK         0.0600 
    189 H189        1.6612  -13.4477  -45.4716 H         1 UNK         0.3000 
    190 H190       -1.8127  -21.7621  -46.9350 H         1 UNK         0.3000 
    191 H191       -3.5766  -22.8405  -48.9666 H         1 UNK         0.0600 
    192 H192       -5.3425  -21.7392  -47.6272 H         1 UNK         0.0600 
    193 H193       -3.9847  -20.6508  -47.8702 H         1 UNK         0.0600 
    194 H194       -4.2104  -21.4439  -46.3137 H         1 UNK         0.0600 
    195 H195       -2.9349  -23.5639  -45.5206 H         1 UNK         0.3000 
    196 H196       -4.8666  -25.6354  -45.2159 H         1 UNK         0.0600 
    197 H197       -3.6472  -26.0714  -43.0870 H         1 UNK         0.0600 
    198 H198       -3.9259  -24.3511  -43.3051 H         1 UNK         0.0600 
    199 H199       -2.3271  -25.0328  -43.6051 H         1 UNK         0.0600 
    200 H200       -1.4224  -25.6725  -46.1316 H         1 UNK         0.3000 
    201 H201       -1.1210  -28.5120  -46.3417 H         1 UNK         0.0600 
    202 H202        0.7824  -26.9174  -46.1103 H         1 UNK         0.0600 
    203 H203        0.4031  -26.2083  -47.6795 H         1 UNK         0.0600 
    204 H204        0.9601  -27.8739  -47.5720 H         1 UNK         0.0600 
    205 H205       -2.9571  -26.3940  -48.2505 H         1 UNK         0.3000 
    206 H206       -4.0168  -26.4302  -50.1622 H         1 UNK         0.0600 
    207 H207       -4.7541  -28.7158  -49.4452 H         1 UNK         0.0600 
    208 H208       -4.7072  -28.5389  -51.1911 H         1 UNK         0.0600 
    209 H209       -3.4308  -29.4249  -50.3708 H         1 UNK         0.0600 
    210 H210       -1.1212  -25.8828  -50.1146 H         1 UNK         0.3000 
    211 H211       -0.1516  -26.5894  -52.8058 H         1 UNK         0.0600 
    212 H212        1.0123  -24.9479  -50.5070 H         1 UNK         0.0600 
    213 H213        1.8000  -25.1286  -52.0721 H         1 UNK         0.0600 
    214 H214        1.5198  -26.5367  -51.0573 H         1 UNK         0.0600 
    215 H215       -1.1891  -23.6741  -50.9749 H         1 UNK         0.3000 
    216 H216       -1.5820  -22.0994  -53.4491 H         1 UNK         0.0600 
    217 H217       -2.3979  -20.3583  -51.8711 H         1 UNK         0.0600 
    218 H218       -0.8254  -20.9550  -51.3703 H         1 UNK         0.0600 
    219 H219       -2.2812  -21.4915  -50.5336 H         1 UNK         0.0600 
    220 H220       -3.4347  -23.8886  -51.0430 H         1 UNK         0.3000 
    221 H221       -5.4793  -24.6733  -50.8286 H         1 UNK         0.0600 
    222 H222       -5.7231  -24.4473  -53.8711 H         1 UNK         0.0600 
    223 H223       -4.9375  -25.7719  -53.0134 H         1 UNK         0.0600 
    224 H224       -6.6601  -25.5000  -52.8209 H         1 UNK         0.0600 
    225 H225       -5.1272  -21.5794  -51.0388 H         1 UNK         0.3000 
    226 H226       -7.8910  -20.9795  -50.4042 H         1 UNK         0.0600 
    227 H227       -7.9384  -19.0074  -51.9950 H         1 UNK         0.0600 
    228 H228       -6.4474  -19.5843  -52.7359 H         1 UNK         0.0600 
    229 H229       -7.9226  -20.5375  -52.8586 H         1 UNK         0.0600 
    230 H230       -7.8934  -19.4387  -48.8236 H         1 UNK         0.3000 
    231 H231       -5.6141  -19.0722  -47.2883 H         1 UNK         0.0600 
    232 H232       -7.0985  -17.5248  -45.9495 H         1 UNK         0.0600 
    233 H233       -7.8809  -19.0441  -46.3541 H         1 UNK         0.0600 
    234 H234       -8.2845  -17.5756  -47.2442 H         1 UNK         0.0600 
    235 H235       -6.9698  -16.8612  -49.6675 H         1 UNK         0.3000 
    236 H236       -4.8441  -14.8301  -49.1337 H         1 UNK         0.0600 
    237 H237       -7.5875  -14.4893  -50.4536 H         1 UNK         0.0600 
    238 H238       -7.2044  -14.0600  -48.7864 H         1 UNK         0.0600 
    239 H239       -6.4250  -13.2119  -50.1093 H         1 UNK         0.0600 
    240 H240       -4.6899  -17.3886  -50.7881 H         1 UNK         0.3000 
    241 H241       -3.6209  -18.0934  -52.5565 H         1 UNK         0.0600 
    242 H242       -6.7503  -17.0100  -54.6681 H         1 UNK         0.3800 
    243 H243       -6.5586  -16.7069  -52.9613 H         1 UNK         0.3800 
    244 H244       -2.8555  -15.2177  -53.2726 H         1 UNK         0.0800 
    245 H245       -2.1260  -16.6541  -53.9213 H         1 UNK         0.0800 
    246 H246        0.4985  -16.5437  -53.0548 H         1 UNK         0.0800 
    247 H247       -0.4239  -18.0296  -52.9310 H         1 UNK         0.0800 
@<TRIPOS>BOND
     1    1    2 1    
     2    1  127 1    
     3    1  128 1    
     4    1  129 1    
     5    2    3 2    
     6    2    4 am   BACKBONE|DICT|INTERRES
     7    4    5 1    
     8    4  130 1    
     9    5    6 1    
    10    5   65 1    
    11    5  131 1    
    12    6    7 1    
    13    6  132 1    
    14    6  133 1    
    15    7    8 1    
    16    8    9 1    
    17    8  134 1    
    18    8  135 1    
    19    9   10 ar   
    20    9   14 ar   
    21   10   11 ar   
    22   10  136 1    
    23   11   12 ar   
    24   11  126 1    
    25   12   13 ar   
    26   12  137 1    
    27   13   14 ar   
    28   13   15 1    
    29   14  138 1    
    30   15   16 1    
    31   15  139 1    
    32   15  140 1    
    33   16   17 1    
    34   17   18 1    
    35   17  141 1    
    36   17  142 1    
    37   18   19 1    
    38   18   67 1    
    39   18  143 1    
    40   19   20 am   BACKBONE|DICT|INTERRES
    41   19  144 1    
    42   20   21 2    
    43   20   22 1    
    44   22   23 1    
    45   22   24 1    
    46   22  145 1    
    47   23  146 1    
    48   23  147 1    
    49   23  148 1    
    50   24   25 am   BACKBONE|DICT|INTERRES
    51   24  149 1    
    52   25   26 2    
    53   25   27 1    
    54   27   28 1    
    55   27   29 1    
    56   27  150 1    
    57   28  151 1    
    58   28  152 1    
    59   28  153 1    
    60   29   30 am   BACKBONE|DICT|INTERRES
    61   29  154 1    
    62   30   31 2    
    63   30   32 1    
    64   32   33 1    
    65   32   34 1    
    66   32  155 1    
    67   33  156 1    
    68   33  157 1    
    69   33  158 1    
    70   34   35 am   BACKBONE|DICT|INTERRES
    71   34  159 1    
    72   35   36 2    
    73   35   37 1    
    74   37   38 1    
    75   37   39 1    
    76   37  160 1    
    77   38  161 1    
    78   38  162 1    
    79   38  163 1    
    80   39   40 am   BACKBONE|DICT|INTERRES
    81   39  164 1    
    82   40   41 2    
    83   40   42 1    
    84   42   43 1    
    85   42   44 1    
    86   42  165 1    
    87   43  166 1    
    88   43  167 1    
    89   43  168 1    
    90   44   45 am   BACKBONE|DICT|INTERRES
    91   44  169 1    
    92   45   46 2    
    93   45   47 1    
    94   47   48 1    
    95   47   49 1    
    96   47  170 1    
    97   48  171 1    
    98   48  172 1    
    99   48  173 1    
   100   49   50 am   BACKBONE|DICT|INTERRES
   101   49  174 1    
   102   50   51 2    
   103   50   52 1    
   104   52   53 1    
   105   52   54 1    
   106   52  175 1    
   107   53  176 1    
   108   53  177 1    
   109   53  178 1    
   110   54   55 am   BACKBONE|DICT|INTERRES
   111   54  179 1    
   112   55   56 2    
   113   55   57 1    
   114   57   58 1    
   115   57   59 1    
   116   57  180 1    
   117   58  181 1    
   118   58  182 1    
   119   58  183 1    
   120   59   60 am   BACKBONE|DICT|INTERRES
   121   59  184 1    
   122   60   61 2    
   123   60   62 1    
   124   62   63 1    
   125   62   64 1    
   126   62  185 1    
   127   63  186 1    
   128   63  187 1    
   129   63  188 1    
   130   64   65 am   BACKBONE|DICT|INTERRES
   131   64  189 1    
   132   65   66 2    
   133   67   68 2    
   134   67   69 am   BACKBONE|DICT|INTERRES
   135   69   70 1    
   136   69  190 1    
   137   70   71 1    
   138   70   72 1    
   139   70  191 1    
   140   71  192 1    
   141   71  193 1    
   142   71  194 1    
   143   72   73 2    
   144   72   74 am   BACKBONE|DICT|INTERRES
   145   74   75 1    
   146   74  195 1    
   147   75   76 1    
   148   75   77 1    
   149   75  196 1    
   150   76  197 1    
   151   76  198 1    
   152   76  199 1    
   153   77   78 2    
   154   77   79 am   BACKBONE|DICT|INTERRES
   155   79   80 1    
   156   79  200 1    
   157   80   81 1    
   158   80   82 1    
   159   80  201 1    
   160   81  202 1    
   161   81  203 1    
   162   81  204 1    
   163   82   83 2    
   164   82   84 am   BACKBONE|DICT|INTERRES
   165   84   85 1    
   166   84  205 1    
   167   85   86 1    
   168   85   87 1    
   169   85  206 1    
   170   86  207 1    
   171   86  208 1    
   172   86  209 1    
   173   87   88 2    
   174   87   89 am   BACKBONE|DICT|INTERRES
   175   89   90 1    
   176   89  210 1    
   177   90   91 1    
   178   90   92 1    
   179   90  211 1    
   180   91  212 1    
   181   91  213 1    
   182   91  214 1    
   183   92   93 2    
   184   92   94 am   BACKBONE|DICT|INTERRES
   185   94   95 1    
   186   94  215 1    
   187   95   96 1    
   188   95   97 1    
   189   95  216 1    
   190   96  217 1    
   191   96  218 1    
   192   96  219 1    
   193   97   98 2    
   194   97   99 am   BACKBONE|DICT|INTERRES
   195   99  100 1    
   196   99  220 1    
   197  100  101 1    
   198  100  102 1    
   199  100  221 1    
   200  101  222 1    
   201  101  223 1    
   202  101  224 1    
   203  102  103 2    
   204  102  104 am   BACKBONE|DICT|INTERRES
   205  104  105 1    
   206  104  225 1    
   207  105  106 1    
   208  105  107 1    
   209  105  226 1    
   210  106  227 1    
   211  106  228 1    
   212  106  229 1    
   213  107  108 2    
   214  107  109 am   BACKBONE|DICT|INTERRES
   215  109  110 1    
   216  109  230 1    
   217  110  111 1    
   218  110  112 1    
   219  110  231 1    
   220  111  232 1    
   221  111  233 1    
   222  111  234 1    
   223  112  113 2    
   224  112  114 am   BACKBONE|DICT|INTERRES
   225  114  115 1    
   226  114  235 1    
   227  115  116 1    
   228  115  117 1    
   229  115  236 1    
   230  116  237 1    
   231  116  238 1    
   232  116  239 1    
   233  117  118 2    
   234  117  119 am   BACKBONE|DICT|INTERRES
   235  119  120 1    
   236  119  240 1    
   237  120  121 1    
   238  120  124 1    
   239  120  241 1    
   240  121  122 am   BACKBONE|DICT|INTERRES
   241  121  123 2    
   242  122  242 1    
   243  122  243 1    
   244  124  125 1    
   245  124  244 1    
   246  124  245 1    
   247  125  126 1    
   248  126  246 1    
   249  126  247 1    
@<TRIPOS>SUBSTRUCTURE
     1 UNK         1 GROUP             0       ****    0 ROOT    
