@<TRIPOS>MOLECULE
3R540
247   249    1
SMALL
USER_CHARGES


@<TRIPOS>ATOM
      1 CA          4.1123  -19.3376  -46.3025 C.3       0 UNK        -0.1800 
      2 C           3.9583  -17.9670  -45.6607 C.2       0 UNK         0.5000 
      3 O           3.5021  -17.8736  -44.5220 O.2       0 UNK        -0.5000 
      4 N           4.3637  -16.9038  -46.3705 N.am      1 UNK        -0.5000 
      5 CA          4.1927  -15.4964  -45.9735 C.3       1 UNK         0.1400 
      6 C6          4.4653  -14.5102  -47.1356 C.3       23 UNK        -0.0398 
      7 S7          3.3103  -14.7611  -48.5280 S.3       23 UNK        -0.2404 
      8 C8          4.4204  -15.1805  -49.9063 C.3       23 UNK        -0.0205 
      9 C9          3.9032  -16.3825  -50.6785 C.ar      23 UNK        -0.0193 
     10 C10         3.0356  -16.2132  -51.7627 C.ar      23 UNK        -0.1150 
     11 C11         2.5911  -17.3198  -52.4938 C.ar      23 UNK        -0.0193 
     12 C12         3.0323  -18.5965  -52.1390 C.ar      23 UNK        -0.1150 
     13 C13         3.8572  -18.7828  -51.0270 C.ar      23 UNK        -0.0193 
     14 C14         4.3001  -17.6701  -50.3084 C.ar      23 UNK        -0.1150 
     15 C15         4.2509  -20.1861  -50.5858 C.3       23 UNK        -0.0205 
     16 S16         2.8064  -21.2756  -50.3503 S.3       23 UNK        -0.2404 
     17 C17         1.7268  -20.2624  -49.2783 C.3       23 UNK        -0.0398 
     18 CA          0.8368  -21.1292  -48.3588 C.3       11 UNK         0.1400 
     19 N           0.3150  -20.3717  -47.2196 N.am      11 UNK        -0.5000 
     20 C          -0.2453  -20.9322  -46.1379 C.2       10 UNK         0.5000 
     21 O          -0.3333  -22.1475  -45.9640 O.2       10 UNK        -0.5000 
     22 CA         -0.8571  -19.9706  -45.1057 C.3       10 UNK         0.1400 
     23 CB          0.2301  -19.4279  -44.1682 C.3       10 UNK        -0.1800 
     24 N          -1.5711  -18.8642  -45.7484 N.am      10 UNK        -0.5000 
     25 C          -2.7170  -19.0235  -46.4313 C.2       9 UNK         0.5000 
     26 O          -3.3006  -20.1011  -46.5269 O.2       9 UNK        -0.5000 
     27 CA         -3.2966  -17.8062  -47.1753 C.3       9 UNK         0.1400 
     28 CB         -4.3880  -17.1274  -46.3365 C.3       9 UNK        -0.1800 
     29 N          -2.2839  -16.8273  -47.5651 N.am      9 UNK        -0.5000 
     30 C          -1.2966  -17.0662  -48.4419 C.2       8 UNK         0.5000 
     31 O          -1.1579  -18.1382  -49.0350 O.2       8 UNK        -0.5000 
     32 CA         -0.2626  -15.9425  -48.6525 C.3       8 UNK         0.1400 
     33 CB         -0.6310  -15.0986  -49.8797 C.3       8 UNK        -0.1800 
     34 N          -0.1012  -15.0472  -47.5027 N.am      8 UNK        -0.5000 
     35 C           0.2556  -15.4215  -46.2674 C.2       7 UNK         0.5000 
     36 O           0.4686  -16.5926  -45.9509 O.2       7 UNK        -0.5000 
     37 CA          0.3687  -14.3212  -45.1922 C.3       7 UNK         0.1400 
     38 CB          0.0794  -12.8899  -45.6956 C.3       7 UNK        -0.1800 
     39 N          -0.4550  -14.6430  -44.0295 N.am      7 UNK        -0.5000 
     40 C          -1.7834  -14.8181  -43.9925 C.2       6 UNK         0.5000 
     41 O          -2.5217  -14.6742  -44.9673 O.2       6 UNK        -0.5000 
     42 CA         -2.3872  -15.2167  -42.6344 C.3       6 UNK         0.1400 
     43 CB         -2.3599  -16.7429  -42.4632 C.3       6 UNK        -0.1800 
     44 N          -1.6459  -14.6072  -41.5298 N.am      6 UNK        -0.5000 
     45 C          -2.0600  -13.5580  -40.8076 C.2       5 UNK         0.5000 
     46 O          -3.1689  -13.0354  -40.9268 O.2       5 UNK        -0.5000 
     47 CA         -1.0574  -12.9812  -39.7856 C.3       5 UNK         0.1400 
     48 CB         -1.2247  -13.6671  -38.4212 C.3       5 UNK        -0.1800 
     49 N           0.3372  -13.1074  -40.2164 N.am      5 UNK        -0.5000 
     50 C           0.8684  -12.4783  -41.2739 C.2       4 UNK         0.5000 
     51 O           0.2646  -11.6325  -41.9341 O.2       4 UNK        -0.5000 
     52 CA          2.3029  -12.8655  -41.6878 C.3       4 UNK         0.1400 
     53 CB          3.2984  -11.7772  -41.2588 C.3       4 UNK        -0.1800 
     54 N           2.7921  -14.1619  -41.2034 N.am      4 UNK        -0.5000 
     55 C           2.2388  -15.3630  -41.4176 C.2       3 UNK         0.5000 
     56 O           1.1208  -15.5195  -41.9106 O.2       3 UNK        -0.5000 
     57 CA          3.1120  -16.5813  -41.0594 C.3       3 UNK         0.1400 
     58 CB          2.3571  -17.9136  -41.2122 C.3       3 UNK        -0.1800 
     59 N           4.2931  -16.6013  -41.9224 N.am      3 UNK        -0.5000 
     60 C           5.4151  -15.8962  -41.7096 C.2       2 UNK         0.5000 
     61 O           5.6218  -15.2494  -40.6818 O.2       2 UNK        -0.5000 
     62 CA          6.4491  -15.8475  -42.8550 C.3       2 UNK         0.1400 
     63 CB          7.4891  -16.9656  -42.6912 C.3       2 UNK        -0.1800 
     64 N           5.8355  -15.9534  -44.1804 N.am      2 UNK        -0.5000 
     65 C           4.9571  -15.0802  -44.6954 C.2       1 UNK         0.5000 
     66 O           4.7026  -13.9929  -44.1762 O.2       1 UNK        -0.5000 
     67 C          -0.3074  -21.8090  -49.1379 C.2       11 UNK         0.5000 
     68 O          -0.1871  -22.9812  -49.4917 O.2       11 UNK        -0.5000 
     69 N          -1.4189  -21.0850  -49.3397 N.am      12 UNK        -0.5000 
     70 CA         -2.6342  -21.6073  -49.9656 C.3       12 UNK         0.1400 
     71 CB         -3.6448  -20.4706  -50.1580 C.3       12 UNK        -0.1800 
     72 C          -3.2581  -22.7697  -49.1696 C.2       12 UNK         0.5000 
     73 O          -3.6421  -23.7726  -49.7687 O.2       12 UNK        -0.5000 
     74 N          -3.3096  -22.6407  -47.8364 N.am      13 UNK        -0.5000 
     75 CA         -3.7584  -23.6880  -46.9187 C.3       13 UNK         0.1400 
     76 CB         -3.8952  -23.1184  -45.4996 C.3       13 UNK        -0.1800 
     77 C          -2.8413  -24.9231  -46.9299 C.2       13 UNK         0.5000 
     78 O          -3.3487  -26.0436  -46.9729 O.2       13 UNK        -0.5000 
     79 N          -1.5176  -24.7061  -46.9448 N.am      14 UNK        -0.5000 
     80 CA         -0.5058  -25.7620  -47.0598 C.3       14 UNK         0.1400 
     81 CB          0.8926  -25.1633  -46.8466 C.3       14 UNK        -0.1800 
     82 C          -0.5782  -26.5225  -48.3992 C.2       14 UNK         0.5000 
     83 O          -0.3827  -27.7380  -48.4218 O.2       14 UNK        -0.5000 
     84 N          -0.9011  -25.8007  -49.4802 N.am      15 UNK        -0.5000 
     85 CA         -1.1560  -26.3420  -50.8165 C.3       15 UNK         0.1400 
     86 CB         -1.0170  -25.2027  -51.8401 C.3       15 UNK        -0.1800 
     87 C          -2.5336  -27.0259  -50.9581 C.2       15 UNK         0.5000 
     88 O          -2.7797  -27.6541  -51.9886 O.2       15 UNK        -0.5000 
     89 N          -3.4046  -26.8814  -49.9462 N.am      16 UNK        -0.5000 
     90 CA         -4.8003  -27.3313  -49.8914 C.3       16 UNK         0.1400 
     91 CB         -4.8872  -28.8717  -49.8993 C.3       16 UNK        -0.1800 
     92 C          -5.6766  -26.6614  -50.9719 C.2       16 UNK         0.5000 
     93 O          -6.5307  -27.3118  -51.5773 O.2       16 UNK        -0.5000 
     94 N          -5.4336  -25.3651  -51.1946 N.am      17 UNK        -0.5000 
     95 CA         -6.0459  -24.5373  -52.2295 C.3       17 UNK         0.1400 
     96 CB         -5.0418  -24.3768  -53.3861 C.3       17 UNK        -0.1800 
     97 C          -6.4877  -23.1816  -51.6487 C.2       17 UNK         0.5000 
     98 O          -6.4741  -22.1784  -52.3602 O.2       17 UNK        -0.5000 
     99 N          -6.8761  -23.1605  -50.3643 N.am      18 UNK        -0.5000 
    100 CA        -7.2145  -21.9603  -49.5875 C.3       18 UNK         0.1400 
    101 CB        -7.6227  -22.3769  -48.1670 C.3       18 UNK        -0.1800 
    102 C         -8.2935  -21.0552  -50.2170 C.2       18 UNK         0.5000 
    103 O         -8.2065  -19.8337  -50.0925 O.2       18 UNK        -0.5000 
    104 N         -9.2677  -21.6652  -50.9047 N.am      19 UNK        -0.5000 
    105 CA       -10.3405  -20.9695  -51.6185 C.3       19 UNK         0.1400 
    106 CB       -11.4992  -21.9529  -51.8453 C.3       19 UNK        -0.1800 
    107 C         -9.8931  -20.3527  -52.9603 C.2       19 UNK         0.5000 
    108 O        -10.5399  -19.4178  -53.4342 O.2       19 UNK        -0.5000 
    109 N         -8.8189  -20.8872  -53.5563 N.am      20 UNK        -0.5000 
    110 CA        -8.2801  -20.4664  -54.8529 C.3       20 UNK         0.1400 
    111 CB        -7.8806  -21.7237  -55.6420 C.3       20 UNK        -0.1800 
    112 C         -7.0745  -19.5159  -54.7180 C.2       20 UNK         0.5000 
    113 O         -6.6866  -18.9016  -55.7130 O.2       20 UNK        -0.5000 
    114 N         -6.5108  -19.4210  -53.5050 N.am      21 UNK        -0.5000 
    115 CA        -5.2661  -18.7429  -53.1325 C.3       21 UNK         0.1400 
    116 CB        -5.2762  -17.2509  -53.5323 C.3       21 UNK        -0.1800 
    117 C         -4.0157  -19.4964  -53.6368 C.2       21 UNK         0.5000 
    118 O         -4.1213  -20.5909  -54.1944 O.2       21 UNK        -0.5000 
    119 N         -2.8371  -18.9188  -53.3777 N.am      22 UNK        -0.5000 
    120 CA        -1.5253  -19.5262  -53.6572 C.3       22 UNK         0.1400 
    121 C         -1.1089  -19.5946  -55.1586 C.2       22 UNK         0.5000 
    122 N         -1.8455  -18.9941  -56.0851 N.am      22 UNK        -0.7600 
    123 O         -0.1006  -20.2131  -55.4880 O.2       22 UNK        -0.5000 
    124 C124       -0.4204  -18.9026  -52.7677 C.3       23 UNK        -0.0398 
    125 S125       -0.1060  -17.1318  -53.1089 S.3       23 UNK        -0.2404 
    126 C126        1.6308  -17.1403  -53.6608 C.3       23 UNK        -0.0205 
    127 H127        3.1539  -19.8563  -46.3093 H         1 UNK         0.0600 
    128 H128        4.8203  -19.9396  -45.7333 H         1 UNK         0.0600 
    129 H129        4.4719  -19.2670  -47.3287 H         1 UNK         0.0600 
    130 H130        4.7453  -17.0448  -47.2935 H         1 UNK         0.3000 
    131 H131        3.1417  -15.3965  -45.7103 H         1 UNK         0.0600 
    132 H132        4.3325  -13.4789  -46.8030 H         1 UNK         0.0800 
    133 H133        5.5018  -14.5852  -47.4661 H         1 UNK         0.0800 
    134 H134        4.5067  -14.3170  -50.5675 H         1 UNK         0.0800 
    135 H135        5.4297  -15.3890  -49.5502 H         1 UNK         0.0800 
    136 H136        2.7057  -15.2209  -52.0367 H         1 UNK         0.1150 
    137 H137        2.7093  -19.4571  -52.7064 H         1 UNK         0.1150 
    138 H138        4.9552  -17.8047  -49.4601 H         1 UNK         0.1150 
    139 H139        4.9075  -20.6244  -51.3383 H         1 UNK         0.0800 
    140 H140        4.8218  -20.1569  -49.6568 H         1 UNK         0.0800 
    141 H141        2.3638  -19.6199  -48.6706 H         1 UNK         0.0800 
    142 H142        1.1292  -19.5895  -49.8964 H         1 UNK         0.0800 
    143 H143        1.4632  -21.9223  -47.9439 H         1 UNK         0.0600 
    144 H144        0.2994  -19.3655  -47.3051 H         1 UNK         0.3000 
    145 H145       -1.5717  -20.5351  -44.5029 H         1 UNK         0.0600 
    146 H146        0.7488  -20.2411  -43.6592 H         1 UNK         0.0600 
    147 H147        0.9810  -18.8531  -44.7094 H         1 UNK         0.0600 
    148 H148       -0.1930  -18.7844  -43.3998 H         1 UNK         0.0600 
    149 H149       -1.1065  -17.9625  -45.7513 H         1 UNK         0.3000 
    150 H150       -3.7627  -18.1699  -48.0920 H         1 UNK         0.0600 
    151 H151       -5.2081  -17.8184  -46.1368 H         1 UNK         0.0600 
    152 H152       -4.8085  -16.2648  -46.8535 H         1 UNK         0.0600 
    153 H153       -4.0075  -16.7906  -45.3733 H         1 UNK         0.0600 
    154 H154       -2.3063  -15.9356  -47.0879 H         1 UNK         0.3000 
    155 H155        0.6993  -16.4239  -48.8411 H         1 UNK         0.0600 
    156 H156        0.1820  -14.4253  -50.1525 H         1 UNK         0.0600 
    157 H157       -1.5247  -14.4990  -49.7034 H         1 UNK         0.0600 
    158 H158       -0.8314  -15.7309  -50.7429 H         1 UNK         0.0600 
    159 H159       -0.2718  -14.0672  -47.6736 H         1 UNK         0.3000 
    160 H160        1.3969  -14.3363  -44.8336 H         1 UNK         0.0600 
    161 H161       -0.9351  -12.7823  -46.0808 H         1 UNK         0.0600 
    162 H162        0.7724  -12.6032  -46.4877 H         1 UNK         0.0600 
    163 H163        0.2014  -12.1660  -44.8895 H         1 UNK         0.0600 
    164 H164        0.0737  -14.8930  -43.1968 H         1 UNK         0.3000 
    165 H165       -3.4295  -14.8913  -42.6276 H         1 UNK         0.0600 
    166 H166       -1.3385  -17.1121  -42.3744 H         1 UNK         0.0600 
    167 H167       -2.9004  -17.0451  -41.5662 H         1 UNK         0.0600 
    168 H168       -2.8238  -17.2495  -43.3099 H         1 UNK         0.0600 
    169 H169       -0.7012  -14.9481  -41.3865 H         1 UNK         0.3000 
    170 H170       -1.2802  -11.9189  -39.6651 H         1 UNK         0.0600 
    171 H171       -2.2494  -13.5713  -38.0595 H         1 UNK         0.0600 
    172 H172       -0.9936  -14.7317  -38.4745 H         1 UNK         0.0600 
    173 H173       -0.5734  -13.2182  -37.6711 H         1 UNK         0.0600 
    174 H174        0.9074  -13.7815  -39.7277 H         1 UNK         0.3000 
    175 H175        2.3092  -12.9147  -42.7786 H         1 UNK         0.0600 
    176 H176        3.3759  -11.7105  -40.1730 H         1 UNK         0.0600 
    177 H177        4.2940  -11.9767  -41.6565 H         1 UNK         0.0600 
    178 H178        2.9942  -10.7970  -41.6285 H         1 UNK         0.0600 
    179 H179        3.7236  -14.1563  -40.8056 H         1 UNK         0.3000 
    180 H180        3.4154  -16.4842  -40.0151 H         1 UNK         0.0600 
    181 H181        2.0225  -18.0709  -42.2379 H         1 UNK         0.0600 
    182 H182        1.4749  -17.9396  -40.5716 H         1 UNK         0.0600 
    183 H183        2.9877  -18.7580  -40.9342 H         1 UNK         0.0600 
    184 H184        4.1694  -17.0635  -42.8190 H         1 UNK         0.3000 
    185 H185        6.9632  -14.8859  -42.7975 H         1 UNK         0.0600 
    186 H186        8.2653  -16.8978  -43.4536 H         1 UNK         0.0600 
    187 H187        7.9821  -16.9007  -41.7202 H         1 UNK         0.0600 
    188 H188        7.0324  -17.9537  -42.7624 H         1 UNK         0.0600 
    189 H189        5.9732  -16.8237  -44.6728 H         1 UNK         0.3000 
    190 H190       -1.4285  -20.1112  -49.0526 H         1 UNK         0.3000 
    191 H191       -2.3572  -21.9843  -50.9523 H         1 UNK         0.0600 
    192 H192       -4.4453  -20.7861  -50.8269 H         1 UNK         0.0600 
    193 H193       -3.1765  -19.5904  -50.5977 H         1 UNK         0.0600 
    194 H194       -4.1020  -20.1711  -49.2157 H         1 UNK         0.0600 
    195 H195       -3.0427  -21.7559  -47.4132 H         1 UNK         0.3000 
    196 H196       -4.7465  -24.0154  -47.2466 H         1 UNK         0.0600 
    197 H197       -4.2283  -23.8857  -44.7997 H         1 UNK         0.0600 
    198 H198       -4.6278  -22.3118  -45.4696 H         1 UNK         0.0600 
    199 H199       -2.9481  -22.7241  -45.1304 H         1 UNK         0.0600 
    200 H200       -1.1739  -23.7545  -46.8613 H         1 UNK         0.3000 
    201 H201       -0.6892  -26.4839  -46.2614 H         1 UNK         0.0600 
    202 H202        0.9717  -24.6836  -45.8709 H         1 UNK         0.0600 
    203 H203        1.1332  -24.4190  -47.6057 H         1 UNK         0.0600 
    204 H204        1.6596  -25.9374  -46.8918 H         1 UNK         0.0600 
    205 H205       -0.9631  -24.7910  -49.3854 H         1 UNK         0.3000 
    206 H206       -0.3948  -27.0930  -51.0368 H         1 UNK         0.0600 
    207 H207       -0.0308  -24.7411  -51.7858 H         1 UNK         0.0600 
    208 H208       -1.1478  -25.5701  -52.8586 H         1 UNK         0.0600 
    209 H209       -1.7606  -24.4225  -51.6755 H         1 UNK         0.0600 
    210 H210       -3.0995  -26.3441  -49.1445 H         1 UNK         0.3000 
    211 H211       -5.1903  -26.9877  -48.9325 H         1 UNK         0.0600 
    212 H212       -4.5729  -29.2930  -50.8545 H         1 UNK         0.0600 
    213 H213       -5.9092  -29.2053  -49.7165 H         1 UNK         0.0600 
    214 H214       -4.2611  -29.3045  -49.1190 H         1 UNK         0.0600 
    215 H215       -4.7189  -24.8960  -50.6369 H         1 UNK         0.3000 
    216 H216       -6.9472  -25.0169  -52.6155 H         1 UNK         0.0600 
    217 H217       -5.4757  -23.8169  -54.2146 H         1 UNK         0.0600 
    218 H218       -4.7325  -25.3462  -53.7771 H         1 UNK         0.0600 
    219 H219       -4.1455  -23.8449  -53.0637 H         1 UNK         0.0600 
    220 H220       -6.8655  -24.0342  -49.8592 H         1 UNK         0.3000 
    221 H221       -6.3069  -21.3623  -49.5069 H         1 UNK         0.0600 
    222 H222       -8.4984  -23.0269  -48.1745 H         1 UNK         0.0600 
    223 H223       -6.8150  -22.9058  -47.6625 H         1 UNK         0.0600 
    224 H224       -7.8652  -21.5051  -47.5576 H         1 UNK         0.0600 
    225 H225       -9.2614  -22.6734  -50.9576 H         1 UNK         0.3000 
    226 H226      -10.7063  -20.1553  -50.9890 H         1 UNK         0.0600 
    227 H227      -11.8757  -22.3442  -50.9000 H         1 UNK         0.0600 
    228 H228      -12.3346  -21.4640  -52.3484 H         1 UNK         0.0600 
    229 H229      -11.1943  -22.7990  -52.4626 H         1 UNK         0.0600 
    230 H230       -8.2936  -21.6062  -53.0724 H         1 UNK         0.3000 
    231 H231       -9.0474  -19.9410  -55.4251 H         1 UNK         0.0600 
    232 H232       -7.5121  -21.4624  -56.6348 H         1 UNK         0.0600 
    233 H233       -8.7304  -22.3930  -55.7764 H         1 UNK         0.0600 
    234 H234       -7.0908  -22.2790  -55.1357 H         1 UNK         0.0600 
    235 H235       -6.8640  -20.0605  -52.8050 H         1 UNK         0.3000 
    236 H236       -5.2340  -18.7860  -52.0435 H         1 UNK         0.0600 
    237 H237       -4.4800  -16.7017  -53.0292 H         1 UNK         0.0600 
    238 H238       -5.1364  -17.1132  -54.6047 H         1 UNK         0.0600 
    239 H239       -6.2162  -16.7747  -53.2530 H         1 UNK         0.0600 
    240 H240       -2.8118  -18.0074  -52.9443 H         1 UNK         0.3000 
    241 H241       -1.6035  -20.5707  -53.3481 H         1 UNK         0.0600 
    242 H242       -1.5694  -19.0490  -57.0527 H         1 UNK         0.3800 
    243 H243       -2.6818  -18.4953  -55.8283 H         1 UNK         0.3800 
    244 H244       -0.6986  -18.9955  -51.7169 H         1 UNK         0.0800 
    245 H245        0.4971  -19.4786  -52.8727 H         1 UNK         0.0800 
    246 H246        1.8427  -16.1970  -54.1659 H         1 UNK         0.0800 
    247 H247        1.7774  -17.9235  -54.4065 H         1 UNK         0.0800 
@<TRIPOS>BOND
     1    1    2 1    
     2    1  127 1    
     3    1  128 1    
     4    1  129 1    
     5    2    3 2    
     6    2    4 am   BACKBONE|DICT|INTERRES
     7    4    5 1    
     8    4  130 1    
     9    5    6 1    
    10    5   65 1    
    11    5  131 1    
    12    6    7 1    
    13    6  132 1    
    14    6  133 1    
    15    7    8 1    
    16    8    9 1    
    17    8  134 1    
    18    8  135 1    
    19    9   10 ar   
    20    9   14 ar   
    21   10   11 ar   
    22   10  136 1    
    23   11   12 ar   
    24   11  126 1    
    25   12   13 ar   
    26   12  137 1    
    27   13   14 ar   
    28   13   15 1    
    29   14  138 1    
    30   15   16 1    
    31   15  139 1    
    32   15  140 1    
    33   16   17 1    
    34   17   18 1    
    35   17  141 1    
    36   17  142 1    
    37   18   19 1    
    38   18   67 1    
    39   18  143 1    
    40   19   20 am   BACKBONE|DICT|INTERRES
    41   19  144 1    
    42   20   21 2    
    43   20   22 1    
    44   22   23 1    
    45   22   24 1    
    46   22  145 1    
    47   23  146 1    
    48   23  147 1    
    49   23  148 1    
    50   24   25 am   BACKBONE|DICT|INTERRES
    51   24  149 1    
    52   25   26 2    
    53   25   27 1    
    54   27   28 1    
    55   27   29 1    
    56   27  150 1    
    57   28  151 1    
    58   28  152 1    
    59   28  153 1    
    60   29   30 am   BACKBONE|DICT|INTERRES
    61   29  154 1    
    62   30   31 2    
    63   30   32 1    
    64   32   33 1    
    65   32   34 1    
    66   32  155 1    
    67   33  156 1    
    68   33  157 1    
    69   33  158 1    
    70   34   35 am   BACKBONE|DICT|INTERRES
    71   34  159 1    
    72   35   36 2    
    73   35   37 1    
    74   37   38 1    
    75   37   39 1    
    76   37  160 1    
    77   38  161 1    
    78   38  162 1    
    79   38  163 1    
    80   39   40 am   BACKBONE|DICT|INTERRES
    81   39  164 1    
    82   40   41 2    
    83   40   42 1    
    84   42   43 1    
    85   42   44 1    
    86   42  165 1    
    87   43  166 1    
    88   43  167 1    
    89   43  168 1    
    90   44   45 am   BACKBONE|DICT|INTERRES
    91   44  169 1    
    92   45   46 2    
    93   45   47 1    
    94   47   48 1    
    95   47   49 1    
    96   47  170 1    
    97   48  171 1    
    98   48  172 1    
    99   48  173 1    
   100   49   50 am   BACKBONE|DICT|INTERRES
   101   49  174 1    
   102   50   51 2    
   103   50   52 1    
   104   52   53 1    
   105   52   54 1    
   106   52  175 1    
   107   53  176 1    
   108   53  177 1    
   109   53  178 1    
   110   54   55 am   BACKBONE|DICT|INTERRES
   111   54  179 1    
   112   55   56 2    
   113   55   57 1    
   114   57   58 1    
   115   57   59 1    
   116   57  180 1    
   117   58  181 1    
   118   58  182 1    
   119   58  183 1    
   120   59   60 am   BACKBONE|DICT|INTERRES
   121   59  184 1    
   122   60   61 2    
   123   60   62 1    
   124   62   63 1    
   125   62   64 1    
   126   62  185 1    
   127   63  186 1    
   128   63  187 1    
   129   63  188 1    
   130   64   65 am   BACKBONE|DICT|INTERRES
   131   64  189 1    
   132   65   66 2    
   133   67   68 2    
   134   67   69 am   BACKBONE|DICT|INTERRES
   135   69   70 1    
   136   69  190 1    
   137   70   71 1    
   138   70   72 1    
   139   70  191 1    
   140   71  192 1    
   141   71  193 1    
   142   71  194 1    
   143   72   73 2    
   144   72   74 am   BACKBONE|DICT|INTERRES
   145   74   75 1    
   146   74  195 1    
   147   75   76 1    
   148   75   77 1    
   149   75  196 1    
   150   76  197 1    
   151   76  198 1    
   152   76  199 1    
   153   77   78 2    
   154   77   79 am   BACKBONE|DICT|INTERRES
   155   79   80 1    
   156   79  200 1    
   157   80   81 1    
   158   80   82 1    
   159   80  201 1    
   160   81  202 1    
   161   81  203 1    
   162   81  204 1    
   163   82   83 2    
   164   82   84 am   BACKBONE|DICT|INTERRES
   165   84   85 1    
   166   84  205 1    
   167   85   86 1    
   168   85   87 1    
   169   85  206 1    
   170   86  207 1    
   171   86  208 1    
   172   86  209 1    
   173   87   88 2    
   174   87   89 am   BACKBONE|DICT|INTERRES
   175   89   90 1    
   176   89  210 1    
   177   90   91 1    
   178   90   92 1    
   179   90  211 1    
   180   91  212 1    
   181   91  213 1    
   182   91  214 1    
   183   92   93 2    
   184   92   94 am   BACKBONE|DICT|INTERRES
   185   94   95 1    
   186   94  215 1    
   187   95   96 1    
   188   95   97 1    
   189   95  216 1    
   190   96  217 1    
   191   96  218 1    
   192   96  219 1    
   193   97   98 2    
   194   97   99 am   BACKBONE|DICT|INTERRES
   195   99  100 1    
   196   99  220 1    
   197  100  101 1    
   198  100  102 1    
   199  100  221 1    
   200  101  222 1    
   201  101  223 1    
   202  101  224 1    
   203  102  103 2    
   204  102  104 am   BACKBONE|DICT|INTERRES
   205  104  105 1    
   206  104  225 1    
   207  105  106 1    
   208  105  107 1    
   209  105  226 1    
   210  106  227 1    
   211  106  228 1    
   212  106  229 1    
   213  107  108 2    
   214  107  109 am   BACKBONE|DICT|INTERRES
   215  109  110 1    
   216  109  230 1    
   217  110  111 1    
   218  110  112 1    
   219  110  231 1    
   220  111  232 1    
   221  111  233 1    
   222  111  234 1    
   223  112  113 2    
   224  112  114 am   BACKBONE|DICT|INTERRES
   225  114  115 1    
   226  114  235 1    
   227  115  116 1    
   228  115  117 1    
   229  115  236 1    
   230  116  237 1    
   231  116  238 1    
   232  116  239 1    
   233  117  118 2    
   234  117  119 am   BACKBONE|DICT|INTERRES
   235  119  120 1    
   236  119  240 1    
   237  120  121 1    
   238  120  124 1    
   239  120  241 1    
   240  121  122 am   BACKBONE|DICT|INTERRES
   241  121  123 2    
   242  122  242 1    
   243  122  243 1    
   244  124  125 1    
   245  124  244 1    
   246  124  245 1    
   247  125  126 1    
   248  126  246 1    
   249  126  247 1    
@<TRIPOS>SUBSTRUCTURE
     1 UNK         1 GROUP             0       ****    0 ROOT    
