@<TRIPOS>MOLECULE
3R540
247   249    1
SMALL
USER_CHARGES


@<TRIPOS>ATOM
      1 CA          2.6498  -10.1016  -52.5013 C.3       0 UNK        -0.1800 
      2 C           2.0097  -11.4800  -52.4173 C.2       0 UNK         0.5000 
      3 O           0.9656  -11.7069  -53.0282 O.2       0 UNK        -0.5000 
      4 N           2.6324  -12.3971  -51.6625 N.am      1 UNK        -0.5000 
      5 CA          2.1844  -13.7800  -51.4292 C.3       1 UNK         0.1400 
      6 C6          2.1479  -14.6347  -52.7346 C.3       23 UNK        -0.0398 
      7 S7          3.0814  -16.1939  -52.5911 S.3       23 UNK        -0.2404 
      8 C8          1.7857  -17.3346  -52.0277 C.3       23 UNK        -0.0205 
      9 C9          2.3083  -18.7603  -51.9586 C.ar      23 UNK        -0.0193 
     10 C10         2.0205  -19.6682  -52.9824 C.ar      23 UNK        -0.1150 
     11 C11         2.5121  -20.9766  -52.9314 C.ar      23 UNK        -0.0193 
     12 C12         3.3149  -21.3610  -51.8540 C.ar      23 UNK        -0.1150 
     13 C13         3.5673  -20.4796  -50.7994 C.ar      23 UNK        -0.0193 
     14 C14         3.0631  -19.1778  -50.8584 C.ar      23 UNK        -0.1150 
     15 C15         4.4025  -20.9325  -49.6110 C.3       23 UNK        -0.0205 
     16 S16         3.6101  -22.2801  -48.6729 S.3       23 UNK        -0.2404 
     17 C17         2.2563  -21.4246  -47.7982 C.3       23 UNK        -0.0398 
     18 CA          0.8609  -22.0320  -48.1078 C.3       11 UNK         0.1400 
     19 N          -0.0241  -21.9660  -46.9442 N.am      11 UNK        -0.5000 
     20 C          -1.1111  -22.7280  -46.7697 C.2       10 UNK         0.5000 
     21 O          -1.4764  -23.5920  -47.5653 O.2       10 UNK        -0.5000 
     22 CA         -1.9231  -22.4972  -45.4841 C.3       10 UNK         0.1400 
     23 CB         -1.3872  -23.3630  -44.3351 C.3       10 UNK        -0.1800 
     24 N          -1.9211  -21.0956  -45.0774 N.am      10 UNK        -0.5000 
     25 C          -2.7249  -20.1589  -45.5966 C.2       9 UNK         0.5000 
     26 O          -3.6348  -20.3957  -46.3937 O.2       9 UNK        -0.5000 
     27 CA         -2.4967  -18.7128  -45.1227 C.3       9 UNK         0.1400 
     28 CB         -3.4000  -18.4149  -43.9147 C.3       9 UNK        -0.1800 
     29 N          -1.1099  -18.4152  -44.7595 N.am      9 UNK        -0.5000 
     30 C          -0.0500  -18.4886  -45.5756 C.2       8 UNK         0.5000 
     31 O          -0.1171  -18.8148  -46.7558 O.2       8 UNK        -0.5000 
     32 CA          1.3286  -18.2253  -44.9503 C.3       8 UNK         0.1400 
     33 CB          1.6089  -16.7192  -44.8439 C.3       8 UNK        -0.1800 
     34 N           1.4589  -18.8560  -43.6371 N.am      8 UNK        -0.5000 
     35 C           1.4752  -20.1816  -43.4354 C.2       7 UNK         0.5000 
     36 O           1.4071  -21.0111  -44.3427 O.2       7 UNK        -0.5000 
     37 CA          1.5271  -20.6523  -41.9711 C.3       7 UNK         0.1400 
     38 CB          2.9605  -20.5766  -41.4245 C.3       7 UNK        -0.1800 
     39 N           0.6347  -19.8724  -41.1120 N.am      7 UNK        -0.5000 
     40 C          -0.7035  -19.9237  -41.1744 C.2       6 UNK         0.5000 
     41 O          -1.3232  -20.6787  -41.9236 O.2       6 UNK        -0.5000 
     42 CA         -1.4771  -18.9341  -40.2796 C.3       6 UNK         0.1400 
     43 CB         -1.7062  -19.5353  -38.8850 C.3       6 UNK        -0.1800 
     44 N          -0.8308  -17.6222  -40.1440 N.am      6 UNK        -0.5000 
     45 C          -0.5684  -16.7968  -41.1655 C.2       5 UNK         0.5000 
     46 O          -0.8061  -17.0758  -42.3427 O.2       5 UNK        -0.5000 
     47 CA          0.1027  -15.4577  -40.8330 C.3       5 UNK         0.1400 
     48 CB          1.5682  -15.6625  -40.4084 C.3       5 UNK        -0.1800 
     49 N           0.0521  -14.6249  -42.0289 N.am      5 UNK        -0.5000 
     50 C           0.0889  -13.2914  -42.0789 C.2       4 UNK         0.5000 
     51 O           0.1947  -12.5763  -41.0815 O.2       4 UNK        -0.5000 
     52 CA          0.0079  -12.6379  -43.4747 C.3       4 UNK         0.1400 
     53 CB          1.3802  -12.0809  -43.8850 C.3       4 UNK        -0.1800 
     54 N          -0.4638  -13.5261  -44.5425 N.am      4 UNK        -0.5000 
     55 C          -1.7249  -13.9420  -44.7119 C.2       3 UNK         0.5000 
     56 O          -2.6361  -13.6787  -43.9262 O.2       3 UNK        -0.5000 
     57 CA         -2.0091  -14.7415  -46.0042 C.3       3 UNK         0.1400 
     58 CB         -3.4651  -15.2317  -46.0924 C.3       3 UNK        -0.1800 
     59 N          -1.7332  -13.9413  -47.1978 N.am      3 UNK        -0.5000 
     60 C          -0.5258  -13.6742  -47.7078 C.2       2 UNK         0.5000 
     61 O           0.5284  -14.1116  -47.2393 O.2       2 UNK        -0.5000 
     62 CA         -0.5067  -12.6863  -48.8873 C.3       2 UNK         0.1400 
     63 CB         -0.5431  -11.2404  -48.3667 C.3       2 UNK        -0.1800 
     64 N           0.6741  -12.8438  -49.7320 N.am      2 UNK        -0.5000 
     65 C           0.8722  -13.8417  -50.6040 C.2       1 UNK         0.5000 
     66 O           0.0645  -14.7558  -50.7759 O.2       1 UNK        -0.5000 
     67 C           0.2145  -21.3821  -49.3472 C.2       11 UNK         0.5000 
     68 O           0.2434  -21.9654  -50.4293 O.2       11 UNK        -0.5000 
     69 N          -0.3454  -20.1797  -49.1571 N.am      12 UNK        -0.5000 
     70 CA         -0.8540  -19.2858  -50.1902 C.3       12 UNK         0.1400 
     71 CB         -1.0882  -17.8902  -49.5823 C.3       12 UNK        -0.1800 
     72 C          -2.1022  -19.8070  -50.9162 C.2       12 UNK         0.5000 
     73 O          -3.2112  -19.3560  -50.6313 O.2       12 UNK        -0.5000 
     74 N          -1.8933  -20.6786  -51.9100 N.am      13 UNK        -0.5000 
     75 CA         -2.9113  -21.1554  -52.8521 C.3       13 UNK         0.1400 
     76 CB         -2.2683  -22.1798  -53.7968 C.3       13 UNK        -0.1800 
     77 C          -3.5863  -20.0341  -53.6680 C.2       13 UNK         0.5000 
     78 O          -4.7329  -20.1939  -54.0855 O.2       13 UNK        -0.5000 
     79 N          -2.8732  -18.9140  -53.8545 N.am      14 UNK        -0.5000 
     80 CA         -3.3776  -17.6846  -54.4660 C.3       14 UNK         0.1400 
     81 CB         -2.1940  -16.7368  -54.7180 C.3       14 UNK        -0.1800 
     82 C          -4.4565  -16.9826  -53.6157 C.2       14 UNK         0.5000 
     83 O          -5.3362  -16.3310  -54.1800 O.2       14 UNK        -0.5000 
     84 N          -4.3724  -17.1281  -52.2860 N.am      15 UNK        -0.5000 
     85 CA         -5.3505  -16.6106  -51.3310 C.3       15 UNK         0.1400 
     86 CB         -4.6203  -16.1336  -50.0627 C.3       15 UNK        -0.1800 
     87 C          -6.3951  -17.6827  -50.9799 C.2       15 UNK         0.5000 
     88 O          -7.5828  -17.3673  -50.9033 O.2       15 UNK        -0.5000 
     89 N          -5.9231  -18.9209  -50.7609 N.am      16 UNK        -0.5000 
     90 CA         -6.6636  -20.1006  -50.3000 C.3       16 UNK         0.1400 
     91 CB         -7.6553  -20.5820  -51.3781 C.3       16 UNK        -0.1800 
     92 C          -7.3181  -19.8772  -48.9186 C.2       16 UNK         0.5000 
     93 O          -8.4324  -20.3435  -48.6747 O.2       16 UNK        -0.5000 
     94 N          -6.6251  -19.1149  -48.0604 N.am      17 UNK        -0.5000 
     95 CA         -7.1416  -18.5834  -46.8012 C.3       17 UNK         0.1400 
     96 CB         -6.1992  -17.4818  -46.2971 C.3       17 UNK        -0.1800 
     97 C          -7.3830  -19.6607  -45.7311 C.2       17 UNK         0.5000 
     98 O          -8.4493  -19.6624  -45.1140 O.2       17 UNK        -0.5000 
     99 N          -6.4085  -20.5598  -45.5464 N.am      18 UNK        -0.5000 
    100 CA        -6.5218  -21.7238  -44.6644 C.3       18 UNK         0.1400 
    101 CB        -5.4775  -21.6361  -43.5395 C.3       18 UNK        -0.1800 
    102 C         -6.3712  -23.0346  -45.4516 C.2       18 UNK         0.5000 
    103 O         -7.0343  -24.0148  -45.1110 O.2       18 UNK        -0.5000 
    104 N         -5.5313  -23.0348  -46.4942 N.am      19 UNK        -0.5000 
    105 CA        -5.2845  -24.1600  -47.3917 C.3       19 UNK         0.1400 
    106 CB        -4.4846  -25.2744  -46.6773 C.3       19 UNK        -0.1800 
    107 C         -4.5678  -23.6421  -48.6501 C.2       19 UNK         0.5000 
    108 O         -4.4020  -22.4314  -48.8100 O.2       19 UNK        -0.5000 
    109 N         -4.1617  -24.5717  -49.5185 N.am      20 UNK        -0.5000 
    110 CA        -3.4102  -24.3213  -50.7470 C.3       20 UNK         0.1400 
    111 CB        -4.3723  -24.4538  -51.9436 C.3       20 UNK        -0.1800 
    112 C         -2.2150  -25.2897  -50.8221 C.2       20 UNK         0.5000 
    113 O         -1.9362  -25.8620  -51.8771 O.2       20 UNK        -0.5000 
    114 N         -1.5566  -25.4991  -49.6774 N.am      21 UNK        -0.5000 
    115 CA        -0.4822  -26.4641  -49.4816 C.3       21 UNK         0.1400 
    116 CB        -0.5913  -27.0248  -48.0514 C.3       21 UNK        -0.1800 
    117 C          0.8827  -25.8123  -49.7599 C.2       21 UNK         0.5000 
    118 O          1.6410  -25.5520  -48.8246 O.2       21 UNK        -0.5000 
    119 N          1.1700  -25.5595  -51.0438 N.am      22 UNK        -0.5000 
    120 CA         2.4354  -24.9673  -51.5174 C.3       22 UNK         0.1400 
    121 C          3.7170  -25.8072  -51.2254 C.2       22 UNK         0.5000 
    122 N          3.6212  -27.1041  -50.9566 N.am      22 UNK        -0.7600 
    123 O          4.8209  -25.2707  -51.2538 O.2       22 UNK        -0.5000 
    124 C124        2.3905  -24.6160  -53.0286 C.3       23 UNK        -0.0398 
    125 S125        1.1482  -23.3534  -53.4705 S.3       23 UNK        -0.2404 
    126 C126        2.1858  -21.9633  -54.0457 C.3       23 UNK        -0.0205 
    127 H127        1.9600   -9.3447  -52.1280 H         1 UNK         0.0600 
    128 H128        2.8914   -9.8629  -53.5371 H         1 UNK         0.0600 
    129 H129        3.5678  -10.0435  -51.9161 H         1 UNK         0.0600 
    130 H130        3.4919  -12.1408  -51.1960 H         1 UNK         0.3000 
    131 H131        2.9439  -14.1977  -50.7666 H         1 UNK         0.0600 
    132 H132        1.1332  -14.8303  -53.0854 H         1 UNK         0.0800 
    133 H133        2.6181  -14.0902  -53.5544 H         1 UNK         0.0800 
    134 H134        1.4387  -17.0256  -51.0415 H         1 UNK         0.0800 
    135 H135        0.9249  -17.2736  -52.6954 H         1 UNK         0.0800 
    136 H136        1.4183  -19.3527  -53.8228 H         1 UNK         0.1150 
    137 H137        3.7281  -22.3571  -51.8202 H         1 UNK         0.1150 
    138 H138        3.2681  -18.4820  -50.0569 H         1 UNK         0.1150 
    139 H139        5.3675  -21.2851  -49.9777 H         1 UNK         0.0800 
    140 H140        4.6176  -20.1003  -48.9390 H         1 UNK         0.0800 
    141 H141        2.2864  -20.3505  -47.9913 H         1 UNK         0.0800 
    142 H142        2.4818  -21.5321  -46.7368 H         1 UNK         0.0800 
    143 H143        0.9947  -23.0901  -48.3343 H         1 UNK         0.0600 
    144 H144        0.2219  -21.3000  -46.2232 H         1 UNK         0.3000 
    145 H145       -2.9504  -22.8020  -45.6790 H         1 UNK         0.0600 
    146 H146       -1.9934  -23.2420  -43.4370 H         1 UNK         0.0600 
    147 H147       -1.4063  -24.4203  -44.6023 H         1 UNK         0.0600 
    148 H148       -0.3585  -23.1059  -44.0807 H         1 UNK         0.0600 
    149 H149       -1.2466  -20.8221  -44.3751 H         1 UNK         0.3000 
    150 H150       -2.7702  -18.0526  -45.9465 H         1 UNK         0.0600 
    151 H151       -4.4517  -18.5703  -44.1536 H         1 UNK         0.0600 
    152 H152       -3.2888  -17.3864  -43.5727 H         1 UNK         0.0600 
    153 H153       -3.1661  -19.0674  -43.0742 H         1 UNK         0.0600 
    154 H154       -0.9585  -18.0957  -43.8043 H         1 UNK         0.3000 
    155 H155        2.0822  -18.6625  -45.6091 H         1 UNK         0.0600 
    156 H156        0.8729  -16.2116  -44.2237 H         1 UNK         0.0600 
    157 H157        1.5829  -16.2515  -45.8289 H         1 UNK         0.0600 
    158 H158        2.5949  -16.5282  -44.4203 H         1 UNK         0.0600 
    159 H159        1.4637  -18.2439  -42.8358 H         1 UNK         0.3000 
    160 H160        1.2060  -21.6960  -41.9441 H         1 UNK         0.0600 
    161 H161        3.3322  -19.5514  -41.4010 H         1 UNK         0.0600 
    162 H162        3.6444  -21.1599  -42.0426 H         1 UNK         0.0600 
    163 H163        3.0172  -20.9773  -40.4123 H         1 UNK         0.0600 
    164 H164        1.0637  -19.2291  -40.4636 H         1 UNK         0.3000 
    165 H165       -2.4529  -18.7723  -40.7416 H         1 UNK         0.0600 
    166 H166       -2.3384  -18.8892  -38.2756 H         1 UNK         0.0600 
    167 H167       -2.2048  -20.5032  -38.9541 H         1 UNK         0.0600 
    168 H168       -0.7668  -19.6870  -38.3519 H         1 UNK         0.0600 
    169 H169       -0.5996  -17.3302  -39.2053 H         1 UNK         0.3000 
    170 H170       -0.4595  -14.9804  -40.0279 H         1 UNK         0.0600 
    171 H171        1.6395  -16.2824  -39.5142 H         1 UNK         0.0600 
    172 H172        2.1498  -16.1469  -41.1939 H         1 UNK         0.0600 
    173 H173        2.0485  -14.7114  -40.1782 H         1 UNK         0.0600 
    174 H174       -0.1210  -15.1427  -42.8800 H         1 UNK         0.3000 
    175 H175       -0.6895  -11.8011  -43.3980 H         1 UNK         0.0600 
    176 H176        2.1185  -12.8763  -43.9949 H         1 UNK         0.0600 
    177 H177        1.3212  -11.5445  -44.8324 H         1 UNK         0.0600 
    178 H178        1.7594  -11.3806  -43.1396 H         1 UNK         0.0600 
    179 H179        0.2045  -13.7560  -45.2713 H         1 UNK         0.3000 
    180 H180       -1.3565  -15.6170  -46.0006 H         1 UNK         0.0600 
    181 H181       -4.1674  -14.4004  -46.1643 H         1 UNK         0.0600 
    182 H182       -3.7423  -15.8115  -45.2134 H         1 UNK         0.0600 
    183 H183       -3.6114  -15.8687  -46.9649 H         1 UNK         0.0600 
    184 H184       -2.5379  -13.5003  -47.6191 H         1 UNK         0.3000 
    185 H185       -1.3934  -12.8595  -49.5013 H         1 UNK         0.0600 
    186 H186       -0.5642  -10.5250  -49.1892 H         1 UNK         0.0600 
    187 H187       -1.4323  -11.0615  -47.7609 H         1 UNK         0.0600 
    188 H188        0.3256  -11.0140  -47.7468 H         1 UNK         0.0600 
    189 H189        1.3957  -12.1458  -49.6325 H         1 UNK         0.3000 
    190 H190       -0.3313  -19.7846  -48.2179 H         1 UNK         0.3000 
    191 H191       -0.0783  -19.1853  -50.9445 H         1 UNK         0.0600 
    192 H192       -1.4533  -17.1880  -50.3331 H         1 UNK         0.0600 
    193 H193       -0.1656  -17.4740  -49.1775 H         1 UNK         0.0600 
    194 H194       -1.8210  -17.9203  -48.7748 H         1 UNK         0.0600 
    195 H195       -0.9638  -21.0749  -51.9986 H         1 UNK         0.3000 
    196 H196       -3.6956  -21.6456  -52.2740 H         1 UNK         0.0600 
    197 H197       -1.4634  -21.7349  -54.3832 H         1 UNK         0.0600 
    198 H198       -1.8506  -23.0199  -53.2422 H         1 UNK         0.0600 
    199 H199       -3.0004  -22.5832  -54.4974 H         1 UNK         0.0600 
    200 H200       -1.9289  -18.8896  -53.5018 H         1 UNK         0.3000 
    201 H201       -3.8258  -17.9418  -55.4280 H         1 UNK         0.0600 
    202 H202       -1.4530  -17.1950  -55.3733 H         1 UNK         0.0600 
    203 H203       -1.6950  -16.4576  -53.7888 H         1 UNK         0.0600 
    204 H204       -2.5271  -15.8167  -55.2000 H         1 UNK         0.0600 
    205 H205       -3.6541  -17.7305  -51.9065 H         1 UNK         0.3000 
    206 H206       -5.8741  -15.7527  -51.7583 H         1 UNK         0.0600 
    207 H207       -3.8919  -15.3569  -50.2962 H         1 UNK         0.0600 
    208 H208       -5.3241  -15.7137  -49.3429 H         1 UNK         0.0600 
    209 H209       -4.0909  -16.9468  -49.5655 H         1 UNK         0.0600 
    210 H210       -4.9132  -19.0561  -50.8036 H         1 UNK         0.3000 
    211 H211       -5.9220  -20.8868  -50.1674 H         1 UNK         0.0600 
    212 H212       -8.1062  -21.5340  -51.0962 H         1 UNK         0.0600 
    213 H213       -7.1526  -20.7319  -52.3339 H         1 UNK         0.0600 
    214 H214       -8.4649  -19.8684  -51.5326 H         1 UNK         0.0600 
    215 H215       -5.7050  -18.8081  -48.3395 H         1 UNK         0.3000 
    216 H216       -8.1076  -18.1188  -47.0108 H         1 UNK         0.0600 
    217 H217       -5.1708  -17.8339  -46.2424 H         1 UNK         0.0600 
    218 H218       -6.4877  -17.1331  -45.3046 H         1 UNK         0.0600 
    219 H219       -6.2177  -16.6184  -46.9623 H         1 UNK         0.0600 
    220 H220       -5.5448  -20.4655  -46.0726 H         1 UNK         0.3000 
    221 H221       -7.5068  -21.7523  -44.1942 H         1 UNK         0.0600 
    222 H222       -5.5655  -20.6991  -42.9898 H         1 UNK         0.0600 
    223 H223       -4.4602  -21.7095  -43.9189 H         1 UNK         0.0600 
    224 H224       -5.6127  -22.4472  -42.8233 H         1 UNK         0.0600 
    225 H225       -5.0365  -22.1895  -46.7593 H         1 UNK         0.3000 
    226 H226       -6.2485  -24.5610  -47.7108 H         1 UNK         0.0600 
    227 H227       -3.4836  -24.9467  -46.4019 H         1 UNK         0.0600 
    228 H228       -4.9822  -25.6101  -45.7680 H         1 UNK         0.0600 
    229 H229       -4.3735  -26.1541  -47.3114 H         1 UNK         0.0600 
    230 H230       -4.3133  -25.5456  -49.2962 H         1 UNK         0.3000 
    231 H231       -2.9859  -23.3156  -50.7366 H         1 UNK         0.0600 
    232 H232       -4.8444  -25.4365  -51.9678 H         1 UNK         0.0600 
    233 H233       -3.8560  -24.3212  -52.8933 H         1 UNK         0.0600 
    234 H234       -5.1632  -23.7050  -51.8955 H         1 UNK         0.0600 
    235 H235       -1.7550  -24.8942  -48.8824 H         1 UNK         0.3000 
    236 H236       -0.6013  -27.3005  -50.1737 H         1 UNK         0.0600 
    237 H237       -1.5473  -27.5254  -47.8974 H         1 UNK         0.0600 
    238 H238        0.1940  -27.7563  -47.8571 H         1 UNK         0.0600 
    239 H239       -0.5030  -26.2385  -47.3004 H         1 UNK         0.0600 
    240 H240        0.4694  -25.7525  -51.7471 H         1 UNK         0.3000 
    241 H241        2.5538  -24.0393  -50.9579 H         1 UNK         0.0600 
    242 H242        4.4579  -27.6342  -50.7695 H         1 UNK         0.3800 
    243 H243        2.7240  -27.5608  -50.9329 H         1 UNK         0.3800 
    244 H244        2.1770  -25.5133  -53.6116 H         1 UNK         0.0800 
    245 H245        3.3685  -24.2738  -53.3705 H         1 UNK         0.0800 
    246 H246        1.6447  -21.4557  -54.8456 H         1 UNK         0.0800 
    247 H247        3.1082  -22.3268  -54.4993 H         1 UNK         0.0800 
@<TRIPOS>BOND
     1    1    2 1    
     2    1  127 1    
     3    1  128 1    
     4    1  129 1    
     5    2    3 2    
     6    2    4 am   BACKBONE|DICT|INTERRES
     7    4    5 1    
     8    4  130 1    
     9    5    6 1    
    10    5   65 1    
    11    5  131 1    
    12    6    7 1    
    13    6  132 1    
    14    6  133 1    
    15    7    8 1    
    16    8    9 1    
    17    8  134 1    
    18    8  135 1    
    19    9   10 ar   
    20    9   14 ar   
    21   10   11 ar   
    22   10  136 1    
    23   11   12 ar   
    24   11  126 1    
    25   12   13 ar   
    26   12  137 1    
    27   13   14 ar   
    28   13   15 1    
    29   14  138 1    
    30   15   16 1    
    31   15  139 1    
    32   15  140 1    
    33   16   17 1    
    34   17   18 1    
    35   17  141 1    
    36   17  142 1    
    37   18   19 1    
    38   18   67 1    
    39   18  143 1    
    40   19   20 am   BACKBONE|DICT|INTERRES
    41   19  144 1    
    42   20   21 2    
    43   20   22 1    
    44   22   23 1    
    45   22   24 1    
    46   22  145 1    
    47   23  146 1    
    48   23  147 1    
    49   23  148 1    
    50   24   25 am   BACKBONE|DICT|INTERRES
    51   24  149 1    
    52   25   26 2    
    53   25   27 1    
    54   27   28 1    
    55   27   29 1    
    56   27  150 1    
    57   28  151 1    
    58   28  152 1    
    59   28  153 1    
    60   29   30 am   BACKBONE|DICT|INTERRES
    61   29  154 1    
    62   30   31 2    
    63   30   32 1    
    64   32   33 1    
    65   32   34 1    
    66   32  155 1    
    67   33  156 1    
    68   33  157 1    
    69   33  158 1    
    70   34   35 am   BACKBONE|DICT|INTERRES
    71   34  159 1    
    72   35   36 2    
    73   35   37 1    
    74   37   38 1    
    75   37   39 1    
    76   37  160 1    
    77   38  161 1    
    78   38  162 1    
    79   38  163 1    
    80   39   40 am   BACKBONE|DICT|INTERRES
    81   39  164 1    
    82   40   41 2    
    83   40   42 1    
    84   42   43 1    
    85   42   44 1    
    86   42  165 1    
    87   43  166 1    
    88   43  167 1    
    89   43  168 1    
    90   44   45 am   BACKBONE|DICT|INTERRES
    91   44  169 1    
    92   45   46 2    
    93   45   47 1    
    94   47   48 1    
    95   47   49 1    
    96   47  170 1    
    97   48  171 1    
    98   48  172 1    
    99   48  173 1    
   100   49   50 am   BACKBONE|DICT|INTERRES
   101   49  174 1    
   102   50   51 2    
   103   50   52 1    
   104   52   53 1    
   105   52   54 1    
   106   52  175 1    
   107   53  176 1    
   108   53  177 1    
   109   53  178 1    
   110   54   55 am   BACKBONE|DICT|INTERRES
   111   54  179 1    
   112   55   56 2    
   113   55   57 1    
   114   57   58 1    
   115   57   59 1    
   116   57  180 1    
   117   58  181 1    
   118   58  182 1    
   119   58  183 1    
   120   59   60 am   BACKBONE|DICT|INTERRES
   121   59  184 1    
   122   60   61 2    
   123   60   62 1    
   124   62   63 1    
   125   62   64 1    
   126   62  185 1    
   127   63  186 1    
   128   63  187 1    
   129   63  188 1    
   130   64   65 am   BACKBONE|DICT|INTERRES
   131   64  189 1    
   132   65   66 2    
   133   67   68 2    
   134   67   69 am   BACKBONE|DICT|INTERRES
   135   69   70 1    
   136   69  190 1    
   137   70   71 1    
   138   70   72 1    
   139   70  191 1    
   140   71  192 1    
   141   71  193 1    
   142   71  194 1    
   143   72   73 2    
   144   72   74 am   BACKBONE|DICT|INTERRES
   145   74   75 1    
   146   74  195 1    
   147   75   76 1    
   148   75   77 1    
   149   75  196 1    
   150   76  197 1    
   151   76  198 1    
   152   76  199 1    
   153   77   78 2    
   154   77   79 am   BACKBONE|DICT|INTERRES
   155   79   80 1    
   156   79  200 1    
   157   80   81 1    
   158   80   82 1    
   159   80  201 1    
   160   81  202 1    
   161   81  203 1    
   162   81  204 1    
   163   82   83 2    
   164   82   84 am   BACKBONE|DICT|INTERRES
   165   84   85 1    
   166   84  205 1    
   167   85   86 1    
   168   85   87 1    
   169   85  206 1    
   170   86  207 1    
   171   86  208 1    
   172   86  209 1    
   173   87   88 2    
   174   87   89 am   BACKBONE|DICT|INTERRES
   175   89   90 1    
   176   89  210 1    
   177   90   91 1    
   178   90   92 1    
   179   90  211 1    
   180   91  212 1    
   181   91  213 1    
   182   91  214 1    
   183   92   93 2    
   184   92   94 am   BACKBONE|DICT|INTERRES
   185   94   95 1    
   186   94  215 1    
   187   95   96 1    
   188   95   97 1    
   189   95  216 1    
   190   96  217 1    
   191   96  218 1    
   192   96  219 1    
   193   97   98 2    
   194   97   99 am   BACKBONE|DICT|INTERRES
   195   99  100 1    
   196   99  220 1    
   197  100  101 1    
   198  100  102 1    
   199  100  221 1    
   200  101  222 1    
   201  101  223 1    
   202  101  224 1    
   203  102  103 2    
   204  102  104 am   BACKBONE|DICT|INTERRES
   205  104  105 1    
   206  104  225 1    
   207  105  106 1    
   208  105  107 1    
   209  105  226 1    
   210  106  227 1    
   211  106  228 1    
   212  106  229 1    
   213  107  108 2    
   214  107  109 am   BACKBONE|DICT|INTERRES
   215  109  110 1    
   216  109  230 1    
   217  110  111 1    
   218  110  112 1    
   219  110  231 1    
   220  111  232 1    
   221  111  233 1    
   222  111  234 1    
   223  112  113 2    
   224  112  114 am   BACKBONE|DICT|INTERRES
   225  114  115 1    
   226  114  235 1    
   227  115  116 1    
   228  115  117 1    
   229  115  236 1    
   230  116  237 1    
   231  116  238 1    
   232  116  239 1    
   233  117  118 2    
   234  117  119 am   BACKBONE|DICT|INTERRES
   235  119  120 1    
   236  119  240 1    
   237  120  121 1    
   238  120  124 1    
   239  120  241 1    
   240  121  122 am   BACKBONE|DICT|INTERRES
   241  121  123 2    
   242  122  242 1    
   243  122  243 1    
   244  124  125 1    
   245  124  244 1    
   246  124  245 1    
   247  125  126 1    
   248  126  246 1    
   249  126  247 1    
@<TRIPOS>SUBSTRUCTURE
     1 UNK         1 GROUP             0       ****    0 ROOT    
