@<TRIPOS>MOLECULE
3R540
247   249    1
SMALL
USER_CHARGES


@<TRIPOS>ATOM
      1 CA         -3.0209  -10.0277  -46.2010 C.3       0 UNK        -0.1800 
      2 C          -1.8244  -10.0800  -47.1409 C.2       0 UNK         0.5000 
      3 O          -1.4396   -9.0533  -47.7018 O.2       0 UNK        -0.5000 
      4 N          -1.2433  -11.2714  -47.3209 N.am      1 UNK        -0.5000 
      5 CA         -0.0354  -11.5072  -48.1164 C.3       1 UNK         0.1400 
      6 C6          0.0945  -12.9948  -48.5332 C.3       23 UNK        -0.0398 
      7 S7          0.0914  -14.1780  -47.1377 S.3       23 UNK        -0.2404 
      8 C8         -1.2563  -15.3129  -47.6038 C.3       23 UNK        -0.0205 
      9 C9         -0.9293  -16.0946  -48.8679 C.ar      23 UNK        -0.0193 
     10 C10        -1.6727  -15.9020  -50.0362 C.ar      23 UNK        -0.1150 
     11 C11        -1.3606  -16.6088  -51.2016 C.ar      23 UNK        -0.0193 
     12 C12        -0.3032  -17.5243  -51.1878 C.ar      23 UNK        -0.1150 
     13 C13         0.4501  -17.7220  -50.0263 C.ar      23 UNK        -0.0193 
     14 C14         0.1313  -17.0036  -48.8714 C.ar      23 UNK        -0.1150 
     15 C15         1.6345  -18.6768  -50.0320 C.3       23 UNK        -0.0205 
     16 S16         1.1480  -20.3782  -49.6161 S.3       23 UNK        -0.2404 
     17 C17         0.9812  -20.2823  -47.7998 C.3       23 UNK        -0.0398 
     18 CA          0.2632  -21.5179  -47.2140 C.3       11 UNK         0.1400 
     19 N           0.4996  -21.6760  -45.7803 N.am      11 UNK        -0.5000 
     20 C           0.1729  -22.7708  -45.0793 C.2       10 UNK         0.5000 
     21 O          -0.3182  -23.7842  -45.5790 O.2       10 UNK        -0.5000 
     22 CA          0.3859  -22.7024  -43.5572 C.3       10 UNK         0.1400 
     23 CB          1.8620  -22.9330  -43.2015 C.3       10 UNK        -0.1800 
     24 N          -0.0719  -21.4358  -42.9826 N.am      10 UNK        -0.5000 
     25 C          -1.3449  -21.0138  -43.0051 C.2       9 UNK         0.5000 
     26 O          -2.2723  -21.6645  -43.4864 O.2       9 UNK        -0.5000 
     27 CA         -1.6290  -19.6173  -42.4259 C.3       9 UNK         0.1400 
     28 CB         -1.6752  -19.6647  -40.8915 C.3       9 UNK        -0.1800 
     29 N          -0.6615  -18.6101  -42.8618 N.am      9 UNK        -0.5000 
     30 C          -0.4823  -18.2258  -44.1347 C.2       8 UNK         0.5000 
     31 O          -1.1224  -18.6710  -45.0856 O.2       8 UNK        -0.5000 
     32 CA          0.6412  -17.2113  -44.3990 C.3       8 UNK         0.1400 
     33 CB          0.2325  -15.8072  -43.9281 C.3       8 UNK        -0.1800 
     34 N           1.8924  -17.5969  -43.7534 N.am      8 UNK        -0.5000 
     35 C           2.5643  -18.7349  -43.9720 C.2       7 UNK         0.5000 
     36 O           2.2332  -19.5840  -44.7991 O.2       7 UNK        -0.5000 
     37 CA          3.7838  -18.9874  -43.0710 C.3       7 UNK         0.1400 
     38 CB          5.0084  -18.2036  -43.5682 C.3       7 UNK        -0.1800 
     39 N           3.5118  -18.6426  -41.6751 N.am      7 UNK        -0.5000 
     40 C           2.6639  -19.3091  -40.8790 C.2       6 UNK         0.5000 
     41 O           2.0294  -20.3029  -41.2323 O.2       6 UNK        -0.5000 
     42 CA          2.4692  -18.7487  -39.4586 C.3       6 UNK         0.1400 
     43 CB          3.6174  -19.1888  -38.5381 C.3       6 UNK        -0.1800 
     44 N           2.3620  -17.2891  -39.4401 N.am      6 UNK        -0.5000 
     45 C           1.3306  -16.6057  -39.9545 C.2       5 UNK         0.5000 
     46 O           0.3539  -17.1359  -40.4838 O.2       5 UNK        -0.5000 
     47 CA          1.4280  -15.0685  -39.9109 C.3       5 UNK         0.1400 
     48 CB          0.9810  -14.5383  -38.5403 C.3       5 UNK        -0.1800 
     49 N           2.7569  -14.5327  -40.2313 N.am      5 UNK        -0.5000 
     50 C           3.4290  -14.7835  -41.3623 C.2       4 UNK         0.5000 
     51 O           3.0616  -15.6008  -42.2071 O.2       4 UNK        -0.5000 
     52 CA          4.7475  -14.0206  -41.5828 C.3       4 UNK         0.1400 
     53 CB          5.9186  -14.7930  -40.9564 C.3       4 UNK        -0.1800 
     54 N           5.0097  -13.8400  -43.0127 N.am      4 UNK        -0.5000 
     55 C           4.2707  -13.0738  -43.8252 C.2       3 UNK         0.5000 
     56 O           3.3891  -12.3048  -43.4305 O.2       3 UNK        -0.5000 
     57 CA          4.5520  -13.2137  -45.3283 C.3       3 UNK         0.1400 
     58 CB          3.9677  -14.5284  -45.8790 C.3       3 UNK        -0.1800 
     59 N           3.9533  -12.0866  -46.0340 N.am      3 UNK        -0.5000 
     60 C           4.4200  -11.5190  -47.1484 C.2       2 UNK         0.5000 
     61 O           5.4197  -11.9186  -47.7489 O.2       2 UNK        -0.5000 
     62 CA          3.6104  -10.3216  -47.6897 C.3       2 UNK         0.1400 
     63 CB          4.3349   -9.5813  -48.8288 C.3       2 UNK        -0.1800 
     64 N           2.2946  -10.7465  -48.1700 N.am      2 UNK        -0.5000 
     65 C           1.2320  -10.9956  -47.3941 C.2       1 UNK         0.5000 
     66 O           1.2408  -10.8552  -46.1673 O.2       1 UNK        -0.5000 
     67 C          -1.2425  -21.5207  -47.5392 C.2       11 UNK         0.5000 
     68 O          -1.6531  -22.2669  -48.4223 O.2       11 UNK        -0.5000 
     69 N          -2.0469  -20.7474  -46.7952 N.am      12 UNK        -0.5000 
     70 CA         -3.5011  -20.6695  -46.9591 C.3       12 UNK         0.1400 
     71 CB         -4.0667  -19.5771  -46.0399 C.3       12 UNK        -0.1800 
     72 C          -4.2254  -22.0086  -46.7210 C.2       12 UNK         0.5000 
     73 O          -5.2144  -22.2844  -47.3991 O.2       12 UNK        -0.5000 
     74 N          -3.7140  -22.8233  -45.7876 N.am      13 UNK        -0.5000 
     75 CA         -4.1926  -24.1800  -45.5250 C.3       13 UNK         0.1400 
     76 CB         -3.6027  -24.6865  -44.2002 C.3       13 UNK        -0.1800 
     77 C          -3.8722  -25.1529  -46.6756 C.2       13 UNK         0.5000 
     78 O          -4.7229  -25.9677  -47.0330 O.2       13 UNK        -0.5000 
     79 N          -2.6643  -25.0463  -47.2464 N.am      14 UNK        -0.5000 
     80 CA         -2.2231  -25.8414  -48.3948 C.3       14 UNK         0.1400 
     81 CB         -0.6966  -25.7311  -48.5315 C.3       14 UNK        -0.1800 
     82 C          -2.9210  -25.4233  -49.7037 C.2       14 UNK         0.5000 
     83 O          -3.3088  -26.2817  -50.4958 O.2       14 UNK        -0.5000 
     84 N          -3.0840  -24.1096  -49.8902 N.am      15 UNK        -0.5000 
     85 CA         -3.6829  -23.4610  -51.0550 C.3       15 UNK         0.1400 
     86 CB         -3.0020  -22.0936  -51.2414 C.3       15 UNK        -0.1800 
     87 C          -5.2158  -23.3100  -50.9556 C.2       15 UNK         0.5000 
     88 O          -5.7946  -22.5244  -51.7099 O.2       15 UNK        -0.5000 
     89 N          -5.8526  -24.0391  -50.0277 N.am      16 UNK        -0.5000 
     90 CA         -7.2912  -24.0163  -49.7570 C.3       16 UNK         0.1400 
     91 CB         -7.6095  -25.0167  -48.6367 C.3       16 UNK        -0.1800 
     92 C          -8.1465  -24.3067  -51.0058 C.2       16 UNK         0.5000 
     93 O          -7.7773  -25.1575  -51.8178 O.2       16 UNK        -0.5000 
     94 N          -9.2631  -23.5748  -51.1291 N.am      17 UNK        -0.5000 
     95 CA        -10.1687  -23.5357  -52.2858 C.3       17 UNK         0.1400 
     96 CB        -10.8395  -24.9057  -52.5248 C.3       17 UNK        -0.1800 
     97 C          -9.5044  -22.9518  -53.5546 C.2       17 UNK         0.5000 
     98 O          -9.8751  -23.3249  -54.6690 O.2       17 UNK        -0.5000 
     99 N          -8.5486  -22.0302  -53.3514 N.am      18 UNK        -0.5000 
    100 CA        -7.7543  -21.3223  -54.3628 C.3       18 UNK         0.1400 
    101 CB        -8.6439  -20.3733  -55.1934 C.3       18 UNK        -0.1800 
    102 C         -6.9050  -22.2758  -55.2293 C.2       18 UNK         0.5000 
    103 O         -6.8589  -22.1385  -56.4543 O.2       18 UNK        -0.5000 
    104 N         -6.2563  -23.2371  -54.5659 N.am      19 UNK        -0.5000 
    105 CA        -5.3747  -24.2278  -55.1737 C.3       19 UNK         0.1400 
    106 CB        -5.5367  -25.5489  -54.4053 C.3       19 UNK        -0.1800 
    107 C         -3.9105  -23.7638  -55.1201 C.2       19 UNK         0.5000 
    108 O         -3.5588  -22.9220  -54.2920 O.2       19 UNK        -0.5000 
    109 N         -3.0713  -24.3699  -55.9712 N.am      20 UNK        -0.5000 
    110 CA        -1.6072  -24.2740  -55.9811 C.3       20 UNK         0.1400 
    111 CB        -1.0341  -25.1489  -54.8418 C.3       20 UNK        -0.1800 
    112 C         -1.0888  -22.8172  -55.9728 C.2       20 UNK         0.5000 
    113 O         -1.3641  -22.0727  -56.9157 O.2       20 UNK        -0.5000 
    114 N         -0.3707  -22.4374  -54.9068 N.am      21 UNK        -0.5000 
    115 CA         0.2650  -21.1348  -54.6961 C.3       21 UNK         0.1400 
    116 CB         1.1219  -21.2148  -53.4221 C.3       21 UNK        -0.1800 
    117 C         -0.6996  -19.9351  -54.6075 C.2       21 UNK         0.5000 
    118 O         -0.2419  -18.7995  -54.7414 O.2       21 UNK        -0.5000 
    119 N         -1.9935  -20.1895  -54.3820 N.am      22 UNK        -0.5000 
    120 CA        -3.0461  -19.1683  -54.2889 C.3       22 UNK         0.1400 
    121 C         -4.2769  -19.4931  -55.1834 C.2       22 UNK         0.5000 
    122 N         -4.1466  -20.3465  -56.1930 N.am      22 UNK        -0.7600 
    123 O         -5.3601  -18.9533  -54.9828 O.2       22 UNK        -0.5000 
    124 C124       -3.3886  -18.8498  -52.8047 C.3       23 UNK        -0.0398 
    125 S125       -3.7829  -17.0930  -52.5133 S.3       23 UNK        -0.2404 
    126 C126       -2.1263  -16.3335  -52.4885 C.3       23 UNK        -0.0205 
    127 H127       -2.8170   -9.3501  -45.3720 H         1 UNK         0.0600 
    128 H128       -3.2551  -11.0093  -45.7880 H         1 UNK         0.0600 
    129 H129       -3.9004   -9.6638  -46.7323 H         1 UNK         0.0600 
    130 H130       -1.5728  -12.0707  -46.7993 H         1 UNK         0.3000 
    131 H131       -0.1317  -10.9242  -49.0352 H         1 UNK         0.0600 
    132 H132       -0.7254  -13.2376  -49.2098 H         1 UNK         0.0800 
    133 H133        1.0026  -13.1580  -49.1159 H         1 UNK         0.0800 
    134 H134       -2.1824  -14.7478  -47.7194 H         1 UNK         0.0800 
    135 H135       -1.4260  -16.0177  -46.7885 H         1 UNK         0.0800 
    136 H136       -2.4865  -15.1905  -50.0469 H         1 UNK         0.1150 
    137 H137       -0.0505  -18.0674  -52.0877 H         1 UNK         0.1150 
    138 H138        0.7203  -17.1339  -47.9751 H         1 UNK         0.1150 
    139 H139        2.0954  -18.6791  -51.0209 H         1 UNK         0.0800 
    140 H140        2.4059  -18.3346  -49.3403 H         1 UNK         0.0800 
    141 H141        0.4668  -19.3681  -47.5053 H         1 UNK         0.0800 
    142 H142        1.9898  -20.2094  -47.3914 H         1 UNK         0.0800 
    143 H143        0.6949  -22.4020  -47.6891 H         1 UNK         0.0600 
    144 H144        0.9339  -20.8914  -45.3010 H         1 UNK         0.3000 
    145 H145       -0.2013  -23.5043  -43.1050 H         1 UNK         0.0600 
    146 H146        2.0033  -22.9813  -42.1217 H         1 UNK         0.0600 
    147 H147        2.2228  -23.8738  -43.6190 H         1 UNK         0.0600 
    148 H148        2.4988  -22.1358  -43.5863 H         1 UNK         0.0600 
    149 H149        0.6326  -20.8601  -42.5314 H         1 UNK         0.3000 
    150 H150       -2.6126  -19.3062  -42.7834 H         1 UNK         0.0600 
    151 H151       -2.3900  -20.4116  -40.5439 H         1 UNK         0.0600 
    152 H152       -1.9823  -18.7041  -40.4777 H         1 UNK         0.0600 
    153 H153       -0.7027  -19.9158  -40.4666 H         1 UNK         0.0600 
    154 H154       -0.1077  -18.1711  -42.1325 H         1 UNK         0.3000 
    155 H155        0.8181  -17.1750  -45.4756 H         1 UNK         0.0600 
    156 H156        0.0842  -15.7693  -42.8493 H         1 UNK         0.0600 
    157 H157       -0.6998  -15.4919  -44.3971 H         1 UNK         0.0600 
    158 H158        0.9925  -15.0687  -44.1837 H         1 UNK         0.0600 
    159 H159        2.2722  -16.9349  -43.0780 H         1 UNK         0.3000 
    160 H160        4.0195  -20.0526  -43.1187 H         1 UNK         0.0600 
    161 H161        5.8911  -18.4317  -42.9707 H         1 UNK         0.0600 
    162 H162        4.8458  -17.1265  -43.5273 H         1 UNK         0.0600 
    163 H163        5.2406  -18.4603  -44.6026 H         1 UNK         0.0600 
    164 H164        3.9342  -17.7947  -41.3278 H         1 UNK         0.3000 
    165 H165        1.5392  -19.1632  -39.0633 H         1 UNK         0.0600 
    166 H166        3.4454  -18.8645  -37.5115 H         1 UNK         0.0600 
    167 H167        3.7101  -20.2756  -38.5232 H         1 UNK         0.0600 
    168 H168        4.5757  -18.7817  -38.8630 H         1 UNK         0.0600 
    169 H169        3.1285  -16.7744  -39.0325 H         1 UNK         0.3000 
    170 H170        0.7368  -14.6814  -40.6623 H         1 UNK         0.0600 
    171 H171       -0.0127  -14.9080  -38.2832 H         1 UNK         0.0600 
    172 H172        1.6620  -14.8477  -37.7465 H         1 UNK         0.0600 
    173 H173        0.9313  -13.4493  -38.5352 H         1 UNK         0.0600 
    174 H174        3.1374  -13.8641  -39.5772 H         1 UNK         0.3000 
    175 H175        4.6739  -13.0376  -41.1130 H         1 UNK         0.0600 
    176 H176        6.0303  -15.7844  -41.3976 H         1 UNK         0.0600 
    177 H177        6.8595  -14.2587  -41.0899 H         1 UNK         0.0600 
    178 H178        5.7719  -14.9258  -39.8838 H         1 UNK         0.0600 
    179 H179        5.6953  -14.4587  -43.4193 H         1 UNK         0.3000 
    180 H180        5.6347  -13.2051  -45.4712 H         1 UNK         0.0600 
    181 H181        2.8870  -14.5740  -45.7404 H         1 UNK         0.0600 
    182 H182        4.3975  -15.3953  -45.3764 H         1 UNK         0.0600 
    183 H183        4.1716  -14.6369  -46.9442 H         1 UNK         0.0600 
    184 H184        3.1234  -11.6997  -45.5932 H         1 UNK         0.3000 
    185 H185        3.4809   -9.6142  -46.8675 H         1 UNK         0.0600 
    186 H186        5.3172   -9.2340  -48.5060 H         1 UNK         0.0600 
    187 H187        4.4817  -10.2216  -49.6996 H         1 UNK         0.0600 
    188 H188        3.7718   -8.7045  -49.1490 H         1 UNK         0.0600 
    189 H189        2.2229  -10.9072  -49.1644 H         1 UNK         0.3000 
    190 H190       -1.6409  -20.1360  -46.0898 H         1 UNK         0.3000 
    191 H191       -3.6965  -20.3750  -47.9923 H         1 UNK         0.0600 
    192 H192       -3.8583  -19.7892  -44.9909 H         1 UNK         0.0600 
    193 H193       -5.1484  -19.4925  -46.1510 H         1 UNK         0.0600 
    194 H194       -3.6388  -18.6028  -46.2770 H         1 UNK         0.0600 
    195 H195       -2.9456  -22.4887  -45.2150 H         1 UNK         0.3000 
    196 H196       -5.2786  -24.1406  -45.4168 H         1 UNK         0.0600 
    197 H197       -3.9568  -25.6929  -43.9739 H         1 UNK         0.0600 
    198 H198       -3.8942  -24.0442  -43.3690 H         1 UNK         0.0600 
    199 H199       -2.5133  -24.7196  -44.2293 H         1 UNK         0.0600 
    200 H200       -2.0088  -24.3637  -46.8835 H         1 UNK         0.3000 
    201 H201       -2.4703  -26.8877  -48.2035 H         1 UNK         0.0600 
    202 H202       -0.1945  -26.0828  -47.6299 H         1 UNK         0.0600 
    203 H203       -0.3798  -24.7028  -48.7088 H         1 UNK         0.0600 
    204 H204       -0.3342  -26.3353  -49.3641 H         1 UNK         0.0600 
    205 H205       -2.6826  -23.4747  -49.2005 H         1 UNK         0.3000 
    206 H206       -3.4757  -24.0695  -51.9364 H         1 UNK         0.0600 
    207 H207       -3.3494  -21.6044  -52.1481 H         1 UNK         0.0600 
    208 H208       -3.2169  -21.4208  -50.4107 H         1 UNK         0.0600 
    209 H209       -1.9197  -22.1942  -51.3247 H         1 UNK         0.0600 
    210 H210       -5.2979  -24.6534  -49.4503 H         1 UNK         0.3000 
    211 H211       -7.5295  -23.0130  -49.3983 H         1 UNK         0.0600 
    212 H212       -7.3036  -26.0291  -48.9036 H         1 UNK         0.0600 
    213 H213       -8.6786  -25.0405  -48.4215 H         1 UNK         0.0600 
    214 H214       -7.1003  -24.7436  -47.7123 H         1 UNK         0.0600 
    215 H215       -9.4841  -22.9178  -50.3932 H         1 UNK         0.3000 
    216 H216      -10.9604  -22.8338  -52.0199 H         1 UNK         0.0600 
    217 H217      -11.6382  -24.8246  -53.2629 H         1 UNK         0.0600 
    218 H218      -11.2848  -25.2927  -51.6084 H         1 UNK         0.0600 
    219 H219      -10.1317  -25.6478  -52.8947 H         1 UNK         0.0600 
    220 H220       -8.2863  -21.8379  -52.3949 H         1 UNK         0.3000 
    221 H221       -7.0447  -20.7069  -53.8084 H         1 UNK         0.0600 
    222 H222       -9.3537  -20.9198  -55.8148 H         1 UNK         0.0600 
    223 H223       -9.2086  -19.6986  -54.5501 H         1 UNK         0.0600 
    224 H224       -8.0373  -19.7551  -55.8563 H         1 UNK         0.0600 
    225 H225       -6.2650  -23.2053  -53.5515 H         1 UNK         0.3000 
    226 H226       -5.6561  -24.3914  -56.2160 H         1 UNK         0.0600 
    227 H227       -4.9209  -26.3376  -54.8390 H         1 UNK         0.0600 
    228 H228       -5.2478  -25.4448  -53.3583 H         1 UNK         0.0600 
    229 H229       -6.5708  -25.8935  -54.4302 H         1 UNK         0.0600 
    230 H230       -3.4609  -25.0164  -56.6425 H         1 UNK         0.3000 
    231 H231       -1.2741  -24.7050  -56.9263 H         1 UNK         0.0600 
    232 H232       -1.3595  -26.1838  -54.9482 H         1 UNK         0.0600 
    233 H233       -1.3570  -24.8066  -53.8574 H         1 UNK         0.0600 
    234 H234        0.0567  -25.1581  -54.8565 H         1 UNK         0.0600 
    235 H235       -0.2355  -23.1152  -54.1713 H         1 UNK         0.3000 
    236 H236        0.9269  -20.9509  -55.5445 H         1 UNK         0.0600 
    237 H237        1.8812  -21.9928  -53.5025 H         1 UNK         0.0600 
    238 H238        1.6423  -20.2742  -53.2366 H         1 UNK         0.0600 
    239 H239        0.5121  -21.4286  -52.5432 H         1 UNK         0.0600 
    240 H240       -2.3083  -21.1516  -54.3080 H         1 UNK         0.3000 
    241 H241       -2.6617  -18.2550  -54.7444 H         1 UNK         0.0600 
    242 H242       -3.2582  -20.7858  -56.3901 H         1 UNK         0.3800 
    243 H243       -4.9530  -20.5681  -56.7569 H         1 UNK         0.3800 
    244 H244       -4.2292  -19.4544  -52.4604 H         1 UNK         0.0800 
    245 H245       -2.5562  -19.1110  -52.1501 H         1 UNK         0.0800 
    246 H246       -1.5530  -16.6677  -53.3543 H         1 UNK         0.0800 
    247 H247       -2.2401  -15.2550  -52.6064 H         1 UNK         0.0800 
@<TRIPOS>BOND
     1    1    2 1    
     2    1  127 1    
     3    1  128 1    
     4    1  129 1    
     5    2    3 2    
     6    2    4 am   BACKBONE|DICT|INTERRES
     7    4    5 1    
     8    4  130 1    
     9    5    6 1    
    10    5   65 1    
    11    5  131 1    
    12    6    7 1    
    13    6  132 1    
    14    6  133 1    
    15    7    8 1    
    16    8    9 1    
    17    8  134 1    
    18    8  135 1    
    19    9   10 ar   
    20    9   14 ar   
    21   10   11 ar   
    22   10  136 1    
    23   11   12 ar   
    24   11  126 1    
    25   12   13 ar   
    26   12  137 1    
    27   13   14 ar   
    28   13   15 1    
    29   14  138 1    
    30   15   16 1    
    31   15  139 1    
    32   15  140 1    
    33   16   17 1    
    34   17   18 1    
    35   17  141 1    
    36   17  142 1    
    37   18   19 1    
    38   18   67 1    
    39   18  143 1    
    40   19   20 am   BACKBONE|DICT|INTERRES
    41   19  144 1    
    42   20   21 2    
    43   20   22 1    
    44   22   23 1    
    45   22   24 1    
    46   22  145 1    
    47   23  146 1    
    48   23  147 1    
    49   23  148 1    
    50   24   25 am   BACKBONE|DICT|INTERRES
    51   24  149 1    
    52   25   26 2    
    53   25   27 1    
    54   27   28 1    
    55   27   29 1    
    56   27  150 1    
    57   28  151 1    
    58   28  152 1    
    59   28  153 1    
    60   29   30 am   BACKBONE|DICT|INTERRES
    61   29  154 1    
    62   30   31 2    
    63   30   32 1    
    64   32   33 1    
    65   32   34 1    
    66   32  155 1    
    67   33  156 1    
    68   33  157 1    
    69   33  158 1    
    70   34   35 am   BACKBONE|DICT|INTERRES
    71   34  159 1    
    72   35   36 2    
    73   35   37 1    
    74   37   38 1    
    75   37   39 1    
    76   37  160 1    
    77   38  161 1    
    78   38  162 1    
    79   38  163 1    
    80   39   40 am   BACKBONE|DICT|INTERRES
    81   39  164 1    
    82   40   41 2    
    83   40   42 1    
    84   42   43 1    
    85   42   44 1    
    86   42  165 1    
    87   43  166 1    
    88   43  167 1    
    89   43  168 1    
    90   44   45 am   BACKBONE|DICT|INTERRES
    91   44  169 1    
    92   45   46 2    
    93   45   47 1    
    94   47   48 1    
    95   47   49 1    
    96   47  170 1    
    97   48  171 1    
    98   48  172 1    
    99   48  173 1    
   100   49   50 am   BACKBONE|DICT|INTERRES
   101   49  174 1    
   102   50   51 2    
   103   50   52 1    
   104   52   53 1    
   105   52   54 1    
   106   52  175 1    
   107   53  176 1    
   108   53  177 1    
   109   53  178 1    
   110   54   55 am   BACKBONE|DICT|INTERRES
   111   54  179 1    
   112   55   56 2    
   113   55   57 1    
   114   57   58 1    
   115   57   59 1    
   116   57  180 1    
   117   58  181 1    
   118   58  182 1    
   119   58  183 1    
   120   59   60 am   BACKBONE|DICT|INTERRES
   121   59  184 1    
   122   60   61 2    
   123   60   62 1    
   124   62   63 1    
   125   62   64 1    
   126   62  185 1    
   127   63  186 1    
   128   63  187 1    
   129   63  188 1    
   130   64   65 am   BACKBONE|DICT|INTERRES
   131   64  189 1    
   132   65   66 2    
   133   67   68 2    
   134   67   69 am   BACKBONE|DICT|INTERRES
   135   69   70 1    
   136   69  190 1    
   137   70   71 1    
   138   70   72 1    
   139   70  191 1    
   140   71  192 1    
   141   71  193 1    
   142   71  194 1    
   143   72   73 2    
   144   72   74 am   BACKBONE|DICT|INTERRES
   145   74   75 1    
   146   74  195 1    
   147   75   76 1    
   148   75   77 1    
   149   75  196 1    
   150   76  197 1    
   151   76  198 1    
   152   76  199 1    
   153   77   78 2    
   154   77   79 am   BACKBONE|DICT|INTERRES
   155   79   80 1    
   156   79  200 1    
   157   80   81 1    
   158   80   82 1    
   159   80  201 1    
   160   81  202 1    
   161   81  203 1    
   162   81  204 1    
   163   82   83 2    
   164   82   84 am   BACKBONE|DICT|INTERRES
   165   84   85 1    
   166   84  205 1    
   167   85   86 1    
   168   85   87 1    
   169   85  206 1    
   170   86  207 1    
   171   86  208 1    
   172   86  209 1    
   173   87   88 2    
   174   87   89 am   BACKBONE|DICT|INTERRES
   175   89   90 1    
   176   89  210 1    
   177   90   91 1    
   178   90   92 1    
   179   90  211 1    
   180   91  212 1    
   181   91  213 1    
   182   91  214 1    
   183   92   93 2    
   184   92   94 am   BACKBONE|DICT|INTERRES
   185   94   95 1    
   186   94  215 1    
   187   95   96 1    
   188   95   97 1    
   189   95  216 1    
   190   96  217 1    
   191   96  218 1    
   192   96  219 1    
   193   97   98 2    
   194   97   99 am   BACKBONE|DICT|INTERRES
   195   99  100 1    
   196   99  220 1    
   197  100  101 1    
   198  100  102 1    
   199  100  221 1    
   200  101  222 1    
   201  101  223 1    
   202  101  224 1    
   203  102  103 2    
   204  102  104 am   BACKBONE|DICT|INTERRES
   205  104  105 1    
   206  104  225 1    
   207  105  106 1    
   208  105  107 1    
   209  105  226 1    
   210  106  227 1    
   211  106  228 1    
   212  106  229 1    
   213  107  108 2    
   214  107  109 am   BACKBONE|DICT|INTERRES
   215  109  110 1    
   216  109  230 1    
   217  110  111 1    
   218  110  112 1    
   219  110  231 1    
   220  111  232 1    
   221  111  233 1    
   222  111  234 1    
   223  112  113 2    
   224  112  114 am   BACKBONE|DICT|INTERRES
   225  114  115 1    
   226  114  235 1    
   227  115  116 1    
   228  115  117 1    
   229  115  236 1    
   230  116  237 1    
   231  116  238 1    
   232  116  239 1    
   233  117  118 2    
   234  117  119 am   BACKBONE|DICT|INTERRES
   235  119  120 1    
   236  119  240 1    
   237  120  121 1    
   238  120  124 1    
   239  120  241 1    
   240  121  122 am   BACKBONE|DICT|INTERRES
   241  121  123 2    
   242  122  242 1    
   243  122  243 1    
   244  124  125 1    
   245  124  244 1    
   246  124  245 1    
   247  125  126 1    
   248  126  246 1    
   249  126  247 1    
@<TRIPOS>SUBSTRUCTURE
     1 UNK         1 GROUP             0       ****    0 ROOT    
