@<TRIPOS>MOLECULE
3R540
247   249    1
SMALL
USER_CHARGES


@<TRIPOS>ATOM
      1 CA          3.0363  -20.7976  -50.3183 C.3       0 UNK        -0.1800 
      2 C           2.3633  -19.5997  -49.6630 C.2       0 UNK         0.5000 
      3 O           1.3413  -19.7625  -49.0010 O.2       0 UNK        -0.5000 
      4 N           2.9272  -18.3997  -49.8511 N.am      1 UNK        -0.5000 
      5 CA          2.4505  -17.1494  -49.2531 C.3       1 UNK         0.1400 
      6 C6          3.1319  -15.9243  -49.9243 C.3       23 UNK        -0.0398 
      7 S7          2.5947  -14.2944  -49.2825 S.3       23 UNK        -0.2404 
      8 C8          1.3877  -13.7436  -50.5322 C.3       23 UNK        -0.0205 
      9 C9          0.2443  -14.7303  -50.7255 C.ar      23 UNK        -0.0193 
     10 C10        -0.0030  -15.2712  -51.9897 C.ar      23 UNK        -0.1150 
     11 C11        -1.0418  -16.1852  -52.1813 C.ar      23 UNK        -0.0193 
     12 C12        -1.8179  -16.5828  -51.0882 C.ar      23 UNK        -0.1150 
     13 C13        -1.5892  -16.0413  -49.8218 C.ar      23 UNK        -0.0193 
     14 C14        -0.5688  -15.1010  -49.6495 C.ar      23 UNK        -0.1150 
     15 C15        -2.4387  -16.4698  -48.6375 C.3       23 UNK        -0.0205 
     16 S16        -1.6108  -17.7792  -47.6892 S.3       23 UNK        -0.2404 
     17 C17        -2.5662  -19.2689  -48.1441 C.3       23 UNK        -0.0398 
     18 CA         -1.8569  -20.5832  -47.7241 C.3       11 UNK         0.1400 
     19 N          -1.3929  -20.5513  -46.3338 N.am      11 UNK        -0.5000 
     20 C          -0.4743  -21.3768  -45.8143 C.2       10 UNK         0.5000 
     21 O           0.0512  -22.2956  -46.4408 O.2       10 UNK        -0.5000 
     22 CA         -0.1197  -21.1726  -44.3285 C.3       10 UNK         0.1400 
     23 CB          1.0302  -20.1638  -44.1945 C.3       10 UNK        -0.1800 
     24 N          -1.2577  -20.7247  -43.5222 N.am      10 UNK        -0.5000 
     25 C          -2.3992  -21.4131  -43.3608 C.2       9 UNK         0.5000 
     26 O          -2.5803  -22.5376  -43.8259 O.2       9 UNK        -0.5000 
     27 CA         -3.5578  -20.7175  -42.6160 C.3       9 UNK         0.1400 
     28 CB         -3.5656  -21.1284  -41.1366 C.3       9 UNK        -0.1800 
     29 N          -3.5215  -19.2567  -42.7059 N.am      9 UNK        -0.5000 
     30 C          -3.5355  -18.5463  -43.8428 C.2       8 UNK         0.5000 
     31 O          -3.7036  -19.0495  -44.9538 O.2       8 UNK        -0.5000 
     32 CA         -3.2549  -17.0337  -43.7316 C.3       8 UNK         0.1400 
     33 CB         -4.5626  -16.2376  -43.8472 C.3       8 UNK        -0.1800 
     34 N          -2.5459  -16.6070  -42.5165 N.am      8 UNK        -0.5000 
     35 C          -1.3735  -17.0678  -42.0582 C.2       7 UNK         0.5000 
     36 O          -0.7560  -17.9957  -42.5821 O.2       7 UNK        -0.5000 
     37 CA         -0.7976  -16.3574  -40.8157 C.3       7 UNK         0.1400 
     38 CB          0.3347  -17.1661  -40.1579 C.3       7 UNK        -0.1800 
     39 N          -0.2975  -15.0180  -41.1339 N.am      7 UNK        -0.5000 
     40 C          -1.0593  -13.9450  -41.3986 C.2       6 UNK         0.5000 
     41 O          -2.2918  -13.9726  -41.3787 O.2       6 UNK        -0.5000 
     42 CA         -0.3240  -12.6264  -41.7018 C.3       6 UNK         0.1400 
     43 CB         -1.2108  -11.3789  -41.5234 C.3       6 UNK        -0.1800 
     44 N           0.8607  -12.5199  -40.8569 N.am      6 UNK        -0.5000 
     45 C           2.0146  -11.9414  -41.2022 C.2       5 UNK         0.5000 
     46 O           2.1879  -11.3193  -42.2510 O.2       5 UNK        -0.5000 
     47 CA          3.1923  -12.1080  -40.2201 C.3       5 UNK         0.1400 
     48 CB          2.7587  -12.3374  -38.7542 C.3       5 UNK        -0.1800 
     49 N           4.1071  -13.1658  -40.6596 N.am      5 UNK        -0.5000 
     50 C           3.8112  -14.4534  -40.8883 C.2       4 UNK         0.5000 
     51 O           2.6907  -14.9457  -40.7367 O.2       4 UNK        -0.5000 
     52 CA          4.9604  -15.3261  -41.4246 C.3       4 UNK         0.1400 
     53 CB          4.8499  -16.7824  -40.9402 C.3       4 UNK        -0.1800 
     54 N           4.9495  -15.3145  -42.8835 N.am      4 UNK        -0.5000 
     55 C           5.3377  -14.2923  -43.6584 C.2       3 UNK         0.5000 
     56 O           5.8872  -13.2782  -43.2256 O.2       3 UNK        -0.5000 
     57 CA          5.0563  -14.4207  -45.1692 C.3       3 UNK         0.1400 
     58 CB          6.3204  -14.8605  -45.9227 C.3       3 UNK        -0.1800 
     59 N           3.9741  -15.3597  -45.4735 N.am      3 UNK        -0.5000 
     60 C           2.6782  -15.1575  -45.2063 C.2       2 UNK         0.5000 
     61 O           2.2420  -14.1173  -44.7113 O.2       2 UNK        -0.5000 
     62 CA          1.7226  -16.3171  -45.5585 C.3       2 UNK         0.1400 
     63 CB          0.2887  -16.0540  -45.0726 C.3       2 UNK        -0.1800 
     64 N           1.6853  -16.5848  -46.9951 N.am      2 UNK        -0.5000 
     65 C           2.6526  -17.1587  -47.7206 C.2       1 UNK         0.5000 
     66 O           3.6880  -17.6242  -47.2350 O.2       1 UNK        -0.5000 
     67 C          -2.7568  -21.8092  -47.9882 C.2       11 UNK         0.5000 
     68 O          -2.7766  -22.3288  -49.1062 O.2       11 UNK        -0.5000 
     69 N          -3.4699  -22.2586  -46.9449 N.am      12 UNK        -0.5000 
     70 CA         -4.2443  -23.4961  -46.9381 C.3       12 UNK         0.1400 
     71 CB         -5.3358  -23.4172  -45.8607 C.3       12 UNK        -0.1800 
     72 C          -3.3376  -24.7207  -46.7221 C.2       12 UNK         0.5000 
     73 O          -3.5182  -25.7323  -47.3982 O.2       12 UNK        -0.5000 
     74 N          -2.3606  -24.6037  -45.8098 N.am      13 UNK        -0.5000 
     75 CA         -1.3831  -25.6483  -45.4883 C.3       13 UNK         0.1400 
     76 CB         -0.5483  -25.2190  -44.2738 C.3       13 UNK        -0.1800 
     77 C          -0.4648  -26.0207  -46.6679 C.2       13 UNK         0.5000 
     78 O          -0.0582  -27.1789  -46.7729 O.2       13 UNK        -0.5000 
     79 N          -0.1927  -25.0583  -47.5605 N.am      14 UNK        -0.5000 
     80 CA          0.5386  -25.2150  -48.8214 C.3       14 UNK         0.1400 
     81 CB          0.9730  -23.8195  -49.3087 C.3       14 UNK        -0.1800 
     82 C          -0.2710  -25.9847  -49.8925 C.2       14 UNK         0.5000 
     83 O          -0.4587  -25.4860  -51.0037 O.2       14 UNK        -0.5000 
     84 N          -0.7754  -27.1730  -49.5250 N.am      15 UNK        -0.5000 
     85 CA         -1.5941  -28.1034  -50.3176 C.3       15 UNK         0.1400 
     86 CB         -0.7313  -28.7503  -51.4205 C.3       15 UNK        -0.1800 
     87 C          -2.8905  -27.4783  -50.8835 C.2       15 UNK         0.5000 
     88 O          -3.4030  -27.9437  -51.9025 O.2       15 UNK        -0.5000 
     89 N          -3.3642  -26.4034  -50.2358 N.am      16 UNK        -0.5000 
     90 CA         -4.4228  -25.4794  -50.6515 C.3       16 UNK         0.1400 
     91 CB         -5.7976  -26.1755  -50.6250 C.3       16 UNK        -0.1800 
     92 C          -4.1564  -24.7570  -51.9904 C.2       16 UNK         0.5000 
     93 O          -5.0733  -24.1329  -52.5230 O.2       16 UNK        -0.5000 
     94 N          -2.9242  -24.8274  -52.5155 N.am      17 UNK        -0.5000 
     95 CA         -2.5559  -24.2998  -53.8273 C.3       17 UNK         0.1400 
     96 CB         -1.1849  -24.8538  -54.2430 C.3       17 UNK        -0.1800 
     97 C          -2.5626  -22.7666  -53.8521 C.2       17 UNK         0.5000 
     98 O          -3.1245  -22.1768  -54.7736 O.2       17 UNK        -0.5000 
     99 N          -1.9799  -22.1503  -52.8154 N.am      18 UNK        -0.5000 
    100 CA        -1.9679  -20.7000  -52.6356 C.3       18 UNK         0.1400 
    101 CB        -0.9451  -20.3256  -51.5558 C.3       18 UNK        -0.1800 
    102 C         -3.3694  -20.1481  -52.3194 C.2       18 UNK         0.5000 
    103 O         -3.7525  -19.1165  -52.8711 O.2       18 UNK        -0.5000 
    104 N         -4.1326  -20.8722  -51.4879 N.am      19 UNK        -0.5000 
    105 CA        -5.5335  -20.5717  -51.1860 C.3       19 UNK         0.1400 
    106 CB        -6.0521  -21.5327  -50.1049 C.3       19 UNK        -0.1800 
    107 C         -6.4351  -20.6028  -52.4362 C.2       19 UNK         0.5000 
    108 O         -7.2443  -19.6939  -52.6198 O.2       19 UNK        -0.5000 
    109 N         -6.2559  -21.6181  -53.2922 N.am      20 UNK        -0.5000 
    110 CA        -6.9585  -21.7523  -54.5682 C.3       20 UNK         0.1400 
    111 CB        -6.7308  -23.1617  -55.1360 C.3       20 UNK        -0.1800 
    112 C         -6.5496  -20.6815  -55.5968 C.2       20 UNK         0.5000 
    113 O         -7.4161  -20.1648  -56.3033 O.2       20 UNK        -0.5000 
    114 N         -5.2470  -20.3733  -55.6686 N.am      21 UNK        -0.5000 
    115 CA        -4.6764  -19.4038  -56.6029 C.3       21 UNK         0.1400 
    116 CB        -3.1456  -19.5415  -56.6278 C.3       21 UNK        -0.1800 
    117 C         -5.0813  -17.9531  -56.2944 C.2       21 UNK         0.5000 
    118 O         -5.5335  -17.2491  -57.1992 O.2       21 UNK        -0.5000 
    119 N         -4.8939  -17.5307  -55.0386 N.am      22 UNK        -0.5000 
    120 CA        -5.1097  -16.1422  -54.5988 C.3       22 UNK         0.1400 
    121 C         -6.4923  -15.8907  -53.9336 C.2       22 UNK         0.5000 
    122 N         -7.2844  -16.9035  -53.6084 N.am      22 UNK        -0.7600 
    123 O         -6.8676  -14.7404  -53.7231 O.2       22 UNK        -0.5000 
    124 C124       -3.9579  -15.6495  -53.6894 C.3       23 UNK        -0.0398 
    125 S125       -2.3478  -15.5978  -54.5571 S.3       23 UNK        -0.2404 
    126 C126       -1.3203  -16.7344  -53.5721 C.3       23 UNK        -0.0205 
    127 H127        2.3326  -21.3127  -50.9720 H         1 UNK         0.0600 
    128 H128        3.3701  -21.5014  -49.5558 H         1 UNK         0.0600 
    129 H129        3.9011  -20.5031  -50.9133 H         1 UNK         0.0600 
    130 H130        3.7848  -18.3365  -50.3798 H         1 UNK         0.3000 
    131 H131        1.3788  -17.0950  -49.4523 H         1 UNK         0.0600 
    132 H132        2.9588  -15.9501  -51.0010 H         1 UNK         0.0800 
    133 H133        4.2141  -15.9847  -49.7969 H         1 UNK         0.0800 
    134 H134        1.9127  -13.5653  -51.4719 H         1 UNK         0.0800 
    135 H135        0.9752  -12.7821  -50.2241 H         1 UNK         0.0800 
    136 H136        0.6061  -14.9746  -52.8322 H         1 UNK         0.1150 
    137 H137       -2.6079  -17.3074  -51.2220 H         1 UNK         0.1150 
    138 H138       -0.3904  -14.6749  -48.6722 H         1 UNK         0.1150 
    139 H139       -2.6085  -15.6154  -47.9807 H         1 UNK         0.0800 
    140 H140       -3.4252  -16.8003  -48.9660 H         1 UNK         0.0800 
    141 H141       -2.7348  -19.2617  -49.2220 H         1 UNK         0.0800 
    142 H142       -3.5491  -19.1918  -47.6758 H         1 UNK         0.0800 
    143 H143       -0.9733  -20.6997  -48.3512 H         1 UNK         0.0600 
    144 H144       -1.8120  -19.8414  -45.7463 H         1 UNK         0.3000 
    145 H145        0.2173  -22.1278  -43.9246 H         1 UNK         0.0600 
    146 H146        1.3266  -20.0353  -43.1533 H         1 UNK         0.0600 
    147 H147        1.9096  -20.4961  -44.7476 H         1 UNK         0.0600 
    148 H148        0.7476  -19.1862  -44.5855 H         1 UNK         0.0600 
    149 H149       -1.1813  -19.7930  -43.1215 H         1 UNK         0.3000 
    150 H150       -4.4897  -21.0549  -43.0739 H         1 UNK         0.0600 
    151 H151       -3.6161  -22.2132  -41.0331 H         1 UNK         0.0600 
    152 H152       -4.4284  -20.7132  -40.6156 H         1 UNK         0.0600 
    153 H153       -2.6655  -20.7906  -40.6211 H         1 UNK         0.0600 
    154 H154       -3.3689  -18.7559  -41.8435 H         1 UNK         0.3000 
    155 H155       -2.6250  -16.7684  -44.5819 H         1 UNK         0.0600 
    156 H156       -5.2258  -16.4315  -43.0034 H         1 UNK         0.0600 
    157 H157       -5.1025  -16.5001  -44.7582 H         1 UNK         0.0600 
    158 H158       -4.3695  -15.1652  -43.8838 H         1 UNK         0.0600 
    159 H159       -2.9230  -15.7895  -42.0483 H         1 UNK         0.3000 
    160 H160       -1.6039  -16.2642  -40.0853 H         1 UNK         0.0600 
    161 H161        1.1859  -17.2877  -40.8293 H         1 UNK         0.0600 
    162 H162       -0.0076  -18.1630  -39.8776 H         1 UNK         0.0600 
    163 H163        0.6934  -16.6778  -39.2518 H         1 UNK         0.0600 
    164 H164        0.7139  -14.9232  -41.1678 H         1 UNK         0.3000 
    165 H165       -0.0152  -12.6861  -42.7478 H         1 UNK         0.0600 
    166 H166       -0.6665  -10.4681  -41.7732 H         1 UNK         0.0600 
    167 H167       -2.0843  -11.4207  -42.1752 H         1 UNK         0.0600 
    168 H168       -1.5672  -11.2857  -40.4970 H         1 UNK         0.0600 
    169 H169        0.8267  -13.0359  -39.9883 H         1 UNK         0.3000 
    170 H170        3.7550  -11.1739  -40.2528 H         1 UNK         0.0600 
    171 H171        2.0784  -11.5529  -38.4201 H         1 UNK         0.0600 
    172 H172        2.2583  -13.2952  -38.6091 H         1 UNK         0.0600 
    173 H173        3.6219  -12.3170  -38.0890 H         1 UNK         0.0600 
    174 H174        5.0353  -12.8522  -40.9108 H         1 UNK         0.3000 
    175 H175        5.9095  -14.9211  -41.0670 H         1 UNK         0.0600 
    176 H176        3.9414  -17.2650  -41.3032 H         1 UNK         0.0600 
    177 H177        5.7005  -17.3748  -41.2776 H         1 UNK         0.0600 
    178 H178        4.8327  -16.8292  -39.8506 H         1 UNK         0.0600 
    179 H179        4.4952  -16.0952  -43.3322 H         1 UNK         0.3000 
    180 H180        4.7645  -13.4339  -45.5346 H         1 UNK         0.0600 
    181 H181        6.1475  -14.8885  -46.9989 H         1 UNK         0.0600 
    182 H182        6.6509  -15.8516  -45.6096 H         1 UNK         0.0600 
    183 H183        7.1434  -14.1672  -45.7440 H         1 UNK         0.0600 
    184 H184        4.2287  -16.2242  -45.9419 H         1 UNK         0.3000 
    185 H185        2.0928  -17.2059  -45.0441 H         1 UNK         0.0600 
    186 H186       -0.3206  -16.9520  -45.1625 H         1 UNK         0.0600 
    187 H187        0.2799  -15.7625  -44.0227 H         1 UNK         0.0600 
    188 H188       -0.1944  -15.2565  -45.6383 H         1 UNK         0.0600 
    189 H189        0.8742  -16.2317  -47.4811 H         1 UNK         0.3000 
    190 H190       -3.3765  -21.7778  -46.0612 H         1 UNK         0.3000 
    191 H191       -4.7417  -23.6047  -47.9028 H         1 UNK         0.0600 
    192 H192       -5.9511  -24.3177  -45.8656 H         1 UNK         0.0600 
    193 H193       -5.9990  -22.5696  -46.0347 H         1 UNK         0.0600 
    194 H194       -4.9163  -23.3138  -44.8600 H         1 UNK         0.0600 
    195 H195       -2.3220  -23.7614  -45.2424 H         1 UNK         0.3000 
    196 H196       -1.9432  -26.5445  -45.2138 H         1 UNK         0.0600 
    197 H197        0.0753  -24.3562  -44.5040 H         1 UNK         0.0600 
    198 H198       -1.1821  -24.9630  -43.4246 H         1 UNK         0.0600 
    199 H199        0.1149  -26.0237  -43.9542 H         1 UNK         0.0600 
    200 H200       -0.5097  -24.1192  -47.3475 H         1 UNK         0.3000 
    201 H201        1.4413  -25.7965  -48.6249 H         1 UNK         0.0600 
    202 H202        0.1136  -23.1770  -49.5064 H         1 UNK         0.0600 
    203 H203        1.5555  -23.8848  -50.2284 H         1 UNK         0.0600 
    204 H204        1.5966  -23.3190  -48.5677 H         1 UNK         0.0600 
    205 H205       -0.5821  -27.4641  -48.5699 H         1 UNK         0.3000 
    206 H206       -1.9109  -28.8921  -49.6340 H         1 UNK         0.0600 
    207 H207        0.1720  -29.1959  -51.0040 H         1 UNK         0.0600 
    208 H208       -1.2756  -29.5450  -51.9320 H         1 UNK         0.0600 
    209 H209       -0.4294  -28.0221  -52.1743 H         1 UNK         0.0600 
    210 H210       -2.9135  -26.1526  -49.3631 H         1 UNK         0.3000 
    211 H211       -4.4384  -24.6911  -49.9005 H         1 UNK         0.0600 
    212 H212       -6.6038  -25.4599  -50.7906 H         1 UNK         0.0600 
    213 H213       -5.9794  -26.6481  -49.6597 H         1 UNK         0.0600 
    214 H214       -5.8778  -26.9419  -51.3961 H         1 UNK         0.0600 
    215 H215       -2.1894  -25.2915  -51.9907 H         1 UNK         0.3000 
    216 H216       -3.2951  -24.6493  -54.5514 H         1 UNK         0.0600 
    217 H217       -0.3945  -24.5322  -53.5639 H         1 UNK         0.0600 
    218 H218       -0.9154  -24.5149  -55.2440 H         1 UNK         0.0600 
    219 H219       -1.1890  -25.9440  -54.2574 H         1 UNK         0.0600 
    220 H220       -1.5645  -22.7131  -52.0866 H         1 UNK         0.3000 
    221 H221       -1.6419  -20.2444  -53.5727 H         1 UNK         0.0600 
    222 H222        0.0668  -20.5734  -51.8754 H         1 UNK         0.0600 
    223 H223       -1.1338  -20.8550  -50.6248 H         1 UNK         0.0600 
    224 H224       -0.9611  -19.2579  -51.3393 H         1 UNK         0.0600 
    225 H225       -3.7338  -21.6919  -51.0488 H         1 UNK         0.3000 
    226 H226       -5.5722  -19.5580  -50.7815 H         1 UNK         0.0600 
    227 H227       -5.9630  -22.5748  -50.4116 H         1 UNK         0.0600 
    228 H228       -5.5044  -21.4079  -49.1717 H         1 UNK         0.0600 
    229 H229       -7.1040  -21.3440  -49.8872 H         1 UNK         0.0600 
    230 H230       -5.6151  -22.3681  -53.0475 H         1 UNK         0.3000 
    231 H231       -8.0274  -21.6362  -54.3770 H         1 UNK         0.0600 
    232 H232       -5.6720  -23.3606  -55.3063 H         1 UNK         0.0600 
    233 H233       -7.2477  -23.2893  -56.0878 H         1 UNK         0.0600 
    234 H234       -7.1087  -23.9253  -54.4560 H         1 UNK         0.0600 
    235 H235       -4.5880  -20.8901  -55.0944 H         1 UNK         0.3000 
    236 H236       -5.0471  -19.6450  -57.6015 H         1 UNK         0.0600 
    237 H237       -2.8448  -20.5340  -56.9633 H         1 UNK         0.0600 
    238 H238       -2.6983  -18.8189  -57.3114 H         1 UNK         0.0600 
    239 H239       -2.7097  -19.3738  -55.6425 H         1 UNK         0.0600 
    240 H240       -4.5237  -18.1710  -54.3407 H         1 UNK         0.3000 
    241 H241       -5.1044  -15.4917  -55.4754 H         1 UNK         0.0600 
    242 H242       -8.1777  -16.7089  -53.1859 H         1 UNK         0.3800 
    243 H243       -6.9911  -17.8663  -53.7093 H         1 UNK         0.3800 
    244 H244       -3.8983  -16.2827  -52.8062 H         1 UNK         0.0800 
    245 H245       -4.1553  -14.6399  -53.3249 H         1 UNK         0.0800 
    246 H246       -0.3764  -16.8936  -54.0952 H         1 UNK         0.0800 
    247 H247       -1.7974  -17.7096  -53.5193 H         1 UNK         0.0800 
@<TRIPOS>BOND
     1    1    2 1    
     2    1  127 1    
     3    1  128 1    
     4    1  129 1    
     5    2    3 2    
     6    2    4 am   BACKBONE|DICT|INTERRES
     7    4    5 1    
     8    4  130 1    
     9    5    6 1    
    10    5   65 1    
    11    5  131 1    
    12    6    7 1    
    13    6  132 1    
    14    6  133 1    
    15    7    8 1    
    16    8    9 1    
    17    8  134 1    
    18    8  135 1    
    19    9   10 ar   
    20    9   14 ar   
    21   10   11 ar   
    22   10  136 1    
    23   11   12 ar   
    24   11  126 1    
    25   12   13 ar   
    26   12  137 1    
    27   13   14 ar   
    28   13   15 1    
    29   14  138 1    
    30   15   16 1    
    31   15  139 1    
    32   15  140 1    
    33   16   17 1    
    34   17   18 1    
    35   17  141 1    
    36   17  142 1    
    37   18   19 1    
    38   18   67 1    
    39   18  143 1    
    40   19   20 am   BACKBONE|DICT|INTERRES
    41   19  144 1    
    42   20   21 2    
    43   20   22 1    
    44   22   23 1    
    45   22   24 1    
    46   22  145 1    
    47   23  146 1    
    48   23  147 1    
    49   23  148 1    
    50   24   25 am   BACKBONE|DICT|INTERRES
    51   24  149 1    
    52   25   26 2    
    53   25   27 1    
    54   27   28 1    
    55   27   29 1    
    56   27  150 1    
    57   28  151 1    
    58   28  152 1    
    59   28  153 1    
    60   29   30 am   BACKBONE|DICT|INTERRES
    61   29  154 1    
    62   30   31 2    
    63   30   32 1    
    64   32   33 1    
    65   32   34 1    
    66   32  155 1    
    67   33  156 1    
    68   33  157 1    
    69   33  158 1    
    70   34   35 am   BACKBONE|DICT|INTERRES
    71   34  159 1    
    72   35   36 2    
    73   35   37 1    
    74   37   38 1    
    75   37   39 1    
    76   37  160 1    
    77   38  161 1    
    78   38  162 1    
    79   38  163 1    
    80   39   40 am   BACKBONE|DICT|INTERRES
    81   39  164 1    
    82   40   41 2    
    83   40   42 1    
    84   42   43 1    
    85   42   44 1    
    86   42  165 1    
    87   43  166 1    
    88   43  167 1    
    89   43  168 1    
    90   44   45 am   BACKBONE|DICT|INTERRES
    91   44  169 1    
    92   45   46 2    
    93   45   47 1    
    94   47   48 1    
    95   47   49 1    
    96   47  170 1    
    97   48  171 1    
    98   48  172 1    
    99   48  173 1    
   100   49   50 am   BACKBONE|DICT|INTERRES
   101   49  174 1    
   102   50   51 2    
   103   50   52 1    
   104   52   53 1    
   105   52   54 1    
   106   52  175 1    
   107   53  176 1    
   108   53  177 1    
   109   53  178 1    
   110   54   55 am   BACKBONE|DICT|INTERRES
   111   54  179 1    
   112   55   56 2    
   113   55   57 1    
   114   57   58 1    
   115   57   59 1    
   116   57  180 1    
   117   58  181 1    
   118   58  182 1    
   119   58  183 1    
   120   59   60 am   BACKBONE|DICT|INTERRES
   121   59  184 1    
   122   60   61 2    
   123   60   62 1    
   124   62   63 1    
   125   62   64 1    
   126   62  185 1    
   127   63  186 1    
   128   63  187 1    
   129   63  188 1    
   130   64   65 am   BACKBONE|DICT|INTERRES
   131   64  189 1    
   132   65   66 2    
   133   67   68 2    
   134   67   69 am   BACKBONE|DICT|INTERRES
   135   69   70 1    
   136   69  190 1    
   137   70   71 1    
   138   70   72 1    
   139   70  191 1    
   140   71  192 1    
   141   71  193 1    
   142   71  194 1    
   143   72   73 2    
   144   72   74 am   BACKBONE|DICT|INTERRES
   145   74   75 1    
   146   74  195 1    
   147   75   76 1    
   148   75   77 1    
   149   75  196 1    
   150   76  197 1    
   151   76  198 1    
   152   76  199 1    
   153   77   78 2    
   154   77   79 am   BACKBONE|DICT|INTERRES
   155   79   80 1    
   156   79  200 1    
   157   80   81 1    
   158   80   82 1    
   159   80  201 1    
   160   81  202 1    
   161   81  203 1    
   162   81  204 1    
   163   82   83 2    
   164   82   84 am   BACKBONE|DICT|INTERRES
   165   84   85 1    
   166   84  205 1    
   167   85   86 1    
   168   85   87 1    
   169   85  206 1    
   170   86  207 1    
   171   86  208 1    
   172   86  209 1    
   173   87   88 2    
   174   87   89 am   BACKBONE|DICT|INTERRES
   175   89   90 1    
   176   89  210 1    
   177   90   91 1    
   178   90   92 1    
   179   90  211 1    
   180   91  212 1    
   181   91  213 1    
   182   91  214 1    
   183   92   93 2    
   184   92   94 am   BACKBONE|DICT|INTERRES
   185   94   95 1    
   186   94  215 1    
   187   95   96 1    
   188   95   97 1    
   189   95  216 1    
   190   96  217 1    
   191   96  218 1    
   192   96  219 1    
   193   97   98 2    
   194   97   99 am   BACKBONE|DICT|INTERRES
   195   99  100 1    
   196   99  220 1    
   197  100  101 1    
   198  100  102 1    
   199  100  221 1    
   200  101  222 1    
   201  101  223 1    
   202  101  224 1    
   203  102  103 2    
   204  102  104 am   BACKBONE|DICT|INTERRES
   205  104  105 1    
   206  104  225 1    
   207  105  106 1    
   208  105  107 1    
   209  105  226 1    
   210  106  227 1    
   211  106  228 1    
   212  106  229 1    
   213  107  108 2    
   214  107  109 am   BACKBONE|DICT|INTERRES
   215  109  110 1    
   216  109  230 1    
   217  110  111 1    
   218  110  112 1    
   219  110  231 1    
   220  111  232 1    
   221  111  233 1    
   222  111  234 1    
   223  112  113 2    
   224  112  114 am   BACKBONE|DICT|INTERRES
   225  114  115 1    
   226  114  235 1    
   227  115  116 1    
   228  115  117 1    
   229  115  236 1    
   230  116  237 1    
   231  116  238 1    
   232  116  239 1    
   233  117  118 2    
   234  117  119 am   BACKBONE|DICT|INTERRES
   235  119  120 1    
   236  119  240 1    
   237  120  121 1    
   238  120  124 1    
   239  120  241 1    
   240  121  122 am   BACKBONE|DICT|INTERRES
   241  121  123 2    
   242  122  242 1    
   243  122  243 1    
   244  124  125 1    
   245  124  244 1    
   246  124  245 1    
   247  125  126 1    
   248  126  246 1    
   249  126  247 1    
@<TRIPOS>SUBSTRUCTURE
     1 UNK         1 GROUP             0       ****    0 ROOT    
