@<TRIPOS>MOLECULE
3R540
247   249    1
SMALL
USER_CHARGES


@<TRIPOS>ATOM
      1 CA         -3.6278  -17.0810  -49.2736 C.3       0 UNK        -0.1800 
      2 C          -2.1512  -17.4432  -49.4156 C.2       0 UNK         0.5000 
      3 O          -1.8322  -18.6258  -49.4708 O.2       0 UNK        -0.5000 
      4 N          -1.2195  -16.4804  -49.4870 N.am      1 UNK        -0.5000 
      5 CA         -1.4330  -15.0267  -49.4496 C.3       1 UNK         0.1400 
      6 C6         -0.1720  -14.2448  -49.9001 C.3       23 UNK        -0.0398 
      7 S7          1.3205  -14.5856  -48.8926 S.3       23 UNK        -0.2404 
      8 C8          2.5729  -14.9855  -50.1505 C.3       23 UNK        -0.0205 
      9 C9          2.3209  -16.3376  -50.7983 C.ar      23 UNK        -0.0193 
     10 C10         1.7160  -16.4133  -52.0545 C.ar      23 UNK        -0.1150 
     11 C11         1.4747  -17.6519  -52.6525 C.ar      23 UNK        -0.0193 
     12 C12         1.8587  -18.8214  -51.9907 C.ar      23 UNK        -0.1150 
     13 C13         2.4804  -18.7625  -50.7398 C.ar      23 UNK        -0.0193 
     14 C14         2.7103  -17.5132  -50.1506 C.ar      23 UNK        -0.1150 
     15 C15         2.9348  -20.0526  -50.0624 C.3       23 UNK        -0.0205 
     16 S16         2.5634  -20.1167  -48.2795 S.3       23 UNK        -0.2404 
     17 C17         0.7381  -20.1532  -48.2786 C.3       23 UNK        -0.0398 
     18 CA          0.1473  -21.3820  -47.5381 C.3       11 UNK         0.1400 
     19 N           0.7083  -21.5690  -46.1987 N.am      11 UNK        -0.5000 
     20 C           1.3120  -22.6923  -45.7930 C.2       10 UNK         0.5000 
     21 O           1.3086  -23.7443  -46.4326 O.2       10 UNK        -0.5000 
     22 CA          2.1026  -22.6315  -44.4773 C.3       10 UNK         0.1400 
     23 CB          3.5234  -22.1113  -44.7459 C.3       10 UNK        -0.1800 
     24 N           1.4694  -21.8123  -43.4443 N.am      10 UNK        -0.5000 
     25 C           0.4728  -22.2491  -42.6635 C.2       9 UNK         0.5000 
     26 O          -0.0746  -23.3424  -42.8074 O.2       9 UNK        -0.5000 
     27 CA          0.0347  -21.3327  -41.5056 C.3       9 UNK         0.1400 
     28 CB          1.0488  -21.3924  -40.3527 C.3       9 UNK        -0.1800 
     29 N          -0.1520  -19.9417  -41.9094 N.am      9 UNK        -0.5000 
     30 C          -1.1480  -19.5126  -42.6945 C.2       8 UNK         0.5000 
     31 O          -2.0177  -20.2467  -43.1634 O.2       8 UNK        -0.5000 
     32 CA         -1.1338  -18.0167  -43.0622 C.3       8 UNK         0.1400 
     33 CB         -1.6385  -17.1431  -41.9054 C.3       8 UNK        -0.1800 
     34 N           0.1894  -17.5714  -43.4910 N.am      8 UNK        -0.5000 
     35 C           0.8266  -18.0546  -44.5650 C.2       7 UNK         0.5000 
     36 O           0.3194  -18.8617  -45.3423 O.2       7 UNK        -0.5000 
     37 CA          2.2735  -17.5873  -44.7912 C.3       7 UNK         0.1400 
     38 CB          2.2986  -16.2974  -45.6236 C.3       7 UNK        -0.1800 
     39 N           2.9962  -17.3840  -43.5334 N.am      7 UNK        -0.5000 
     40 C           3.3585  -18.3744  -42.7047 C.2       6 UNK         0.5000 
     41 O           3.1338  -19.5629  -42.9224 O.2       6 UNK        -0.5000 
     42 CA          4.0380  -17.9654  -41.3864 C.3       6 UNK         0.1400 
     43 CB          5.5021  -17.5666  -41.6252 C.3       6 UNK        -0.1800 
     44 N           3.3350  -16.8711  -40.7192 N.am      6 UNK        -0.5000 
     45 C           2.0898  -16.9544  -40.2290 C.2       5 UNK         0.5000 
     46 O           1.4191  -17.9871  -40.2335 O.2       5 UNK        -0.5000 
     47 CA          1.4733  -15.6464  -39.6941 C.3       5 UNK         0.1400 
     48 CB          1.8043  -15.4643  -38.2055 C.3       5 UNK        -0.1800 
     49 N           1.8958  -14.4525  -40.4365 N.am      5 UNK        -0.5000 
     50 C           1.6863  -14.2586  -41.7449 C.2       4 UNK         0.5000 
     51 O           1.1217  -15.0790  -42.4752 O.2       4 UNK        -0.5000 
     52 CA          2.2357  -12.9606  -42.3505 C.3       4 UNK         0.1400 
     53 CB          3.7683  -13.0122  -42.4786 C.3       4 UNK        -0.1800 
     54 N           1.6424  -12.8114  -43.6707 N.am      4 UNK        -0.5000 
     55 C           1.3892  -11.6699  -44.3142 C.2       3 UNK         0.5000 
     56 O           1.7098  -10.5592  -43.8892 O.2       3 UNK        -0.5000 
     57 CA          0.6481  -11.7875  -45.6624 C.3       3 UNK         0.1400 
     58 CB          1.6236  -11.5723  -46.8297 C.3       3 UNK        -0.1800 
     59 N          -0.0429  -13.0684  -45.8559 N.am      3 UNK        -0.5000 
     60 C          -1.1449  -13.4570  -45.1955 C.2       2 UNK         0.5000 
     61 O          -1.6750  -12.7806  -44.3129 O.2       2 UNK        -0.5000 
     62 CA         -1.7482  -14.8266  -45.5880 C.3       2 UNK         0.1400 
     63 CB         -3.2460  -14.9321  -45.2309 C.3       2 UNK        -0.1800 
     64 N          -1.5152  -15.1866  -46.9946 N.am      2 UNK        -0.5000 
     65 C          -1.9274  -14.5103  -48.0803 C.2       1 UNK         0.5000 
     66 O          -2.6470  -13.5126  -48.0411 O.2       1 UNK        -0.5000 
     67 C          -1.3823  -21.2863  -47.4585 C.2       11 UNK         0.5000 
     68 O          -2.0674  -22.0576  -48.1308 O.2       11 UNK        -0.5000 
     69 N          -1.9019  -20.3543  -46.6442 N.am      12 UNK        -0.5000 
     70 CA         -3.3318  -20.0302  -46.6175 C.3       12 UNK         0.1400 
     71 CB         -3.5842  -18.7267  -45.8529 C.3       12 UNK        -0.1800 
     72 C          -4.1907  -21.1813  -46.0716 C.2       12 UNK         0.5000 
     73 O          -5.1741  -21.5623  -46.7083 O.2       12 UNK        -0.5000 
     74 N          -3.7648  -21.7538  -44.9376 N.am      13 UNK        -0.5000 
     75 CA         -4.3814  -22.9275  -44.3160 C.3       13 UNK         0.1400 
     76 CB         -3.7771  -23.1378  -42.9207 C.3       13 UNK        -0.1800 
     77 C          -4.2512  -24.2082  -45.1648 C.2       13 UNK         0.5000 
     78 O          -5.0925  -25.0997  -45.0467 O.2       13 UNK        -0.5000 
     79 N          -3.2395  -24.2647  -46.0417 N.am      14 UNK        -0.5000 
     80 CA         -3.0192  -25.3294  -47.0204 C.3       14 UNK         0.1400 
     81 CB         -1.5130  -25.4372  -47.3156 C.3       14 UNK        -0.1800 
     82 C          -3.8629  -25.0992  -48.2918 C.2       14 UNK         0.5000 
     83 O          -3.3224  -25.0665  -49.3985 O.2       14 UNK        -0.5000 
     84 N          -5.1795  -24.9296  -48.0992 N.am      15 UNK        -0.5000 
     85 CA         -6.2198  -24.7471  -49.1181 C.3       15 UNK         0.1400 
     86 CB         -6.4594  -26.0747  -49.8675 C.3       15 UNK        -0.1800 
     87 C          -5.9601  -23.5603  -50.0718 C.2       15 UNK         0.5000 
     88 O          -6.2262  -23.6710  -51.2694 O.2       15 UNK        -0.5000 
     89 N          -5.4363  -22.4543  -49.5195 N.am      16 UNK        -0.5000 
     90 CA         -5.0124  -21.2373  -50.2193 C.3       16 UNK         0.1400 
     91 CB         -6.2331  -20.4625  -50.7508 C.3       16 UNK        -0.1800 
     92 C          -3.9509  -21.5367  -51.2956 C.2       16 UNK         0.5000 
     93 O          -4.1696  -21.2729  -52.4799 O.2       16 UNK        -0.5000 
     94 N          -2.8402  -22.1367  -50.8441 N.am      17 UNK        -0.5000 
     95 CA         -1.7078  -22.6301  -51.6286 C.3       17 UNK         0.1400 
     96 CB         -0.9163  -21.4506  -52.2253 C.3       17 UNK        -0.1800 
     97 C          -2.1470  -23.6697  -52.6800 C.2       17 UNK         0.5000 
     98 O          -1.8450  -23.5060  -53.8633 O.2       17 UNK        -0.5000 
     99 N          -2.8892  -24.6810  -52.1985 N.am      18 UNK        -0.5000 
    100 CA        -3.5535  -25.8131  -52.8631 C.3       18 UNK         0.1400 
    101 CB        -3.0214  -27.1147  -52.2349 C.3       18 UNK        -0.1800 
    102 C         -3.5043  -25.8577  -54.4112 C.2       18 UNK         0.5000 
    103 O         -2.7313  -26.6383  -54.9678 O.2       18 UNK        -0.5000 
    104 N         -4.2922  -25.0456  -55.1275 N.am      19 UNK        -0.5000 
    105 CA        -5.2112  -24.0182  -54.6416 C.3       19 UNK         0.1400 
    106 CB        -6.6414  -24.5861  -54.5907 C.3       19 UNK        -0.1800 
    107 C         -5.0694  -22.7939  -55.5577 C.2       19 UNK         0.5000 
    108 O         -6.0067  -22.4319  -56.2708 O.2       19 UNK        -0.5000 
    109 N         -3.8645  -22.2091  -55.5582 N.am      20 UNK        -0.5000 
    110 CA        -3.4816  -21.0465  -56.3642 C.3       20 UNK         0.1400 
    111 CB        -1.9539  -20.8942  -56.3123 C.3       20 UNK        -0.1800 
    112 C         -4.1815  -19.7276  -55.9683 C.2       20 UNK         0.5000 
    113 O         -4.1268  -18.7684  -56.7400 O.2       20 UNK        -0.5000 
    114 N         -4.8181  -19.6950  -54.7892 N.am      21 UNK        -0.5000 
    115 CA        -5.5867  -18.6063  -54.1771 C.3       21 UNK         0.1400 
    116 CB        -6.7009  -18.0740  -55.0994 C.3       21 UNK        -0.1800 
    117 C         -4.6986  -17.4782  -53.6296 C.2       21 UNK         0.5000 
    118 O         -4.8178  -17.1384  -52.4528 O.2       21 UNK        -0.5000 
    119 N         -3.8106  -16.9471  -54.4788 N.am      22 UNK        -0.5000 
    120 CA        -2.7387  -15.9941  -54.1365 C.3       22 UNK         0.1400 
    121 C         -3.2249  -14.5995  -53.6318 C.2       22 UNK         0.5000 
    122 N         -4.4524  -14.1870  -53.9229 N.am      22 UNK        -0.7600 
    123 O         -2.4764  -13.8666  -52.9902 O.2       22 UNK        -0.5000 
    124 C124       -1.6726  -16.6246  -53.1991 C.3       23 UNK        -0.0398 
    125 S125       -0.9492  -18.1530  -53.8885 S.3       23 UNK        -0.2404 
    126 C126        0.8131  -17.7279  -54.0196 C.3       23 UNK        -0.0205 
    127 H127       -3.9157  -16.2818  -49.9553 H         1 UNK         0.0600 
    128 H128       -3.8527  -16.7732  -48.2530 H         1 UNK         0.0600 
    129 H129       -4.2512  -17.9440  -49.5080 H         1 UNK         0.0600 
    130 H130       -0.2547  -16.7608  -49.5962 H         1 UNK         0.3000 
    131 H131       -2.2153  -14.7936  -50.1742 H         1 UNK         0.0600 
    132 H132        0.0305  -14.4698  -50.9463 H         1 UNK         0.0800 
    133 H133       -0.3609  -13.1699  -49.8764 H         1 UNK         0.0800 
    134 H134        2.6030  -14.1936  -50.9006 H         1 UNK         0.0800 
    135 H135        3.5553  -14.9905  -49.6762 H         1 UNK         0.0800 
    136 H136        1.4335  -15.5059  -52.5689 H         1 UNK         0.1150 
    137 H137        1.6786  -19.7786  -52.4595 H         1 UNK         0.1150 
    138 H138        3.1950  -17.4527  -49.1863 H         1 UNK         0.1150 
    139 H139        4.0126  -20.1496  -50.1963 H         1 UNK         0.0800 
    140 H140        2.4847  -20.9227  -50.5432 H         1 UNK         0.0800 
    141 H141        0.3791  -20.1419  -49.3085 H         1 UNK         0.0800 
    142 H142        0.3938  -19.2153  -47.8431 H         1 UNK         0.0800 
    143 H143        0.3715  -22.2515  -48.1596 H         1 UNK         0.0600 
    144 H144        0.7376  -20.7394  -45.6157 H         1 UNK         0.3000 
    145 H145        2.1945  -23.6527  -44.1008 H         1 UNK         0.0600 
    146 H146        4.1224  -22.1082  -43.8352 H         1 UNK         0.0600 
    147 H147        4.0388  -22.7402  -45.4729 H         1 UNK         0.0600 
    148 H148        3.5112  -21.0958  -45.1441 H         1 UNK         0.0600 
    149 H149        1.9093  -20.9170  -43.2422 H         1 UNK         0.3000 
    150 H150       -0.9212  -21.7065  -41.1321 H         1 UNK         0.0600 
    151 H151        1.2044  -22.4193  -40.0199 H         1 UNK         0.0600 
    152 H152        0.7001  -20.8201  -39.4928 H         1 UNK         0.0600 
    153 H153        2.0188  -20.9901  -40.6481 H         1 UNK         0.0600 
    154 H154        0.5134  -19.2670  -41.5460 H         1 UNK         0.3000 
    155 H155       -1.8064  -17.8637  -43.9033 H         1 UNK         0.0600 
    156 H156       -2.6652  -17.4026  -41.6449 H         1 UNK         0.0600 
    157 H157       -1.6269  -16.0863  -42.1735 H         1 UNK         0.0600 
    158 H158       -1.0337  -17.2688  -41.0086 H         1 UNK         0.0600 
    159 H159        0.6418  -16.8518  -42.9341 H         1 UNK         0.3000 
    160 H160        2.7869  -18.3674  -45.3579 H         1 UNK         0.0600 
    161 H161        1.7883  -15.4774  -45.1193 H         1 UNK         0.0600 
    162 H162        1.8057  -16.4524  -46.5838 H         1 UNK         0.0600 
    163 H163        3.3203  -15.9806  -45.8328 H         1 UNK         0.0600 
    164 H164        3.1642  -16.4297  -43.2538 H         1 UNK         0.3000 
    165 H165        4.0241  -18.8318  -40.7216 H         1 UNK         0.0600 
    166 H166        6.0110  -17.3563  -40.6844 H         1 UNK         0.0600 
    167 H167        6.0499  -18.3719  -42.1166 H         1 UNK         0.0600 
    168 H168        5.5840  -16.6808  -42.2562 H         1 UNK         0.0600 
    169 H169        3.8111  -15.9830  -40.6699 H         1 UNK         0.3000 
    170 H170        0.3895  -15.7295  -39.7931 H         1 UNK         0.0600 
    171 H171        1.4816  -16.3299  -37.6253 H         1 UNK         0.0600 
    172 H172        2.8756  -15.3405  -38.0427 H         1 UNK         0.0600 
    173 H173        1.2980  -14.5916  -37.7925 H         1 UNK         0.0600 
    174 H174        2.3714  -13.7378  -39.9044 H         1 UNK         0.3000 
    175 H175        1.9379  -12.1258  -41.7128 H         1 UNK         0.0600 
    176 H176        4.0921  -13.8496  -43.0982 H         1 UNK         0.0600 
    177 H177        4.1563  -12.0975  -42.9271 H         1 UNK         0.0600 
    178 H178        4.2439  -13.1192  -41.5032 H         1 UNK         0.0600 
    179 H179        1.2754  -13.6745  -44.0488 H         1 UNK         0.3000 
    180 H180       -0.0993  -10.9920  -45.6922 H         1 UNK         0.0600 
    181 H181        2.3889  -12.3490  -46.8619 H         1 UNK         0.0600 
    182 H182        2.1340  -10.6123  -46.7427 H         1 UNK         0.0600 
    183 H183        1.1012  -11.5746  -47.7866 H         1 UNK         0.0600 
    184 H184        0.3247  -13.6703  -46.5790 H         1 UNK         0.3000 
    185 H185       -1.2158  -15.5691  -44.9935 H         1 UNK         0.0600 
    186 H186       -3.3945  -14.8654  -44.1525 H         1 UNK         0.0600 
    187 H187       -3.8280  -14.1324  -45.6898 H         1 UNK         0.0600 
    188 H188       -3.6730  -15.8782  -45.5567 H         1 UNK         0.0600 
    189 H189       -0.9261  -15.9923  -47.1520 H         1 UNK         0.3000 
    190 H190       -1.2741  -19.7705  -46.1010 H         1 UNK         0.3000 
    191 H191       -3.6286  -19.8469  -47.6487 H         1 UNK         0.0600 
    192 H192       -3.5829  -18.8784  -44.7750 H         1 UNK         0.0600 
    193 H193       -2.8360  -17.9746  -46.1015 H         1 UNK         0.0600 
    194 H194       -4.5608  -18.3165  -46.1121 H         1 UNK         0.0600 
    195 H195       -2.9781  -21.3374  -44.4454 H         1 UNK         0.3000 
    196 H196       -5.4470  -22.7214  -44.1974 H         1 UNK         0.0600 
    197 H197       -4.2441  -23.9833  -42.4141 H         1 UNK         0.0600 
    198 H198       -3.9214  -22.2598  -42.2908 H         1 UNK         0.0600 
    199 H199       -2.7075  -23.3373  -42.9761 H         1 UNK         0.0600 
    200 H200       -2.6416  -23.4553  -46.1280 H         1 UNK         0.3000 
    201 H201       -3.3372  -26.2820  -46.5919 H         1 UNK         0.0600 
    202 H202       -1.3061  -26.2650  -47.9947 H         1 UNK         0.0600 
    203 H203       -0.9437  -25.6162  -46.4033 H         1 UNK         0.0600 
    204 H204       -1.1236  -24.5304  -47.7784 H         1 UNK         0.0600 
    205 H205       -5.5053  -24.9551  -47.1399 H         1 UNK         0.3000 
    206 H206       -7.1364  -24.5026  -48.5799 H         1 UNK         0.0600 
    207 H207       -6.6988  -26.8801  -49.1733 H         1 UNK         0.0600 
    208 H208       -7.2948  -25.9907  -50.5636 H         1 UNK         0.0600 
    209 H209       -5.5835  -26.3781  -50.4403 H         1 UNK         0.0600 
    210 H210       -5.2688  -22.4521  -48.5181 H         1 UNK         0.3000 
    211 H211       -4.5274  -20.6046  -49.4800 H         1 UNK         0.0600 
    212 H212       -6.9791  -20.3189  -49.9693 H         1 UNK         0.0600 
    213 H213       -5.9332  -19.4725  -51.0924 H         1 UNK         0.0600 
    214 H214       -6.7140  -20.9759  -51.5842 H         1 UNK         0.0600 
    215 H215       -2.7579  -22.2910  -49.8411 H         1 UNK         0.3000 
    216 H216       -1.0516  -23.1504  -50.9294 H         1 UNK         0.0600 
    217 H217       -0.0184  -21.7962  -52.7380 H         1 UNK         0.0600 
    218 H218       -1.5149  -20.8961  -52.9464 H         1 UNK         0.0600 
    219 H219       -0.6042  -20.7510  -51.4502 H         1 UNK         0.0600 
    220 H220       -3.0521  -24.6656  -51.1929 H         1 UNK         0.3000 
    221 H221       -4.6061  -25.7510  -52.5869 H         1 UNK         0.0600 
    222 H222       -1.9456  -27.2177  -52.3807 H         1 UNK         0.0600 
    223 H223       -3.2162  -27.1471  -51.1631 H         1 UNK         0.0600 
    224 H224       -3.5009  -27.9901  -52.6747 H         1 UNK         0.0600 
    225 H225       -4.2054  -25.0775  -56.1332 H         1 UNK         0.3000 
    226 H226       -4.9428  -23.6800  -53.6417 H         1 UNK         0.0600 
    227 H227       -6.7099  -25.4235  -53.8965 H         1 UNK         0.0600 
    228 H228       -7.3468  -23.8275  -54.2492 H         1 UNK         0.0600 
    229 H229       -6.9742  -24.9332  -55.5695 H         1 UNK         0.0600 
    230 H230       -3.1424  -22.5940  -54.9533 H         1 UNK         0.3000 
    231 H231       -3.7633  -21.2528  -57.3986 H         1 UNK         0.0600 
    232 H232       -1.6207  -20.0359  -56.8972 H         1 UNK         0.0600 
    233 H233       -1.4564  -21.7762  -56.7157 H         1 UNK         0.0600 
    234 H234       -1.6016  -20.7525  -55.2913 H         1 UNK         0.0600 
    235 H235       -4.6838  -20.4957  -54.1760 H         1 UNK         0.3000 
    236 H236       -6.0840  -19.0610  -53.3218 H         1 UNK         0.0600 
    237 H237       -7.3355  -18.8848  -55.4574 H         1 UNK         0.0600 
    238 H238       -7.3408  -17.3723  -54.5634 H         1 UNK         0.0600 
    239 H239       -6.3048  -17.5488  -55.9685 H         1 UNK         0.0600 
    240 H240       -3.7926  -17.3227  -55.4216 H         1 UNK         0.3000 
    241 H241       -2.2388  -15.7754  -55.0804 H         1 UNK         0.0600 
    242 H242       -4.7617  -13.2827  -53.6035 H         1 UNK         0.3800 
    243 H243       -5.0780  -14.7759  -54.4489 H         1 UNK         0.3800 
    244 H244       -0.8750  -15.9103  -52.9993 H         1 UNK         0.0800 
    245 H245       -2.1124  -16.8635  -52.2322 H         1 UNK         0.0800 
    246 H246        1.3130  -18.4883  -54.6212 H         1 UNK         0.0800 
    247 H247        0.9252  -16.7879  -54.5621 H         1 UNK         0.0800 
@<TRIPOS>BOND
     1    1    2 1    
     2    1  127 1    
     3    1  128 1    
     4    1  129 1    
     5    2    3 2    
     6    2    4 am   BACKBONE|DICT|INTERRES
     7    4    5 1    
     8    4  130 1    
     9    5    6 1    
    10    5   65 1    
    11    5  131 1    
    12    6    7 1    
    13    6  132 1    
    14    6  133 1    
    15    7    8 1    
    16    8    9 1    
    17    8  134 1    
    18    8  135 1    
    19    9   10 ar   
    20    9   14 ar   
    21   10   11 ar   
    22   10  136 1    
    23   11   12 ar   
    24   11  126 1    
    25   12   13 ar   
    26   12  137 1    
    27   13   14 ar   
    28   13   15 1    
    29   14  138 1    
    30   15   16 1    
    31   15  139 1    
    32   15  140 1    
    33   16   17 1    
    34   17   18 1    
    35   17  141 1    
    36   17  142 1    
    37   18   19 1    
    38   18   67 1    
    39   18  143 1    
    40   19   20 am   BACKBONE|DICT|INTERRES
    41   19  144 1    
    42   20   21 2    
    43   20   22 1    
    44   22   23 1    
    45   22   24 1    
    46   22  145 1    
    47   23  146 1    
    48   23  147 1    
    49   23  148 1    
    50   24   25 am   BACKBONE|DICT|INTERRES
    51   24  149 1    
    52   25   26 2    
    53   25   27 1    
    54   27   28 1    
    55   27   29 1    
    56   27  150 1    
    57   28  151 1    
    58   28  152 1    
    59   28  153 1    
    60   29   30 am   BACKBONE|DICT|INTERRES
    61   29  154 1    
    62   30   31 2    
    63   30   32 1    
    64   32   33 1    
    65   32   34 1    
    66   32  155 1    
    67   33  156 1    
    68   33  157 1    
    69   33  158 1    
    70   34   35 am   BACKBONE|DICT|INTERRES
    71   34  159 1    
    72   35   36 2    
    73   35   37 1    
    74   37   38 1    
    75   37   39 1    
    76   37  160 1    
    77   38  161 1    
    78   38  162 1    
    79   38  163 1    
    80   39   40 am   BACKBONE|DICT|INTERRES
    81   39  164 1    
    82   40   41 2    
    83   40   42 1    
    84   42   43 1    
    85   42   44 1    
    86   42  165 1    
    87   43  166 1    
    88   43  167 1    
    89   43  168 1    
    90   44   45 am   BACKBONE|DICT|INTERRES
    91   44  169 1    
    92   45   46 2    
    93   45   47 1    
    94   47   48 1    
    95   47   49 1    
    96   47  170 1    
    97   48  171 1    
    98   48  172 1    
    99   48  173 1    
   100   49   50 am   BACKBONE|DICT|INTERRES
   101   49  174 1    
   102   50   51 2    
   103   50   52 1    
   104   52   53 1    
   105   52   54 1    
   106   52  175 1    
   107   53  176 1    
   108   53  177 1    
   109   53  178 1    
   110   54   55 am   BACKBONE|DICT|INTERRES
   111   54  179 1    
   112   55   56 2    
   113   55   57 1    
   114   57   58 1    
   115   57   59 1    
   116   57  180 1    
   117   58  181 1    
   118   58  182 1    
   119   58  183 1    
   120   59   60 am   BACKBONE|DICT|INTERRES
   121   59  184 1    
   122   60   61 2    
   123   60   62 1    
   124   62   63 1    
   125   62   64 1    
   126   62  185 1    
   127   63  186 1    
   128   63  187 1    
   129   63  188 1    
   130   64   65 am   BACKBONE|DICT|INTERRES
   131   64  189 1    
   132   65   66 2    
   133   67   68 2    
   134   67   69 am   BACKBONE|DICT|INTERRES
   135   69   70 1    
   136   69  190 1    
   137   70   71 1    
   138   70   72 1    
   139   70  191 1    
   140   71  192 1    
   141   71  193 1    
   142   71  194 1    
   143   72   73 2    
   144   72   74 am   BACKBONE|DICT|INTERRES
   145   74   75 1    
   146   74  195 1    
   147   75   76 1    
   148   75   77 1    
   149   75  196 1    
   150   76  197 1    
   151   76  198 1    
   152   76  199 1    
   153   77   78 2    
   154   77   79 am   BACKBONE|DICT|INTERRES
   155   79   80 1    
   156   79  200 1    
   157   80   81 1    
   158   80   82 1    
   159   80  201 1    
   160   81  202 1    
   161   81  203 1    
   162   81  204 1    
   163   82   83 2    
   164   82   84 am   BACKBONE|DICT|INTERRES
   165   84   85 1    
   166   84  205 1    
   167   85   86 1    
   168   85   87 1    
   169   85  206 1    
   170   86  207 1    
   171   86  208 1    
   172   86  209 1    
   173   87   88 2    
   174   87   89 am   BACKBONE|DICT|INTERRES
   175   89   90 1    
   176   89  210 1    
   177   90   91 1    
   178   90   92 1    
   179   90  211 1    
   180   91  212 1    
   181   91  213 1    
   182   91  214 1    
   183   92   93 2    
   184   92   94 am   BACKBONE|DICT|INTERRES
   185   94   95 1    
   186   94  215 1    
   187   95   96 1    
   188   95   97 1    
   189   95  216 1    
   190   96  217 1    
   191   96  218 1    
   192   96  219 1    
   193   97   98 2    
   194   97   99 am   BACKBONE|DICT|INTERRES
   195   99  100 1    
   196   99  220 1    
   197  100  101 1    
   198  100  102 1    
   199  100  221 1    
   200  101  222 1    
   201  101  223 1    
   202  101  224 1    
   203  102  103 2    
   204  102  104 am   BACKBONE|DICT|INTERRES
   205  104  105 1    
   206  104  225 1    
   207  105  106 1    
   208  105  107 1    
   209  105  226 1    
   210  106  227 1    
   211  106  228 1    
   212  106  229 1    
   213  107  108 2    
   214  107  109 am   BACKBONE|DICT|INTERRES
   215  109  110 1    
   216  109  230 1    
   217  110  111 1    
   218  110  112 1    
   219  110  231 1    
   220  111  232 1    
   221  111  233 1    
   222  111  234 1    
   223  112  113 2    
   224  112  114 am   BACKBONE|DICT|INTERRES
   225  114  115 1    
   226  114  235 1    
   227  115  116 1    
   228  115  117 1    
   229  115  236 1    
   230  116  237 1    
   231  116  238 1    
   232  116  239 1    
   233  117  118 2    
   234  117  119 am   BACKBONE|DICT|INTERRES
   235  119  120 1    
   236  119  240 1    
   237  120  121 1    
   238  120  124 1    
   239  120  241 1    
   240  121  122 am   BACKBONE|DICT|INTERRES
   241  121  123 2    
   242  122  242 1    
   243  122  243 1    
   244  124  125 1    
   245  124  244 1    
   246  124  245 1    
   247  125  126 1    
   248  126  246 1    
   249  126  247 1    
@<TRIPOS>SUBSTRUCTURE
     1 UNK         1 GROUP             0       ****    0 ROOT    
