@<TRIPOS>MOLECULE
3R540
247   249    1
SMALL
USER_CHARGES


@<TRIPOS>ATOM
      1 CA          2.1481  -12.3701  -48.9971 C.3       0 UNK        -0.1800 
      2 C           2.4792  -13.7974  -48.5641 C.2       0 UNK         0.5000 
      3 O           3.4585  -14.3563  -49.0535 O.2       0 UNK        -0.5000 
      4 N           1.7101  -14.4413  -47.6743 N.am      1 UNK        -0.5000 
      5 CA          0.5483  -13.9432  -46.9276 C.3       1 UNK         0.1400 
      6 C6         -0.6446  -13.5170  -47.8358 C.3       23 UNK        -0.0398 
      7 S7         -2.3097  -13.7127  -47.0980 S.3       23 UNK        -0.2404 
      8 C8         -2.4893  -15.4995  -46.7558 C.3       23 UNK        -0.0205 
      9 C9         -2.4145  -16.3850  -47.9896 C.ar      23 UNK        -0.0193 
     10 C10        -3.5812  -16.8353  -48.6124 C.ar      23 UNK        -0.1150 
     11 C11        -3.5242  -17.7127  -49.7009 C.ar      23 UNK        -0.0193 
     12 C12        -2.2675  -18.1181  -50.1747 C.ar      23 UNK        -0.1150 
     13 C13        -1.0924  -17.6562  -49.5761 C.ar      23 UNK        -0.0193 
     14 C14        -1.1757  -16.8052  -48.4744 C.ar      23 UNK        -0.1150 
     15 C15         0.2719  -18.0409  -50.1329 C.3       23 UNK        -0.0205 
     16 S16         0.7506  -19.7560  -49.7580 S.3       23 UNK        -0.2404 
     17 C17         0.7642  -19.7883  -47.9310 C.3       23 UNK        -0.0398 
     18 CA          0.0654  -21.0432  -47.3600 C.3       11 UNK         0.1400 
     19 N           0.3705  -21.2383  -45.9420 N.am      11 UNK        -0.5000 
     20 C           0.1237  -22.3662  -45.2623 C.2       10 UNK         0.5000 
     21 O          -0.4078  -23.3601  -45.7574 O.2       10 UNK        -0.5000 
     22 CA          0.5029  -22.3743  -43.7709 C.3       10 UNK         0.1400 
     23 CB          2.0235  -22.4940  -43.5893 C.3       10 UNK        -0.1800 
     24 N           0.0147  -21.1950  -43.0575 N.am      10 UNK        -0.5000 
     25 C          -1.2813  -20.8874  -42.9027 C.2       9 UNK         0.5000 
     26 O          -2.2079  -21.5684  -43.3407 O.2       9 UNK        -0.5000 
     27 CA         -1.5946  -19.5710  -42.1733 C.3       9 UNK         0.1400 
     28 CB         -1.4287  -19.7347  -40.6551 C.3       9 UNK        -0.1800 
     29 N          -0.7661  -18.4608  -42.6385 N.am      9 UNK        -0.5000 
     30 C          -0.7495  -17.9992  -43.8968 C.2       8 UNK         0.5000 
     31 O          -1.4382  -18.4486  -44.8112 O.2       8 UNK        -0.5000 
     32 CA          0.2482  -16.8740  -44.1972 C.3       8 UNK         0.1400 
     33 CB         -0.2136  -15.5528  -43.5573 C.3       8 UNK        -0.1800 
     34 N           1.5978  -17.1928  -43.7443 N.am      8 UNK        -0.5000 
     35 C           2.3259  -18.2473  -44.1363 C.2       7 UNK         0.5000 
     36 O           1.9507  -19.0751  -44.9657 O.2       7 UNK        -0.5000 
     37 CA          3.6908  -18.4239  -43.4531 C.3       7 UNK         0.1400 
     38 CB          4.7625  -17.5710  -44.1486 C.3       7 UNK        -0.1800 
     39 N           3.6313  -18.0765  -42.0339 N.am      7 UNK        -0.5000 
     40 C           3.0035  -18.8070  -41.1024 C.2       6 UNK         0.5000 
     41 O           2.4442  -19.8805  -41.3325 O.2       6 UNK        -0.5000 
     42 CA          2.9630  -18.2092  -39.6838 C.3       6 UNK         0.1400 
     43 CB          4.3033  -18.4194  -38.9630 C.3       6 UNK        -0.1800 
     44 N           2.6257  -16.7831  -39.6831 N.am      6 UNK        -0.5000 
     45 C           1.4295  -16.2986  -40.0432 C.2       5 UNK         0.5000 
     46 O           0.4902  -17.0070  -40.4065 O.2       5 UNK        -0.5000 
     47 CA          1.2504  -14.7677  -40.0170 C.3       5 UNK         0.1400 
     48 CB          0.8884  -14.2981  -38.6002 C.3       5 UNK        -0.1800 
     49 N           2.3836  -13.9749  -40.5072 N.am      5 UNK        -0.5000 
     50 C           3.0564  -14.1423  -41.6536 C.2       4 UNK         0.5000 
     51 O           2.9039  -15.1076  -42.4004 O.2       4 UNK        -0.5000 
     52 CA          4.0384  -13.0159  -42.0384 C.3       4 UNK         0.1400 
     53 CB          5.0009  -13.4380  -43.1630 C.3       4 UNK        -0.1800 
     54 N           3.3289  -11.8022  -42.4551 N.am      4 UNK        -0.5000 
     55 C           2.7065  -10.9484  -41.6297 C.2       3 UNK         0.5000 
     56 O           2.6833  -11.0987  -40.4068 O.2       3 UNK        -0.5000 
     57 CA          1.9921   -9.7249  -42.2446 C.3       3 UNK         0.1400 
     58 CB          2.4742   -8.4266  -41.5755 C.3       3 UNK        -0.1800 
     59 N           2.1797   -9.5824  -43.6934 N.am      3 UNK        -0.5000 
     60 C           1.4376  -10.0923  -44.6871 C.2       2 UNK         0.5000 
     61 O           1.6673   -9.8001  -45.8615 O.2       2 UNK        -0.5000 
     62 CA          0.2602  -11.0471  -44.3693 C.3       2 UNK         0.1400 
     63 CB         -1.0452  -10.2554  -44.1918 C.3       2 UNK        -0.1800 
     64 N           0.0498  -12.0546  -45.4128 N.am      2 UNK        -0.5000 
     65 C           0.9641  -12.9428  -45.8236 C.2       1 UNK         0.5000 
     66 O           2.0914  -13.0247  -45.3302 O.2       1 UNK        -0.5000 
     67 C          -1.4521  -21.0587  -47.6380 C.2       11 UNK         0.5000 
     68 O          -1.8708  -21.6768  -48.6178 O.2       11 UNK        -0.5000 
     69 N          -2.2495  -20.4359  -46.7575 N.am      12 UNK        -0.5000 
     70 CA         -3.7100  -20.4442  -46.8316 C.3       12 UNK         0.1400 
     71 CB         -4.2909  -19.4392  -45.8265 C.3       12 UNK        -0.1800 
     72 C          -4.3051  -21.8464  -46.6093 C.2       12 UNK         0.5000 
     73 O          -5.2141  -22.2344  -47.3427 O.2       12 UNK        -0.5000 
     74 N          -3.7655  -22.5958  -45.6351 N.am      13 UNK        -0.5000 
     75 CA         -4.1569  -23.9773  -45.3402 C.3       13 UNK         0.1400 
     76 CB         -3.5189  -24.4293  -44.0181 C.3       13 UNK        -0.1800 
     77 C          -3.8006  -24.9541  -46.4756 C.2       13 UNK         0.5000 
     78 O          -4.6013  -25.8334  -46.7950 O.2       13 UNK        -0.5000 
     79 N          -2.6223  -24.7636  -47.0843 N.am      14 UNK        -0.5000 
     80 CA         -2.1605  -25.5108  -48.2558 C.3       14 UNK         0.1400 
     81 CB         -0.6391  -25.3353  -48.3865 C.3       14 UNK        -0.1800 
     82 C          -2.8511  -25.0840  -49.5661 C.2       14 UNK         0.5000 
     83 O          -2.7129  -25.7856  -50.5682 O.2       14 UNK        -0.5000 
     84 N          -3.5288  -23.9274  -49.5536 N.am      15 UNK        -0.5000 
     85 CA         -4.1441  -23.2317  -50.6869 C.3       15 UNK         0.1400 
     86 CB         -5.3887  -23.9933  -51.1845 C.3       15 UNK        -0.1800 
     87 C          -3.1262  -22.9321  -51.8072 C.2       15 UNK         0.5000 
     88 O          -3.4045  -23.1859  -52.9787 O.2       15 UNK        -0.5000 
     89 N          -1.9356  -22.4567  -51.4094 N.am      16 UNK        -0.5000 
     90 CA         -0.7540  -22.2277  -52.2513 C.3       16 UNK         0.1400 
     91 CB         -0.9530  -20.9873  -53.1444 C.3       16 UNK        -0.1800 
     92 C          -0.3314  -23.4842  -53.0462 C.2       16 UNK         0.5000 
     93 O          -0.0506  -23.3988  -54.2427 O.2       16 UNK        -0.5000 
     94 N          -0.3178  -24.6298  -52.3479 N.am      17 UNK        -0.5000 
     95 CA         -0.0787  -25.9836  -52.8576 C.3       17 UNK         0.1400 
     96 CB          1.3425  -26.1264  -53.4432 C.3       17 UNK        -0.1800 
     97 C          -1.1951  -26.4422  -53.8189 C.2       17 UNK         0.5000 
     98 O          -0.9198  -26.8543  -54.9475 O.2       17 UNK        -0.5000 
     99 N          -2.4390  -26.3686  -53.3241 N.am      18 UNK        -0.5000 
    100 CA        -3.6877  -26.7946  -53.9634 C.3       18 UNK         0.1400 
    101 CB        -3.7265  -28.3318  -54.0941 C.3       18 UNK        -0.1800 
    102 C         -3.9943  -26.0667  -55.2897 C.2       18 UNK         0.5000 
    103 O         -4.4672  -26.6908  -56.2425 O.2       18 UNK        -0.5000 
    104 N         -3.7346  -24.7555  -55.3279 N.am      19 UNK        -0.5000 
    105 CA        -4.0927  -23.8770  -56.4362 C.3       19 UNK         0.1400 
    106 CB        -3.0813  -22.7246  -56.5052 C.3       19 UNK        -0.1800 
    107 C         -5.5215  -23.3448  -56.2353 C.2       19 UNK         0.5000 
    108 O         -5.9209  -23.0656  -55.1010 O.2       19 UNK        -0.5000 
    109 N         -6.2638  -23.1969  -57.3406 N.am      20 UNK        -0.5000 
    110 CA        -7.6386  -22.6928  -57.3718 C.3       20 UNK         0.1400 
    111 CB        -8.1786  -22.7844  -58.8081 C.3       20 UNK        -0.1800 
    112 C         -7.7168  -21.2519  -56.8364 C.2       20 UNK         0.5000 
    113 O         -7.1798  -20.3405  -57.4699 O.2       20 UNK        -0.5000 
    114 N         -8.3172  -21.0933  -55.6475 N.am      21 UNK        -0.5000 
    115 CA        -8.4115  -19.8527  -54.8649 C.3       21 UNK         0.1400 
    116 CB        -9.3845  -18.8651  -55.5424 C.3       21 UNK        -0.1800 
    117 C         -7.0343  -19.2201  -54.5542 C.2       21 UNK         0.5000 
    118 O         -6.9178  -17.9944  -54.5051 O.2       21 UNK        -0.5000 
    119 N         -6.0150  -20.0747  -54.3844 N.am      22 UNK        -0.5000 
    120 CA        -4.5904  -19.7244  -54.2485 C.3       22 UNK         0.1400 
    121 C         -3.9299  -19.1795  -55.5542 C.2       22 UNK         0.5000 
    122 N         -4.5639  -19.2575  -56.7189 N.am      22 UNK        -0.7600 
    123 O         -2.7992  -18.7025  -55.5235 O.2       22 UNK        -0.5000 
    124 C124       -4.2701  -18.8349  -53.0127 C.3       23 UNK        -0.0398 
    125 S125       -4.7633  -19.6151  -51.4379 S.3       23 UNK        -0.2404 
    126 C126       -4.8481  -18.1765  -50.3163 C.3       23 UNK        -0.0205 
    127 H127        3.0070  -11.9197  -49.4953 H         1 UNK         0.0600 
    128 H128        1.8952  -11.7302  -48.1534 H         1 UNK         0.0600 
    129 H129        1.3192  -12.3699  -49.7045 H         1 UNK         0.0600 
    130 H130        2.0154  -15.3618  -47.3949 H         1 UNK         0.3000 
    131 H131        0.2256  -14.8148  -46.3688 H         1 UNK         0.0600 
    132 H132       -0.5398  -12.4783  -48.1512 H         1 UNK         0.0800 
    133 H133       -0.6373  -14.0936  -48.7612 H         1 UNK         0.0800 
    134 H134       -3.4473  -15.6528  -46.2567 H         1 UNK         0.0800 
    135 H135       -1.7427  -15.8272  -46.0402 H         1 UNK         0.0800 
    136 H136       -4.5422  -16.5165  -48.2333 H         1 UNK         0.1150 
    137 H137       -2.1844  -18.7963  -51.0066 H         1 UNK         0.1150 
    138 H138       -0.2693  -16.4701  -47.9950 H         1 UNK         0.1150 
    139 H139        0.2613  -17.9127  -51.2162 H         1 UNK         0.0800 
    140 H140        1.0451  -17.3680  -49.7584 H         1 UNK         0.0800 
    141 H141        0.3258  -18.8831  -47.5120 H         1 UNK         0.0800 
    142 H142        1.8106  -19.7789  -47.6232 H         1 UNK         0.0800 
    143 H143        0.4850  -21.9074  -47.8800 H         1 UNK         0.0600 
    144 H144        0.8248  -20.4614  -45.4664 H         1 UNK         0.3000 
    145 H145        0.0383  -23.2522  -43.3172 H         1 UNK         0.0600 
    146 H146        2.2877  -22.5855  -42.5355 H         1 UNK         0.0600 
    147 H147        2.4097  -23.3771  -44.0998 H         1 UNK         0.0600 
    148 H148        2.5487  -21.6264  -43.9895 H         1 UNK         0.0600 
    149 H149        0.7141  -20.5785  -42.6624 H         1 UNK         0.3000 
    150 H150       -2.6366  -19.3172  -42.3786 H         1 UNK         0.0600 
    151 H151       -2.0350  -20.5607  -40.2812 H         1 UNK         0.0600 
    152 H152       -1.7430  -18.8347  -40.1264 H         1 UNK         0.0600 
    153 H153       -0.3916  -19.9355  -40.3827 H         1 UNK         0.0600 
    154 H154       -0.1769  -18.0127  -41.9421 H         1 UNK         0.3000 
    155 H155        0.2995  -16.7565  -45.2792 H         1 UNK         0.0600 
    156 H156       -0.3954  -15.6669  -42.4910 H         1 UNK         0.0600 
    157 H157       -1.1451  -15.1947  -43.9930 H         1 UNK         0.0600 
    158 H158        0.5297  -14.7672  -43.6786 H         1 UNK         0.0600 
    159 H159        2.0281  -16.5295  -43.1026 H         1 UNK         0.3000 
    160 H160        3.9785  -19.4737  -43.5406 H         1 UNK         0.0600 
    161 H161        4.5291  -16.5068  -44.0993 H         1 UNK         0.0600 
    162 H162        4.8480  -17.8383  -45.2026 H         1 UNK         0.0600 
    163 H163        5.7420  -17.7210  -43.6946 H         1 UNK         0.0600 
    164 H164        3.9900  -17.1681  -41.7761 H         1 UNK         0.3000 
    165 H165        2.1905  -18.7404  -39.1235 H         1 UNK         0.0600 
    166 H166        4.2526  -18.0758  -37.9297 H         1 UNK         0.0600 
    167 H167        4.5719  -19.4764  -38.9402 H         1 UNK         0.0600 
    168 H168        5.1163  -17.8843  -39.4553 H         1 UNK         0.0600 
    169 H169        3.3482  -16.1349  -39.4062 H         1 UNK         0.3000 
    170 H170        0.4058  -14.5312  -40.6649 H         1 UNK         0.0600 
    171 H171        0.0291  -14.8470  -38.2122 H         1 UNK         0.0600 
    172 H172        1.7151  -14.4462  -37.9044 H         1 UNK         0.0600 
    173 H173        0.6271  -13.2396  -38.5901 H         1 UNK         0.0600 
    174 H174        2.5574  -13.1075  -40.0110 H         1 UNK         0.3000 
    175 H175        4.6412  -12.7880  -41.1568 H         1 UNK         0.0600 
    176 H176        4.4688  -13.6617  -44.0885 H         1 UNK         0.0600 
    177 H177        5.7269  -12.6533  -43.3759 H         1 UNK         0.0600 
    178 H178        5.5610  -14.3311  -42.8830 H         1 UNK         0.0600 
    179 H179        3.2751  -11.6418  -43.4515 H         1 UNK         0.3000 
    180 H180        0.9309   -9.8275  -42.0162 H         1 UNK         0.0600 
    181 H181        3.5419   -8.2664  -41.7302 H         1 UNK         0.0600 
    182 H182        2.2979   -8.4459  -40.4991 H         1 UNK         0.0600 
    183 H183        1.9443   -7.5593  -41.9701 H         1 UNK         0.0600 
    184 H184        2.9514   -8.9871  -43.9564 H         1 UNK         0.3000 
    185 H185        0.4692  -11.5955  -43.4503 H         1 UNK         0.0600 
    186 H186       -0.9494   -9.4950  -43.4163 H         1 UNK         0.0600 
    187 H187       -1.3312   -9.7451  -45.1125 H         1 UNK         0.0600 
    188 H188       -1.8677  -10.9100  -43.9023 H         1 UNK         0.0600 
    189 H189       -0.8583  -12.0553  -45.8562 H         1 UNK         0.3000 
    190 H190       -1.8389  -19.9094  -45.9907 H         1 UNK         0.3000 
    191 H191       -3.9929  -20.1187  -47.8351 H         1 UNK         0.0600 
    192 H192       -3.9382  -18.4289  -46.0336 H         1 UNK         0.0600 
    193 H193       -5.3801  -19.4200  -45.8771 H         1 UNK         0.0600 
    194 H194       -4.0110  -19.6878  -44.8021 H         1 UNK         0.0600 
    195 H195       -3.0464  -22.1936  -45.0408 H         1 UNK         0.3000 
    196 H196       -5.2415  -23.9979  -45.2153 H         1 UNK         0.0600 
    197 H197       -3.7950  -25.4575  -43.7808 H         1 UNK         0.0600 
    198 H198       -3.8502  -23.8051  -43.1882 H         1 UNK         0.0600 
    199 H199       -2.4301  -24.3816  -44.0591 H         1 UNK         0.0600 
    200 H200       -1.9866  -24.0624  -46.7138 H         1 UNK         0.3000 
    201 H201       -2.3722  -26.5707  -48.1015 H         1 UNK         0.0600 
    202 H202       -0.1252  -25.6736  -47.4865 H         1 UNK         0.0600 
    203 H203       -0.3689  -24.2915  -48.5524 H         1 UNK         0.0600 
    204 H204       -0.2450  -25.9160  -49.2214 H         1 UNK         0.0600 
    205 H205       -3.5337  -23.4084  -48.6856 H         1 UNK         0.3000 
    206 H206       -4.4769  -22.2683  -50.3015 H         1 UNK         0.0600 
    207 H207       -6.1097  -24.1330  -50.3792 H         1 UNK         0.0600 
    208 H208       -5.8918  -23.4418  -51.9801 H         1 UNK         0.0600 
    209 H209       -5.1320  -24.9759  -51.5784 H         1 UNK         0.0600 
    210 H210       -1.8238  -22.2508  -50.4183 H         1 UNK         0.3000 
    211 H211        0.0703  -22.0144  -51.5707 H         1 UNK         0.0600 
    212 H212       -1.7526  -21.1339  -53.8687 H         1 UNK         0.0600 
    213 H213       -0.0451  -20.7567  -53.7024 H         1 UNK         0.0600 
    214 H214       -1.1934  -20.1088  -52.5493 H         1 UNK         0.0600 
    215 H215       -0.6196  -24.5837  -51.3857 H         1 UNK         0.3000 
    216 H216       -0.1358  -26.6452  -51.9918 H         1 UNK         0.0600 
    217 H217        1.5534  -27.1660  -53.6960 H         1 UNK         0.0600 
    218 H218        2.0983  -25.8072  -52.7257 H         1 UNK         0.0600 
    219 H219        1.4735  -25.5399  -54.3526 H         1 UNK         0.0600 
    220 H220       -2.5448  -26.0238  -52.3713 H         1 UNK         0.3000 
    221 H221       -4.4865  -26.5092  -53.2787 H         1 UNK         0.0600 
    222 H222       -2.9812  -28.6968  -54.8015 H         1 UNK         0.0600 
    223 H223       -3.5419  -28.8132  -53.1337 H         1 UNK         0.0600 
    224 H224       -4.7026  -28.6713  -54.4424 H         1 UNK         0.0600 
    225 H225       -3.4494  -24.2854  -54.4702 H         1 UNK         0.3000 
    226 H226       -4.0446  -24.4293  -57.3771 H         1 UNK         0.0600 
    227 H227       -2.0734  -23.0971  -56.6898 H         1 UNK         0.0600 
    228 H228       -3.3277  -22.0302  -57.3093 H         1 UNK         0.0600 
    229 H229       -3.0572  -22.1592  -55.5752 H         1 UNK         0.0600 
    230 H230       -5.8532  -23.4177  -58.2361 H         1 UNK         0.3000 
    231 H231       -8.2494  -23.3409  -56.7398 H         1 UNK         0.0600 
    232 H232       -7.5806  -22.1940  -59.5037 H         1 UNK         0.0600 
    233 H233       -9.2039  -22.4162  -58.8627 H         1 UNK         0.0600 
    234 H234       -8.1850  -23.8154  -59.1625 H         1 UNK         0.0600 
    235 H235       -8.6785  -21.9181  -55.1882 H         1 UNK         0.3000 
    236 H236       -8.8395  -20.1290  -53.9003 H         1 UNK         0.0600 
    237 H237      -10.3500  -19.3327  -55.7355 H         1 UNK         0.0600 
    238 H238       -9.5678  -17.9971  -54.9079 H         1 UNK         0.0600 
    239 H239       -8.9930  -18.4995  -56.4922 H         1 UNK         0.0600 
    240 H240       -6.2008  -21.0682  -54.4713 H         1 UNK         0.3000 
    241 H241       -4.0957  -20.6798  -54.0787 H         1 UNK         0.0600 
    242 H242       -4.1081  -18.9042  -57.5446 H         1 UNK         0.3800 
    243 H243       -5.5029  -19.6360  -56.7967 H         1 UNK         0.3800 
    244 H244       -3.2006  -18.6335  -52.9625 H         1 UNK         0.0800 
    245 H245       -4.7498  -17.8605  -53.1045 H         1 UNK         0.0800 
    246 H246       -5.3143  -17.3378  -50.8347 H         1 UNK         0.0800 
    247 H247       -5.5265  -18.4456  -49.5053 H         1 UNK         0.0800 
@<TRIPOS>BOND
     1    1    2 1    
     2    1  127 1    
     3    1  128 1    
     4    1  129 1    
     5    2    3 2    
     6    2    4 am   BACKBONE|DICT|INTERRES
     7    4    5 1    
     8    4  130 1    
     9    5    6 1    
    10    5   65 1    
    11    5  131 1    
    12    6    7 1    
    13    6  132 1    
    14    6  133 1    
    15    7    8 1    
    16    8    9 1    
    17    8  134 1    
    18    8  135 1    
    19    9   10 ar   
    20    9   14 ar   
    21   10   11 ar   
    22   10  136 1    
    23   11   12 ar   
    24   11  126 1    
    25   12   13 ar   
    26   12  137 1    
    27   13   14 ar   
    28   13   15 1    
    29   14  138 1    
    30   15   16 1    
    31   15  139 1    
    32   15  140 1    
    33   16   17 1    
    34   17   18 1    
    35   17  141 1    
    36   17  142 1    
    37   18   19 1    
    38   18   67 1    
    39   18  143 1    
    40   19   20 am   BACKBONE|DICT|INTERRES
    41   19  144 1    
    42   20   21 2    
    43   20   22 1    
    44   22   23 1    
    45   22   24 1    
    46   22  145 1    
    47   23  146 1    
    48   23  147 1    
    49   23  148 1    
    50   24   25 am   BACKBONE|DICT|INTERRES
    51   24  149 1    
    52   25   26 2    
    53   25   27 1    
    54   27   28 1    
    55   27   29 1    
    56   27  150 1    
    57   28  151 1    
    58   28  152 1    
    59   28  153 1    
    60   29   30 am   BACKBONE|DICT|INTERRES
    61   29  154 1    
    62   30   31 2    
    63   30   32 1    
    64   32   33 1    
    65   32   34 1    
    66   32  155 1    
    67   33  156 1    
    68   33  157 1    
    69   33  158 1    
    70   34   35 am   BACKBONE|DICT|INTERRES
    71   34  159 1    
    72   35   36 2    
    73   35   37 1    
    74   37   38 1    
    75   37   39 1    
    76   37  160 1    
    77   38  161 1    
    78   38  162 1    
    79   38  163 1    
    80   39   40 am   BACKBONE|DICT|INTERRES
    81   39  164 1    
    82   40   41 2    
    83   40   42 1    
    84   42   43 1    
    85   42   44 1    
    86   42  165 1    
    87   43  166 1    
    88   43  167 1    
    89   43  168 1    
    90   44   45 am   BACKBONE|DICT|INTERRES
    91   44  169 1    
    92   45   46 2    
    93   45   47 1    
    94   47   48 1    
    95   47   49 1    
    96   47  170 1    
    97   48  171 1    
    98   48  172 1    
    99   48  173 1    
   100   49   50 am   BACKBONE|DICT|INTERRES
   101   49  174 1    
   102   50   51 2    
   103   50   52 1    
   104   52   53 1    
   105   52   54 1    
   106   52  175 1    
   107   53  176 1    
   108   53  177 1    
   109   53  178 1    
   110   54   55 am   BACKBONE|DICT|INTERRES
   111   54  179 1    
   112   55   56 2    
   113   55   57 1    
   114   57   58 1    
   115   57   59 1    
   116   57  180 1    
   117   58  181 1    
   118   58  182 1    
   119   58  183 1    
   120   59   60 am   BACKBONE|DICT|INTERRES
   121   59  184 1    
   122   60   61 2    
   123   60   62 1    
   124   62   63 1    
   125   62   64 1    
   126   62  185 1    
   127   63  186 1    
   128   63  187 1    
   129   63  188 1    
   130   64   65 am   BACKBONE|DICT|INTERRES
   131   64  189 1    
   132   65   66 2    
   133   67   68 2    
   134   67   69 am   BACKBONE|DICT|INTERRES
   135   69   70 1    
   136   69  190 1    
   137   70   71 1    
   138   70   72 1    
   139   70  191 1    
   140   71  192 1    
   141   71  193 1    
   142   71  194 1    
   143   72   73 2    
   144   72   74 am   BACKBONE|DICT|INTERRES
   145   74   75 1    
   146   74  195 1    
   147   75   76 1    
   148   75   77 1    
   149   75  196 1    
   150   76  197 1    
   151   76  198 1    
   152   76  199 1    
   153   77   78 2    
   154   77   79 am   BACKBONE|DICT|INTERRES
   155   79   80 1    
   156   79  200 1    
   157   80   81 1    
   158   80   82 1    
   159   80  201 1    
   160   81  202 1    
   161   81  203 1    
   162   81  204 1    
   163   82   83 2    
   164   82   84 am   BACKBONE|DICT|INTERRES
   165   84   85 1    
   166   84  205 1    
   167   85   86 1    
   168   85   87 1    
   169   85  206 1    
   170   86  207 1    
   171   86  208 1    
   172   86  209 1    
   173   87   88 2    
   174   87   89 am   BACKBONE|DICT|INTERRES
   175   89   90 1    
   176   89  210 1    
   177   90   91 1    
   178   90   92 1    
   179   90  211 1    
   180   91  212 1    
   181   91  213 1    
   182   91  214 1    
   183   92   93 2    
   184   92   94 am   BACKBONE|DICT|INTERRES
   185   94   95 1    
   186   94  215 1    
   187   95   96 1    
   188   95   97 1    
   189   95  216 1    
   190   96  217 1    
   191   96  218 1    
   192   96  219 1    
   193   97   98 2    
   194   97   99 am   BACKBONE|DICT|INTERRES
   195   99  100 1    
   196   99  220 1    
   197  100  101 1    
   198  100  102 1    
   199  100  221 1    
   200  101  222 1    
   201  101  223 1    
   202  101  224 1    
   203  102  103 2    
   204  102  104 am   BACKBONE|DICT|INTERRES
   205  104  105 1    
   206  104  225 1    
   207  105  106 1    
   208  105  107 1    
   209  105  226 1    
   210  106  227 1    
   211  106  228 1    
   212  106  229 1    
   213  107  108 2    
   214  107  109 am   BACKBONE|DICT|INTERRES
   215  109  110 1    
   216  109  230 1    
   217  110  111 1    
   218  110  112 1    
   219  110  231 1    
   220  111  232 1    
   221  111  233 1    
   222  111  234 1    
   223  112  113 2    
   224  112  114 am   BACKBONE|DICT|INTERRES
   225  114  115 1    
   226  114  235 1    
   227  115  116 1    
   228  115  117 1    
   229  115  236 1    
   230  116  237 1    
   231  116  238 1    
   232  116  239 1    
   233  117  118 2    
   234  117  119 am   BACKBONE|DICT|INTERRES
   235  119  120 1    
   236  119  240 1    
   237  120  121 1    
   238  120  124 1    
   239  120  241 1    
   240  121  122 am   BACKBONE|DICT|INTERRES
   241  121  123 2    
   242  122  242 1    
   243  122  243 1    
   244  124  125 1    
   245  124  244 1    
   246  124  245 1    
   247  125  126 1    
   248  126  246 1    
   249  126  247 1    
@<TRIPOS>SUBSTRUCTURE
     1 UNK         1 GROUP             0       ****    0 ROOT    
