@<TRIPOS>MOLECULE
3R540
247   249    1
SMALL
USER_CHARGES


@<TRIPOS>ATOM
      1 CA          4.5281  -15.5090  -42.1734 C.3       0 UNK        -0.1800 
      2 C           4.7301  -14.7456  -43.4744 C.2       0 UNK         0.5000 
      3 O           5.7315  -14.0440  -43.6174 O.2       0 UNK        -0.5000 
      4 N           3.7826  -14.8794  -44.4132 N.am      1 UNK        -0.5000 
      5 CA          3.7754  -14.2449  -45.7431 C.3       1 UNK         0.1400 
      6 C6          4.9514  -14.6907  -46.6618 C.3       23 UNK        -0.0398 
      7 S7          4.9290  -16.4852  -46.9971 S.3       23 UNK        -0.2404 
      8 C8          4.7141  -16.5426  -48.8088 C.3       23 UNK        -0.0205 
      9 C9          3.9559  -17.7921  -49.2317 C.ar      23 UNK        -0.0193 
     10 C10         2.6515  -17.6898  -49.7255 C.ar      23 UNK        -0.1150 
     11 C11         1.9135  -18.8338  -50.0439 C.ar      23 UNK        -0.0193 
     12 C12         2.5024  -20.0920  -49.8606 C.ar      23 UNK        -0.1150 
     13 C13         3.8175  -20.2100  -49.3987 C.ar      23 UNK        -0.0193 
     14 C14         4.5429  -19.0535  -49.0984 C.ar      23 UNK        -0.1150 
     15 C15         4.4451  -21.5901  -49.2287 C.3       23 UNK        -0.0205 
     16 S16         5.1182  -21.9005  -47.5575 S.3       23 UNK        -0.2404 
     17 C17         3.6817  -21.5909  -46.4751 C.3       23 UNK        -0.0398 
     18 CA          2.9098  -22.8702  -46.0641 C.3       11 UNK         0.1400 
     19 N           2.0659  -22.6157  -44.8946 N.am      11 UNK        -0.5000 
     20 C           1.6090  -23.5487  -44.0493 C.2       10 UNK         0.5000 
     21 O           1.9260  -24.7369  -44.1076 O.2       10 UNK        -0.5000 
     22 CA          0.6295  -23.0753  -42.9552 C.3       10 UNK         0.1400 
     23 CB          1.3935  -22.7058  -41.6747 C.3       10 UNK        -0.1800 
     24 N          -0.1877  -21.9313  -43.3701 N.am      10 UNK        -0.5000 
     25 C          -1.1912  -22.0020  -44.2562 C.2       9 UNK         0.5000 
     26 O          -1.5700  -23.0531  -44.7695 O.2       9 UNK        -0.5000 
     27 CA         -1.8638  -20.6752  -44.6680 C.3       9 UNK         0.1400 
     28 CB         -3.0970  -20.3991  -43.7971 C.3       9 UNK        -0.1800 
     29 N          -0.9818  -19.5014  -44.6457 N.am      9 UNK        -0.5000 
     30 C           0.1623  -19.3813  -45.3378 C.2       8 UNK         0.5000 
     31 O           0.6438  -20.3020  -45.9967 O.2       8 UNK        -0.5000 
     32 CA          0.9020  -18.0329  -45.2838 C.3       8 UNK         0.1400 
     33 CB          1.5018  -17.6751  -46.6479 C.3       8 UNK        -0.1800 
     34 N           0.0082  -16.9569  -44.8715 N.am      8 UNK        -0.5000 
     35 C           0.2445  -16.0721  -43.8961 C.2       7 UNK         0.5000 
     36 O           1.3049  -16.0259  -43.2729 O.2       7 UNK        -0.5000 
     37 CA         -0.8691  -15.0554  -43.5629 C.3       7 UNK         0.1400 
     38 CB         -0.3378  -13.6137  -43.6107 C.3       7 UNK        -0.1800 
     39 N          -2.0313  -15.1699  -44.4463 N.am      7 UNK        -0.5000 
     40 C          -2.9962  -16.0939  -44.3294 C.2       6 UNK         0.5000 
     41 O          -3.0466  -16.9099  -43.4098 O.2       6 UNK        -0.5000 
     42 CA         -4.0432  -16.1579  -45.4595 C.3       6 UNK         0.1400 
     43 CB         -5.3043  -15.3738  -45.0682 C.3       6 UNK        -0.1800 
     44 N          -3.5466  -15.6531  -46.7428 N.am      6 UNK        -0.5000 
     45 C          -2.5467  -16.1976  -47.4526 C.2       5 UNK         0.5000 
     46 O          -1.9427  -17.2118  -47.1084 O.2       5 UNK        -0.5000 
     47 CA         -2.1153  -15.4458  -48.7259 C.3       5 UNK         0.1400 
     48 CB         -2.9252  -15.9276  -49.9380 C.3       5 UNK        -0.1800 
     49 N          -2.2598  -13.9930  -48.5909 N.am      5 UNK        -0.5000 
     50 C          -1.5207  -13.2393  -47.7666 C.2       4 UNK         0.5000 
     51 O          -0.6046  -13.6837  -47.0716 O.2       4 UNK        -0.5000 
     52 CA         -1.9307  -11.7631  -47.6382 C.3       4 UNK         0.1400 
     53 CB         -2.9033  -11.5888  -46.4610 C.3       4 UNK        -0.1800 
     54 N          -0.7727  -10.9023  -47.4190 N.am      4 UNK        -0.5000 
     55 C           0.1233  -10.5637  -48.3509 C.2       3 UNK         0.5000 
     56 O           0.0388  -10.9061  -49.5311 O.2       3 UNK        -0.5000 
     57 CA          1.3149   -9.6960  -47.9001 C.3       3 UNK         0.1400 
     58 CB          0.9095   -8.2157  -47.7662 C.3       3 UNK        -0.1800 
     59 N           2.0020  -10.1774  -46.6943 N.am      3 UNK        -0.5000 
     60 C           1.5723  -10.2435  -45.4272 C.2       2 UNK         0.5000 
     61 O           0.4427   -9.9086  -45.0652 O.2       2 UNK        -0.5000 
     62 CA          2.5801  -10.8173  -44.4080 C.3       2 UNK         0.1400 
     63 CB          2.1074  -10.6602  -42.9517 C.3       2 UNK        -0.1800 
     64 N           2.8668  -12.2304  -44.6634 N.am      2 UNK        -0.5000 
     65 C           3.6436  -12.7068  -45.6473 C.2       1 UNK         0.5000 
     66 O           4.2254  -11.9786  -46.4549 O.2       1 UNK        -0.5000 
     67 C           2.0413  -23.3984  -47.2218 C.2       11 UNK         0.5000 
     68 O           2.3812  -24.3972  -47.8560 O.2       11 UNK        -0.5000 
     69 N           0.9070  -22.7262  -47.4450 N.am      12 UNK        -0.5000 
     70 CA         -0.0621  -22.9440  -48.5152 C.3       12 UNK         0.1400 
     71 CB         -0.8967  -21.6646  -48.6337 C.3       12 UNK        -0.1800 
     72 C          -0.9665  -24.1792  -48.3226 C.2       12 UNK         0.5000 
     73 O          -2.1102  -24.1705  -48.7847 O.2       12 UNK        -0.5000 
     74 N          -0.4596  -25.2304  -47.6671 N.am      13 UNK        -0.5000 
     75 CA         -1.1640  -26.4891  -47.4091 C.3       13 UNK         0.1400 
     76 CB         -0.2887  -27.3823  -46.5188 C.3       13 UNK        -0.1800 
     77 C          -1.5679  -27.2273  -48.7005 C.2       13 UNK         0.5000 
     78 O          -2.6457  -27.8196  -48.7538 O.2       13 UNK        -0.5000 
     79 N          -0.7266  -27.1147  -49.7389 N.am      14 UNK        -0.5000 
     80 CA         -0.9760  -27.6212  -51.0916 C.3       14 UNK         0.1400 
     81 CB          0.3332  -27.5553  -51.8926 C.3       14 UNK        -0.1800 
     82 C          -2.1001  -26.8687  -51.8357 C.2       14 UNK         0.5000 
     83 O          -2.6725  -27.4175  -52.7772 O.2       14 UNK        -0.5000 
     84 N          -2.4110  -25.6447  -51.3889 N.am      15 UNK        -0.5000 
     85 CA         -3.5048  -24.8028  -51.8730 C.3       15 UNK         0.1400 
     86 CB         -2.9692  -23.3758  -52.0877 C.3       15 UNK        -0.1800 
     87 C          -4.6937  -24.8310  -50.8901 C.2       15 UNK         0.5000 
     88 O          -5.4342  -23.8507  -50.8033 O.2       15 UNK        -0.5000 
     89 N          -4.8359  -25.9402  -50.1464 N.am      16 UNK        -0.5000 
     90 CA         -5.8759  -26.2268  -49.1524 C.3       16 UNK         0.1400 
     91 CB         -7.2391  -26.4397  -49.8405 C.3       16 UNK        -0.1800 
     92 C          -5.9193  -25.1961  -48.0048 C.2       16 UNK         0.5000 
     93 O          -6.9989  -24.7805  -47.5820 O.2       16 UNK        -0.5000 
     94 N          -4.7252  -24.8111  -47.5330 N.am      17 UNK        -0.5000 
     95 CA         -4.4530  -23.8031  -46.5058 C.3       17 UNK         0.1400 
     96 CB         -5.0604  -24.1964  -45.1430 C.3       17 UNK        -0.1800 
     97 C          -4.8389  -22.3885  -46.9781 C.2       17 UNK         0.5000 
     98 O          -5.5438  -21.6655  -46.2724 O.2       17 UNK        -0.5000 
     99 N          -4.3547  -22.0375  -48.1789 N.am      18 UNK        -0.5000 
    100 CA        -4.5702  -20.7731  -48.8897 C.3       18 UNK         0.1400 
    101 CB        -3.9138  -19.5895  -48.1457 C.3       18 UNK        -0.1800 
    102 C         -6.0533  -20.5109  -49.2198 C.2       18 UNK         0.5000 
    103 O         -6.5658  -19.4192  -48.9612 O.2       18 UNK        -0.5000 
    104 N         -6.7202  -21.5029  -49.8235 N.am      19 UNK        -0.5000 
    105 CA        -8.1012  -21.4149  -50.3031 C.3       19 UNK         0.1400 
    106 CB        -8.6794  -22.8344  -50.4252 C.3       19 UNK        -0.1800 
    107 C         -8.1781  -20.6298  -51.6298 C.2       19 UNK         0.5000 
    108 O         -8.5060  -21.1978  -52.6728 O.2       19 UNK        -0.5000 
    109 N         -7.8115  -19.3419  -51.5701 N.am      20 UNK        -0.5000 
    110 CA        -7.7356  -18.3321  -52.6367 C.3       20 UNK         0.1400 
    111 CB        -9.1112  -18.1048  -53.2908 C.3       20 UNK        -0.1800 
    112 C         -6.6522  -18.5857  -53.7061 C.2       20 UNK         0.5000 
    113 O         -6.0497  -17.6252  -54.1867 O.2       20 UNK        -0.5000 
    114 N         -6.3979  -19.8561  -54.0438 N.am      21 UNK        -0.5000 
    115 CA        -5.4699  -20.3169  -55.0813 C.3       21 UNK         0.1400 
    116 CB        -5.5708  -21.8467  -55.1865 C.3       21 UNK        -0.1800 
    117 C         -4.0029  -19.8836  -54.8832 C.2       21 UNK         0.5000 
    118 O         -3.2767  -19.7549  -55.8696 O.2       21 UNK        -0.5000 
    119 N         -3.6017  -19.6515  -53.6267 N.am      22 UNK        -0.5000 
    120 CA        -2.2873  -19.0996  -53.2567 C.3       22 UNK         0.1400 
    121 C         -2.1958  -17.5456  -53.3654 C.2       22 UNK         0.5000 
    122 N         -3.2704  -16.8254  -53.6682 N.am      22 UNK        -0.7600 
    123 O         -1.1248  -16.9750  -53.1857 O.2       22 UNK        -0.5000 
    124 C124       -1.8350  -19.6237  -51.8665 C.3       23 UNK        -0.0398 
    125 S125       -0.0383  -19.9250  -51.7589 S.3       23 UNK        -0.2404 
    126 C126        0.4690  -18.6807  -50.5218 C.3       23 UNK        -0.0205 
    127 H127        3.7780  -16.2928  -42.2774 H         1 UNK         0.0600 
    128 H128        4.2074  -14.8285  -41.3849 H         1 UNK         0.0600 
    129 H129        5.4613  -15.9787  -41.8627 H         1 UNK         0.0600 
    130 H130        2.9689  -15.4456  -44.1911 H         1 UNK         0.3000 
    131 H131        2.8504  -14.5681  -46.2220 H         1 UNK         0.0600 
    132 H132        5.9127  -14.4351  -46.2151 H         1 UNK         0.0800 
    133 H133        4.9212  -14.1571  -47.6125 H         1 UNK         0.0800 
    134 H134        4.1807  -15.6550  -49.1516 H         1 UNK         0.0800 
    135 H135        5.6924  -16.5226  -49.2907 H         1 UNK         0.0800 
    136 H136        2.1944  -16.7156  -49.8282 H         1 UNK         0.1150 
    137 H137        1.9358  -20.9857  -50.0773 H         1 UNK         0.1150 
    138 H138        5.5535  -19.1360  -48.7236 H         1 UNK         0.1150 
    139 H139        3.7254  -22.3738  -49.4687 H         1 UNK         0.0800 
    140 H140        5.2543  -21.6930  -49.9526 H         1 UNK         0.0800 
    141 H141        3.0212  -20.8490  -46.9241 H         1 UNK         0.0800 
    142 H142        4.0800  -21.1106  -45.5804 H         1 UNK         0.0800 
    143 H143        3.6355  -23.6432  -45.8016 H         1 UNK         0.0600 
    144 H144        1.6877  -21.6800  -44.8231 H         1 UNK         0.3000 
    145 H145       -0.0370  -23.9094  -42.7252 H         1 UNK         0.0600 
    146 H146        0.7084  -22.4389  -40.8697 H         1 UNK         0.0600 
    147 H147        1.9947  -23.5454  -41.3230 H         1 UNK         0.0600 
    148 H148        2.0679  -21.8639  -41.8360 H         1 UNK         0.0600 
    149 H149        0.0550  -21.0297  -42.9870 H         1 UNK         0.3000 
    150 H150       -2.2086  -20.7974  -45.6955 H         1 UNK         0.0600 
    151 H151       -3.6630  -19.5487  -44.1776 H         1 UNK         0.0600 
    152 H152       -3.7728  -21.2551  -43.7902 H         1 UNK         0.0600 
    153 H153       -2.8216  -20.1862  -42.7636 H         1 UNK         0.0600 
    154 H154       -1.3078  -18.7059  -44.1151 H         1 UNK         0.3000 
    155 H155        1.7164  -18.1519  -44.5669 H         1 UNK         0.0600 
    156 H156        0.7428  -17.6702  -47.4305 H         1 UNK         0.0600 
    157 H157        2.2689  -18.3950  -46.9338 H         1 UNK         0.0600 
    158 H158        1.9671  -16.6919  -46.6325 H         1 UNK         0.0600 
    159 H159       -0.8604  -16.9035  -45.3931 H         1 UNK         0.3000 
    160 H160       -1.1885  -15.2577  -42.5385 H         1 UNK         0.0600 
    161 H161        0.0710  -13.3616  -44.5887 H         1 UNK         0.0600 
    162 H162        0.4559  -13.4723  -42.8768 H         1 UNK         0.0600 
    163 H163       -1.1221  -12.8930  -43.3791 H         1 UNK         0.0600 
    164 H164       -2.0280  -14.5737  -45.2617 H         1 UNK         0.3000 
    165 H165       -4.3164  -17.2067  -45.5950 H         1 UNK         0.0600 
    166 H166       -6.0834  -15.4771  -45.8237 H         1 UNK         0.0600 
    167 H167       -5.7160  -15.7409  -44.1270 H         1 UNK         0.0600 
    168 H168       -5.0949  -14.3106  -44.9428 H         1 UNK         0.0600 
    169 H169       -3.9898  -14.8209  -47.1017 H         1 UNK         0.3000 
    170 H170       -1.0618  -15.6731  -48.9043 H         1 UNK         0.0600 
    171 H171       -2.8264  -17.0043  -50.0668 H         1 UNK         0.0600 
    172 H172       -3.9879  -15.7069  -49.8311 H         1 UNK         0.0600 
    173 H173       -2.5742  -15.4596  -50.8580 H         1 UNK         0.0600 
    174 H174       -2.9926  -13.5588  -49.1336 H         1 UNK         0.3000 
    175 H175       -2.4306  -11.4489  -48.5569 H         1 UNK         0.0600 
    176 H176       -2.4445  -11.8771  -45.5140 H         1 UNK         0.0600 
    177 H177       -3.2300  -10.5526  -46.3709 H         1 UNK         0.0600 
    178 H178       -3.7971  -12.1996  -46.5935 H         1 UNK         0.0600 
    179 H179       -0.5888  -10.6028  -46.4652 H         1 UNK         0.3000 
    180 H180        2.0580   -9.7551  -48.6969 H         1 UNK         0.0600 
    181 H181        0.1550   -8.0652  -46.9937 H         1 UNK         0.0600 
    182 H182        0.4935   -7.8416  -48.7025 H         1 UNK         0.0600 
    183 H183        1.7695   -7.5924  -47.5211 H         1 UNK         0.0600 
    184 H184        2.9227  -10.5733  -46.8630 H         1 UNK         0.3000 
    185 H185        3.5075  -10.2502  -44.5132 H         1 UNK         0.0600 
    186 H186        1.9446   -9.6096  -42.7081 H         1 UNK         0.0600 
    187 H187        1.1702  -11.1854  -42.7683 H         1 UNK         0.0600 
    188 H188        2.8502  -11.0432  -42.2516 H         1 UNK         0.0600 
    189 H189        2.4267  -12.8953  -44.0452 H         1 UNK         0.3000 
    190 H190        0.7246  -21.9134  -46.8603 H         1 UNK         0.3000 
    191 H191        0.4853  -23.0848  -49.4488 H         1 UNK         0.0600 
    192 H192       -0.2611  -20.7832  -48.6856 H         1 UNK         0.0600 
    193 H193       -1.5229  -21.6720  -49.5242 H         1 UNK         0.0600 
    194 H194       -1.5446  -21.5516  -47.7667 H         1 UNK         0.0600 
    195 H195        0.5041  -25.1702  -47.3617 H         1 UNK         0.3000 
    196 H196       -2.0784  -26.2524  -46.8615 H         1 UNK         0.0600 
    197 H197       -0.7960  -28.3193  -46.2855 H         1 UNK         0.0600 
    198 H198       -0.0613  -26.8911  -45.5721 H         1 UNK         0.0600 
    199 H199        0.6569  -27.6304  -47.0026 H         1 UNK         0.0600 
    200 H200        0.1345  -26.6060  -49.5996 H         1 UNK         0.3000 
    201 H201       -1.2786  -28.6675  -51.0123 H         1 UNK         0.0600 
    202 H202        1.1178  -28.1433  -51.4159 H         1 UNK         0.0600 
    203 H203        0.6933  -26.5304  -51.9914 H         1 UNK         0.0600 
    204 H204        0.1970  -27.9538  -52.8988 H         1 UNK         0.0600 
    205 H205       -1.9343  -25.2941  -50.5677 H         1 UNK         0.3000 
    206 H206       -3.8747  -25.1719  -52.8314 H         1 UNK         0.0600 
    207 H207       -2.1351  -23.3679  -52.7894 H         1 UNK         0.0600 
    208 H208       -3.7380  -22.7182  -52.4931 H         1 UNK         0.0600 
    209 H209       -2.6233  -22.9382  -51.1527 H         1 UNK         0.0600 
    210 H210       -4.1401  -26.6655  -50.2564 H         1 UNK         0.3000 
    211 H211       -5.5967  -27.1737  -48.6878 H         1 UNK         0.0600 
    212 H212       -7.5887  -25.5347  -50.3338 H         1 UNK         0.0600 
    213 H213       -8.0020  -26.7372  -49.1202 H         1 UNK         0.0600 
    214 H214       -7.1803  -27.2268  -50.5921 H         1 UNK         0.0600 
    215 H215       -3.9042  -25.1515  -48.0172 H         1 UNK         0.3000 
    216 H216       -3.3713  -23.7960  -46.3846 H         1 UNK         0.0600 
    217 H217       -4.7246  -23.5152  -44.3608 H         1 UNK         0.0600 
    218 H218       -4.7533  -25.2003  -44.8506 H         1 UNK         0.0600 
    219 H219       -6.1500  -24.1664  -45.1546 H         1 UNK         0.0600 
    220 H220       -3.7994  -22.7291  -48.6685 H         1 UNK         0.3000 
    221 H221       -4.0644  -20.8750  -49.8503 H         1 UNK         0.0600 
    222 H222       -4.3459  -19.4349  -47.1570 H         1 UNK         0.0600 
    223 H223       -2.8423  -19.7282  -48.0213 H         1 UNK         0.0600 
    224 H224       -4.0448  -18.6610  -48.7013 H         1 UNK         0.0600 
    225 H225       -6.2271  -22.3647  -50.0522 H         1 UNK         0.3000 
    226 H226       -8.7002  -20.8773  -49.5651 H         1 UNK         0.0600 
    227 H227       -8.6210  -23.3670  -49.4758 H         1 UNK         0.0600 
    228 H228       -9.7292  -22.8050  -50.7189 H         1 UNK         0.0600 
    229 H229       -8.1453  -23.4201  -51.1738 H         1 UNK         0.0600 
    230 H230       -7.4933  -19.0218  -50.6593 H         1 UNK         0.3000 
    231 H231       -7.4572  -17.4037  -52.1355 H         1 UNK         0.0600 
    232 H232       -9.4540  -18.9831  -53.8383 H         1 UNK         0.0600 
    233 H233       -9.0719  -17.2766  -53.9994 H         1 UNK         0.0600 
    234 H234       -9.8666  -17.8579  -52.5448 H         1 UNK         0.0600 
    235 H235       -6.9895  -20.5639  -53.6173 H         1 UNK         0.3000 
    236 H236       -5.8040  -19.8879  -56.0280 H         1 UNK         0.0600 
    237 H237       -6.5789  -22.1556  -55.4638 H         1 UNK         0.0600 
    238 H238       -4.8922  -22.2355  -55.9469 H         1 UNK         0.0600 
    239 H239       -5.3222  -22.3321  -54.2426 H         1 UNK         0.0600 
    240 H240       -4.2775  -19.7573  -52.8860 H         1 UNK         0.3000 
    241 H241       -1.5736  -19.4771  -53.9917 H         1 UNK         0.0600 
    242 H242       -3.1790  -15.8253  -53.7437 H         1 UNK         0.3800 
    243 H243       -4.1713  -17.2543  -53.8545 H         1 UNK         0.3800 
    244 H244       -2.1678  -18.9705  -51.0602 H         1 UNK         0.0800 
    245 H245       -2.3027  -20.5864  -51.6648 H         1 UNK         0.0800 
    246 H246       -0.1892  -18.7292  -49.6540 H         1 UNK         0.0800 
    247 H247        0.3243  -17.6919  -50.9595 H         1 UNK         0.0800 
@<TRIPOS>BOND
     1    1    2 1    
     2    1  127 1    
     3    1  128 1    
     4    1  129 1    
     5    2    3 2    
     6    2    4 am   BACKBONE|DICT|INTERRES
     7    4    5 1    
     8    4  130 1    
     9    5    6 1    
    10    5   65 1    
    11    5  131 1    
    12    6    7 1    
    13    6  132 1    
    14    6  133 1    
    15    7    8 1    
    16    8    9 1    
    17    8  134 1    
    18    8  135 1    
    19    9   10 ar   
    20    9   14 ar   
    21   10   11 ar   
    22   10  136 1    
    23   11   12 ar   
    24   11  126 1    
    25   12   13 ar   
    26   12  137 1    
    27   13   14 ar   
    28   13   15 1    
    29   14  138 1    
    30   15   16 1    
    31   15  139 1    
    32   15  140 1    
    33   16   17 1    
    34   17   18 1    
    35   17  141 1    
    36   17  142 1    
    37   18   19 1    
    38   18   67 1    
    39   18  143 1    
    40   19   20 am   BACKBONE|DICT|INTERRES
    41   19  144 1    
    42   20   21 2    
    43   20   22 1    
    44   22   23 1    
    45   22   24 1    
    46   22  145 1    
    47   23  146 1    
    48   23  147 1    
    49   23  148 1    
    50   24   25 am   BACKBONE|DICT|INTERRES
    51   24  149 1    
    52   25   26 2    
    53   25   27 1    
    54   27   28 1    
    55   27   29 1    
    56   27  150 1    
    57   28  151 1    
    58   28  152 1    
    59   28  153 1    
    60   29   30 am   BACKBONE|DICT|INTERRES
    61   29  154 1    
    62   30   31 2    
    63   30   32 1    
    64   32   33 1    
    65   32   34 1    
    66   32  155 1    
    67   33  156 1    
    68   33  157 1    
    69   33  158 1    
    70   34   35 am   BACKBONE|DICT|INTERRES
    71   34  159 1    
    72   35   36 2    
    73   35   37 1    
    74   37   38 1    
    75   37   39 1    
    76   37  160 1    
    77   38  161 1    
    78   38  162 1    
    79   38  163 1    
    80   39   40 am   BACKBONE|DICT|INTERRES
    81   39  164 1    
    82   40   41 2    
    83   40   42 1    
    84   42   43 1    
    85   42   44 1    
    86   42  165 1    
    87   43  166 1    
    88   43  167 1    
    89   43  168 1    
    90   44   45 am   BACKBONE|DICT|INTERRES
    91   44  169 1    
    92   45   46 2    
    93   45   47 1    
    94   47   48 1    
    95   47   49 1    
    96   47  170 1    
    97   48  171 1    
    98   48  172 1    
    99   48  173 1    
   100   49   50 am   BACKBONE|DICT|INTERRES
   101   49  174 1    
   102   50   51 2    
   103   50   52 1    
   104   52   53 1    
   105   52   54 1    
   106   52  175 1    
   107   53  176 1    
   108   53  177 1    
   109   53  178 1    
   110   54   55 am   BACKBONE|DICT|INTERRES
   111   54  179 1    
   112   55   56 2    
   113   55   57 1    
   114   57   58 1    
   115   57   59 1    
   116   57  180 1    
   117   58  181 1    
   118   58  182 1    
   119   58  183 1    
   120   59   60 am   BACKBONE|DICT|INTERRES
   121   59  184 1    
   122   60   61 2    
   123   60   62 1    
   124   62   63 1    
   125   62   64 1    
   126   62  185 1    
   127   63  186 1    
   128   63  187 1    
   129   63  188 1    
   130   64   65 am   BACKBONE|DICT|INTERRES
   131   64  189 1    
   132   65   66 2    
   133   67   68 2    
   134   67   69 am   BACKBONE|DICT|INTERRES
   135   69   70 1    
   136   69  190 1    
   137   70   71 1    
   138   70   72 1    
   139   70  191 1    
   140   71  192 1    
   141   71  193 1    
   142   71  194 1    
   143   72   73 2    
   144   72   74 am   BACKBONE|DICT|INTERRES
   145   74   75 1    
   146   74  195 1    
   147   75   76 1    
   148   75   77 1    
   149   75  196 1    
   150   76  197 1    
   151   76  198 1    
   152   76  199 1    
   153   77   78 2    
   154   77   79 am   BACKBONE|DICT|INTERRES
   155   79   80 1    
   156   79  200 1    
   157   80   81 1    
   158   80   82 1    
   159   80  201 1    
   160   81  202 1    
   161   81  203 1    
   162   81  204 1    
   163   82   83 2    
   164   82   84 am   BACKBONE|DICT|INTERRES
   165   84   85 1    
   166   84  205 1    
   167   85   86 1    
   168   85   87 1    
   169   85  206 1    
   170   86  207 1    
   171   86  208 1    
   172   86  209 1    
   173   87   88 2    
   174   87   89 am   BACKBONE|DICT|INTERRES
   175   89   90 1    
   176   89  210 1    
   177   90   91 1    
   178   90   92 1    
   179   90  211 1    
   180   91  212 1    
   181   91  213 1    
   182   91  214 1    
   183   92   93 2    
   184   92   94 am   BACKBONE|DICT|INTERRES
   185   94   95 1    
   186   94  215 1    
   187   95   96 1    
   188   95   97 1    
   189   95  216 1    
   190   96  217 1    
   191   96  218 1    
   192   96  219 1    
   193   97   98 2    
   194   97   99 am   BACKBONE|DICT|INTERRES
   195   99  100 1    
   196   99  220 1    
   197  100  101 1    
   198  100  102 1    
   199  100  221 1    
   200  101  222 1    
   201  101  223 1    
   202  101  224 1    
   203  102  103 2    
   204  102  104 am   BACKBONE|DICT|INTERRES
   205  104  105 1    
   206  104  225 1    
   207  105  106 1    
   208  105  107 1    
   209  105  226 1    
   210  106  227 1    
   211  106  228 1    
   212  106  229 1    
   213  107  108 2    
   214  107  109 am   BACKBONE|DICT|INTERRES
   215  109  110 1    
   216  109  230 1    
   217  110  111 1    
   218  110  112 1    
   219  110  231 1    
   220  111  232 1    
   221  111  233 1    
   222  111  234 1    
   223  112  113 2    
   224  112  114 am   BACKBONE|DICT|INTERRES
   225  114  115 1    
   226  114  235 1    
   227  115  116 1    
   228  115  117 1    
   229  115  236 1    
   230  116  237 1    
   231  116  238 1    
   232  116  239 1    
   233  117  118 2    
   234  117  119 am   BACKBONE|DICT|INTERRES
   235  119  120 1    
   236  119  240 1    
   237  120  121 1    
   238  120  124 1    
   239  120  241 1    
   240  121  122 am   BACKBONE|DICT|INTERRES
   241  121  123 2    
   242  122  242 1    
   243  122  243 1    
   244  124  125 1    
   245  124  244 1    
   246  124  245 1    
   247  125  126 1    
   248  126  246 1    
   249  126  247 1    
@<TRIPOS>SUBSTRUCTURE
     1 UNK         1 GROUP             0       ****    0 ROOT    
