@<TRIPOS>MOLECULE
3R540
247   249    1
SMALL
USER_CHARGES


@<TRIPOS>ATOM
      1 CA          2.6858  -11.2568  -49.7378 C.3       0 UNK        -0.1800 
      2 C           1.8638  -11.9934  -48.6915 C.2       0 UNK         0.5000 
      3 O           1.9120  -11.6373  -47.5150 O.2       0 UNK        -0.5000 
      4 N           1.0933  -13.0037  -49.1152 N.am      1 UNK        -0.5000 
      5 CA          0.2741  -13.8922  -48.2739 C.3       1 UNK         0.1400 
      6 C6         -0.3812  -15.0160  -49.1124 C.3       23 UNK        -0.0398 
      7 S7          0.8467  -16.0606  -49.9687 S.3       23 UNK        -0.2404 
      8 C8          0.6442  -17.6436  -49.0887 C.3       23 UNK        -0.0205 
      9 C9          1.3155  -18.8079  -49.8062 C.ar      23 UNK        -0.0193 
     10 C10         1.0631  -19.0497  -51.1616 C.ar      23 UNK        -0.1150 
     11 C11         1.6556  -20.1321  -51.8164 C.ar      23 UNK        -0.0193 
     12 C12         2.4987  -20.9876  -51.1016 C.ar      23 UNK        -0.1150 
     13 C13         2.7496  -20.7679  -49.7439 C.ar      23 UNK        -0.0193 
     14 C14         2.1614  -19.6723  -49.1035 C.ar      23 UNK        -0.1150 
     15 C15         3.6601  -21.7156  -48.9756 C.3       23 UNK        -0.0205 
     16 S16         2.7596  -23.1708  -48.3492 S.3       23 UNK        -0.2404 
     17 C17         1.7994  -22.4236  -46.9912 C.3       23 UNK        -0.0398 
     18 CA          1.1585  -23.4644  -46.0373 C.3       11 UNK         0.1400 
     19 N           1.0401  -22.9176  -44.6824 N.am      11 UNK        -0.5000 
     20 C           0.9429  -23.6385  -43.5586 C.2       10 UNK         0.5000 
     21 O           0.9255  -24.8693  -43.5349 O.2       10 UNK        -0.5000 
     22 CA          0.8200  -22.8439  -42.2443 C.3       10 UNK         0.1400 
     23 CB          2.2009  -22.3812  -41.7555 C.3       10 UNK        -0.1800 
     24 N          -0.0692  -21.6866  -42.3704 N.am      10 UNK        -0.5000 
     25 C          -1.3967  -21.7760  -42.5336 C.2       9 UNK         0.5000 
     26 O          -2.0074  -22.8439  -42.5418 O.2       9 UNK        -0.5000 
     27 CA         -2.1742  -20.4639  -42.7465 C.3       9 UNK         0.1400 
     28 CB         -2.5159  -19.8133  -41.3980 C.3       9 UNK        -0.1800 
     29 N          -1.4626  -19.5019  -43.5881 N.am      9 UNK        -0.5000 
     30 C          -1.1730  -19.6849  -44.8841 C.2       8 UNK         0.5000 
     31 O          -1.5029  -20.6780  -45.5291 O.2       8 UNK        -0.5000 
     32 CA         -0.3209  -18.6003  -45.5655 C.3       8 UNK         0.1400 
     33 CB         -1.1772  -17.3831  -45.9452 C.3       8 UNK        -0.1800 
     34 N           0.8074  -18.1715  -44.7388 N.am      8 UNK        -0.5000 
     35 C           1.7879  -18.9813  -44.3134 C.2       7 UNK         0.5000 
     36 O           1.8705  -20.1710  -44.6118 O.2       7 UNK        -0.5000 
     37 CA          2.8138  -18.3776  -43.3431 C.3       7 UNK         0.1400 
     38 CB          3.8849  -17.5820  -44.1029 C.3       7 UNK        -0.1800 
     39 N           2.1664  -17.5286  -42.3435 N.am      7 UNK        -0.5000 
     40 C           1.3865  -17.9946  -41.3567 C.2       6 UNK         0.5000 
     41 O           1.1743  -19.1912  -41.1606 O.2       6 UNK        -0.5000 
     42 CA          0.6935  -16.9447  -40.4690 C.3       6 UNK         0.1400 
     43 CB          1.6399  -16.4598  -39.3610 C.3       6 UNK        -0.1800 
     44 N           0.2116  -15.7948  -41.2357 N.am      6 UNK        -0.5000 
     45 C          -0.7740  -15.8513  -42.1426 C.2       5 UNK         0.5000 
     46 O          -1.4123  -16.8726  -42.3921 O.2       5 UNK        -0.5000 
     47 CA         -1.0633  -14.5654  -42.9368 C.3       5 UNK         0.1400 
     48 CB         -2.1020  -13.6974  -42.2124 C.3       5 UNK        -0.1800 
     49 N           0.1321  -13.7644  -43.2025 N.am      5 UNK        -0.5000 
     50 C           1.1796  -14.1591  -43.9371 C.2       4 UNK         0.5000 
     51 O           1.2824  -15.2900  -44.4166 O.2       4 UNK        -0.5000 
     52 CA          2.2839  -13.1073  -44.1685 C.3       4 UNK         0.1400 
     53 CB          3.3936  -13.6083  -45.1097 C.3       4 UNK        -0.1800 
     54 N           1.7334  -11.8685  -44.7161 N.am      4 UNK        -0.5000 
     55 C           1.1399  -10.8923  -44.0172 C.2       3 UNK         0.5000 
     56 O           0.9881  -10.9252  -42.7954 O.2       3 UNK        -0.5000 
     57 CA          0.5775   -9.7160  -44.8287 C.3       3 UNK         0.1400 
     58 CB          1.7078   -8.8108  -45.3440 C.3       3 UNK        -0.1800 
     59 N          -0.2052  -10.2121  -45.9589 N.am      3 UNK        -0.5000 
     60 C          -1.5221  -10.4582  -45.9215 C.2       2 UNK         0.5000 
     61 O          -2.2374  -10.2138  -44.9493 O.2       2 UNK        -0.5000 
     62 CA         -2.1502  -11.0892  -47.1804 C.3       2 UNK         0.1400 
     63 CB         -2.6501   -9.9970  -48.1381 C.3       2 UNK        -0.1800 
     64 N          -1.2258  -11.9680  -47.8984 N.am      2 UNK        -0.5000 
     65 C          -0.8047  -13.1578  -47.4459 C.2       1 UNK         0.5000 
     66 O          -1.2261  -13.6761  -46.4129 O.2       1 UNK        -0.5000 
     67 C          -0.1859  -23.9885  -46.5953 C.2       11 UNK         0.5000 
     68 O          -0.1858  -24.6630  -47.6266 O.2       11 UNK        -0.5000 
     69 N          -1.3100  -23.6736  -45.9304 N.am      12 UNK        -0.5000 
     70 CA         -2.6874  -23.9027  -46.3838 C.3       12 UNK         0.1400 
     71 CB         -3.6804  -23.3716  -45.3409 C.3       12 UNK        -0.1800 
     72 C          -3.0461  -25.3503  -46.7638 C.2       12 UNK         0.5000 
     73 O          -3.9643  -25.5417  -47.5602 O.2       12 UNK        -0.5000 
     74 N          -2.2961  -26.3311  -46.2447 N.am      13 UNK        -0.5000 
     75 CA         -2.3795  -27.7434  -46.6249 C.3       13 UNK         0.1400 
     76 CB         -1.4208  -28.5529  -45.7387 C.3       13 UNK        -0.1800 
     77 C          -2.0851  -28.0060  -48.1187 C.2       13 UNK         0.5000 
     78 O          -2.5944  -28.9858  -48.6647 O.2       13 UNK        -0.5000 
     79 N          -1.2910  -27.1287  -48.7482 N.am      14 UNK        -0.5000 
     80 CA         -0.9855  -27.1473  -50.1779 C.3       14 UNK         0.1400 
     81 CB          0.5303  -27.3238  -50.3631 C.3       14 UNK        -0.1800 
     82 C          -1.4620  -25.8599  -50.8724 C.2       14 UNK         0.5000 
     83 O          -1.9756  -25.9299  -51.9891 O.2       14 UNK        -0.5000 
     84 N          -1.2734  -24.7079  -50.2151 N.am      15 UNK        -0.5000 
     85 CA         -1.4968  -23.3818  -50.7915 C.3       15 UNK         0.1400 
     86 CB         -0.6137  -22.3739  -50.0421 C.3       15 UNK        -0.1800 
     87 C          -2.9544  -22.9017  -50.7414 C.2       15 UNK         0.5000 
     88 O          -3.2676  -21.9012  -51.3840 O.2       15 UNK        -0.5000 
     89 N          -3.8020  -23.5443  -49.9218 N.am      16 UNK        -0.5000 
     90 CA         -5.1901  -23.1527  -49.6226 C.3       16 UNK         0.1400 
     91 CB         -6.0847  -23.3747  -50.8593 C.3       16 UNK        -0.1800 
     92 C          -5.3232  -21.7217  -49.0410 C.2       16 UNK         0.5000 
     93 O          -6.3796  -21.1031  -49.1682 O.2       16 UNK        -0.5000 
     94 N          -4.2338  -21.2288  -48.4287 N.am      17 UNK        -0.5000 
     95 CA         -4.0050  -19.8655  -47.9384 C.3       17 UNK         0.1400 
     96 CB         -4.9596  -19.5169  -46.7783 C.3       17 UNK        -0.1800 
     97 C          -3.9759  -18.8003  -49.0588 C.2       17 UNK         0.5000 
     98 O          -4.2750  -17.6347  -48.7950 O.2       17 UNK        -0.5000 
     99 N          -3.5756  -19.2217  -50.2697 N.am      18 UNK        -0.5000 
    100 CA        -3.4969  -18.4713  -51.5272 C.3       18 UNK         0.1400 
    101 CB        -2.6170  -17.2122  -51.3891 C.3       18 UNK        -0.1800 
    102 C         -4.8788  -18.1418  -52.1263 C.2       18 UNK         0.5000 
    103 O         -5.9122  -18.3226  -51.4782 O.2       18 UNK        -0.5000 
    104 N         -4.8669  -17.6862  -53.3871 N.am      19 UNK        -0.5000 
    105 CA        -5.9955  -17.2963  -54.2469 C.3       19 UNK         0.1400 
    106 CB        -6.8120  -16.1448  -53.6296 C.3       19 UNK        -0.1800 
    107 C         -6.9042  -18.4670  -54.6722 C.2       19 UNK         0.5000 
    108 O         -7.2218  -18.5862  -55.8560 O.2       19 UNK        -0.5000 
    109 N         -7.2798  -19.3263  -53.7178 N.am      20 UNK        -0.5000 
    110 CA        -7.9960  -20.5838  -53.9403 C.3       20 UNK         0.1400 
    111 CB        -8.5559  -21.0787  -52.5984 C.3       20 UNK        -0.1800 
    112 C         -7.1130  -21.6607  -54.6045 C.2       20 UNK         0.5000 
    113 O         -7.6393  -22.5575  -55.2645 O.2       20 UNK        -0.5000 
    114 N         -5.7925  -21.5328  -54.4440 N.am      21 UNK        -0.5000 
    115 CA        -4.7522  -22.2972  -55.1167 C.3       21 UNK         0.1400 
    116 CB        -4.5065  -23.6270  -54.3812 C.3       21 UNK        -0.1800 
    117 C         -3.4873  -21.4243  -55.1717 C.2       21 UNK         0.5000 
    118 O         -3.4214  -20.4071  -54.4755 O.2       21 UNK        -0.5000 
    119 N         -2.5288  -21.8411  -56.0095 N.am      22 UNK        -0.5000 
    120 CA        -1.2288  -21.1993  -56.2836 C.3       22 UNK         0.1400 
    121 C         -1.2792  -19.6699  -56.6034 C.2       22 UNK         0.5000 
    122 N         -0.2164  -18.9133  -56.3625 N.am      22 UNK        -0.7600 
    123 O         -2.2584  -19.1694  -57.1523 O.2       22 UNK        -0.5000 
    124 C124       -0.1024  -21.6680  -55.3132 C.3       23 UNK        -0.0398 
    125 S125       -0.2430  -21.1206  -53.5749 S.3       23 UNK        -0.2404 
    126 C126        1.3920  -20.3706  -53.2954 C.3       23 UNK        -0.0205 
    127 H127        2.4094  -10.2026  -49.7569 H         1 UNK         0.0600 
    128 H128        2.5343  -11.6678  -50.7362 H         1 UNK         0.0600 
    129 H129        3.7463  -11.3280  -49.4970 H         1 UNK         0.0600 
    130 H130        1.1091  -13.2467  -50.0957 H         1 UNK         0.3000 
    131 H131        0.9479  -14.3591  -47.5520 H         1 UNK         0.0600 
    132 H132       -1.0184  -15.6455  -48.4895 H         1 UNK         0.0800 
    133 H133       -1.0415  -14.5882  -49.8689 H         1 UNK         0.0800 
    134 H134        1.0530  -17.5239  -48.0847 H         1 UNK         0.0800 
    135 H135       -0.4146  -17.8781  -48.9746 H         1 UNK         0.0800 
    136 H136        0.4032  -18.3949  -51.7125 H         1 UNK         0.1150 
    137 H137        2.9528  -21.8335  -51.5982 H         1 UNK         0.1150 
    138 H138        2.3539  -19.5017  -48.0534 H         1 UNK         0.1150 
    139 H139        4.4636  -22.0574  -49.6296 H         1 UNK         0.0800 
    140 H140        4.1461  -21.1953  -48.1488 H         1 UNK         0.0800 
    141 H141        1.0544  -21.7339  -47.3919 H         1 UNK         0.0800 
    142 H142        2.5084  -21.8082  -46.4379 H         1 UNK         0.0800 
    143 H143        1.8274  -24.3255  -45.9754 H         1 UNK         0.0600 
    144 H144        1.1002  -21.9051  -44.6037 H         1 UNK         0.3000 
    145 H145        0.4023  -23.5128  -41.4889 H         1 UNK         0.0600 
    146 H146        2.1286  -21.8790  -40.7906 H         1 UNK         0.0600 
    147 H147        2.8757  -23.2290  -41.6315 H         1 UNK         0.0600 
    148 H148        2.6676  -21.6896  -42.4572 H         1 UNK         0.0600 
    149 H149        0.3599  -20.7697  -42.3156 H         1 UNK         0.3000 
    150 H150       -3.1116  -20.7129  -43.2479 H         1 UNK         0.0600 
    151 H151       -3.0579  -20.5072  -40.7543 H         1 UNK         0.0600 
    152 H152       -3.1475  -18.9352  -41.5336 H         1 UNK         0.0600 
    153 H153       -1.6186  -19.5001  -40.8634 H         1 UNK         0.0600 
    154 H154       -1.2035  -18.6228  -43.1485 H         1 UNK         0.3000 
    155 H155        0.0900  -19.0323  -46.4795 H         1 UNK         0.0600 
    156 H156       -1.7152  -16.9824  -45.0867 H         1 UNK         0.0600 
    157 H157       -1.9189  -17.6460  -46.6999 H         1 UNK         0.0600 
    158 H158       -0.5638  -16.5790  -46.3507 H         1 UNK         0.0600 
    159 H159        0.8425  -17.1896  -44.4795 H         1 UNK         0.3000 
    160 H160        3.3103  -19.1989  -42.8219 H         1 UNK         0.0600 
    161 H161        3.4473  -16.7914  -44.7115 H         1 UNK         0.0600 
    162 H162        4.4447  -18.2339  -44.7746 H         1 UNK         0.0600 
    163 H163        4.6014  -17.1262  -43.4195 H         1 UNK         0.0600 
    164 H164        2.2398  -16.5312  -42.4780 H         1 UNK         0.3000 
    165 H165       -0.1673  -17.4237  -39.9975 H         1 UNK         0.0600 
    166 H166        1.1333  -15.7729  -38.6828 H         1 UNK         0.0600 
    167 H167        2.0012  -17.2976  -38.7631 H         1 UNK         0.0600 
    168 H168        2.5120  -15.9473  -39.7691 H         1 UNK         0.0600 
    169 H169        0.6834  -14.9142  -41.0918 H         1 UNK         0.3000 
    170 H170       -1.4815  -14.8615  -43.9006 H         1 UNK         0.0600 
    171 H171       -3.0162  -14.2606  -42.0207 H         1 UNK         0.0600 
    172 H172       -1.7284  -13.3379  -41.2529 H         1 UNK         0.0600 
    173 H173       -2.3755  -12.8295  -42.8134 H         1 UNK         0.0600 
    174 H174        0.1372  -12.8133  -42.8516 H         1 UNK         0.3000 
    175 H175        2.7400  -12.8949  -43.1996 H         1 UNK         0.0600 
    176 H176        2.9963  -13.9040  -46.0814 H         1 UNK         0.0600 
    177 H177        4.1455  -12.8372  -45.2782 H         1 UNK         0.0600 
    178 H178        3.9071  -14.4701  -44.6842 H         1 UNK         0.0600 
    179 H179        1.7925  -11.7707  -45.7282 H         1 UNK         0.3000 
    180 H180       -0.0557   -9.1188  -44.1690 H         1 UNK         0.0600 
    181 H181        2.3813   -9.3415  -46.0180 H         1 UNK         0.0600 
    182 H182        2.3064   -8.4265  -44.5172 H         1 UNK         0.0600 
    183 H183        1.3071   -7.9516  -45.8820 H         1 UNK         0.0600 
    184 H184        0.3221  -10.5063  -46.7721 H         1 UNK         0.3000 
    185 H185       -3.0095  -11.6827  -46.8608 H         1 UNK         0.0600 
    186 H186       -3.3613   -9.3369  -47.6396 H         1 UNK         0.0600 
    187 H187       -1.8310   -9.3784  -48.5070 H         1 UNK         0.0600 
    188 H188       -3.1593  -10.4300  -48.9993 H         1 UNK         0.0600 
    189 H189       -0.8350  -11.6158  -48.7601 H         1 UNK         0.3000 
    190 H190       -1.2125  -23.0932  -45.1084 H         1 UNK         0.3000 
    191 H191       -2.8047  -23.3072  -47.2876 H         1 UNK         0.0600 
    192 H192       -3.5155  -22.3157  -45.1325 H         1 UNK         0.0600 
    193 H193       -4.7083  -23.4696  -45.6929 H         1 UNK         0.0600 
    194 H194       -3.6031  -23.9189  -44.4012 H         1 UNK         0.0600 
    195 H195       -1.5574  -26.0754  -45.6056 H         1 UNK         0.3000 
    196 H196       -3.3991  -28.0807  -46.4278 H         1 UNK         0.0600 
    197 H197       -1.4734  -29.6165  -45.9752 H         1 UNK         0.0600 
    198 H198       -1.6706  -28.4432  -44.6832 H         1 UNK         0.0600 
    199 H199       -0.3856  -28.2368  -45.8742 H         1 UNK         0.0600 
    200 H200       -0.9144  -26.3495  -48.2169 H         1 UNK         0.3000 
    201 H201       -1.4864  -27.9839  -50.6694 H         1 UNK         0.0600 
    202 H202        0.8704  -28.2665  -49.9344 H         1 UNK         0.0600 
    203 H203        1.0913  -26.5182  -49.8868 H         1 UNK         0.0600 
    204 H204        0.7974  -27.3316  -51.4206 H         1 UNK         0.0600 
    205 H205       -0.8222  -24.7257  -49.3032 H         1 UNK         0.3000 
    206 H206       -1.1901  -23.3951  -51.8392 H         1 UNK         0.0600 
    207 H207        0.4339  -22.6634  -50.0971 H         1 UNK         0.0600 
    208 H208       -0.6967  -21.3773  -50.4770 H         1 UNK         0.0600 
    209 H209       -0.8875  -22.2924  -48.9906 H         1 UNK         0.0600 
    210 H210       -3.4720  -24.3703  -49.4389 H         1 UNK         0.3000 
    211 H211       -5.5408  -23.8269  -48.8410 H         1 UNK         0.0600 
    212 H212       -5.8499  -22.6703  -51.6574 H         1 UNK         0.0600 
    213 H213       -7.1384  -23.2490  -50.6089 H         1 UNK         0.0600 
    214 H214       -5.9656  -24.3822  -51.2576 H         1 UNK         0.0600 
    215 H215       -3.4258  -21.8300  -48.3948 H         1 UNK         0.3000 
    216 H216       -2.9949  -19.8713  -47.5303 H         1 UNK         0.0600 
    217 H217       -4.6774  -18.5728  -46.3111 H         1 UNK         0.0600 
    218 H218       -4.9301  -20.2811  -46.0017 H         1 UNK         0.0600 
    219 H219       -5.9907  -19.4185  -47.1176 H         1 UNK         0.0600 
    220 H220       -3.4245  -20.2180  -50.3950 H         1 UNK         0.3000 
    221 H221       -2.9983  -19.1444  -52.2252 H         1 UNK         0.0600 
    222 H222       -3.0938  -16.4398  -50.7856 H         1 UNK         0.0600 
    223 H223       -1.6610  -17.4549  -50.9317 H         1 UNK         0.0600 
    224 H224       -2.4013  -16.7733  -52.3634 H         1 UNK         0.0600 
    225 H225       -3.9683  -17.6517  -53.8492 H         1 UNK         0.3000 
    226 H226       -5.5400  -16.9126  -55.1613 H         1 UNK         0.0600 
    227 H227       -6.1736  -15.2957  -53.3858 H         1 UNK         0.0600 
    228 H228       -7.5712  -15.7911  -54.3281 H         1 UNK         0.0600 
    229 H229       -7.3279  -16.4491  -52.7186 H         1 UNK         0.0600 
    230 H230       -6.9663  -19.1308  -52.7694 H         1 UNK         0.3000 
    231 H231       -8.8358  -20.3905  -54.6109 H         1 UNK         0.0600 
    232 H232       -7.7713  -21.1744  -51.8479 H         1 UNK         0.0600 
    233 H233       -9.0361  -22.0523  -52.7042 H         1 UNK         0.0600 
    234 H234       -9.3033  -20.3879  -52.2081 H         1 UNK         0.0600 
    235 H235       -5.4318  -20.7420  -53.9243 H         1 UNK         0.3000 
    236 H236       -5.0680  -22.5004  -56.1421 H         1 UNK         0.0600 
    237 H237       -5.4132  -24.2303  -54.3378 H         1 UNK         0.0600 
    238 H238       -3.7450  -24.2223  -54.8855 H         1 UNK         0.0600 
    239 H239       -4.1675  -23.4633  -53.3598 H         1 UNK         0.0600 
    240 H240       -2.7085  -22.6746  -56.5499 H         1 UNK         0.3000 
    241 H241       -0.9538  -21.6208  -57.2510 H         1 UNK         0.0600 
    242 H242       -0.2517  -17.9351  -56.6031 H         1 UNK         0.3800 
    243 H243        0.6135  -19.2889  -55.9365 H         1 UNK         0.3800 
    244 H244       -0.0821  -22.7583  -55.2989 H         1 UNK         0.0800 
    245 H245        0.8711  -21.3803  -55.7118 H         1 UNK         0.0800 
    246 H246        1.4562  -19.4244  -53.8338 H         1 UNK         0.0800 
    247 H247        2.1658  -21.0187  -53.7097 H         1 UNK         0.0800 
@<TRIPOS>BOND
     1    1    2 1    
     2    1  127 1    
     3    1  128 1    
     4    1  129 1    
     5    2    3 2    
     6    2    4 am   BACKBONE|DICT|INTERRES
     7    4    5 1    
     8    4  130 1    
     9    5    6 1    
    10    5   65 1    
    11    5  131 1    
    12    6    7 1    
    13    6  132 1    
    14    6  133 1    
    15    7    8 1    
    16    8    9 1    
    17    8  134 1    
    18    8  135 1    
    19    9   10 ar   
    20    9   14 ar   
    21   10   11 ar   
    22   10  136 1    
    23   11   12 ar   
    24   11  126 1    
    25   12   13 ar   
    26   12  137 1    
    27   13   14 ar   
    28   13   15 1    
    29   14  138 1    
    30   15   16 1    
    31   15  139 1    
    32   15  140 1    
    33   16   17 1    
    34   17   18 1    
    35   17  141 1    
    36   17  142 1    
    37   18   19 1    
    38   18   67 1    
    39   18  143 1    
    40   19   20 am   BACKBONE|DICT|INTERRES
    41   19  144 1    
    42   20   21 2    
    43   20   22 1    
    44   22   23 1    
    45   22   24 1    
    46   22  145 1    
    47   23  146 1    
    48   23  147 1    
    49   23  148 1    
    50   24   25 am   BACKBONE|DICT|INTERRES
    51   24  149 1    
    52   25   26 2    
    53   25   27 1    
    54   27   28 1    
    55   27   29 1    
    56   27  150 1    
    57   28  151 1    
    58   28  152 1    
    59   28  153 1    
    60   29   30 am   BACKBONE|DICT|INTERRES
    61   29  154 1    
    62   30   31 2    
    63   30   32 1    
    64   32   33 1    
    65   32   34 1    
    66   32  155 1    
    67   33  156 1    
    68   33  157 1    
    69   33  158 1    
    70   34   35 am   BACKBONE|DICT|INTERRES
    71   34  159 1    
    72   35   36 2    
    73   35   37 1    
    74   37   38 1    
    75   37   39 1    
    76   37  160 1    
    77   38  161 1    
    78   38  162 1    
    79   38  163 1    
    80   39   40 am   BACKBONE|DICT|INTERRES
    81   39  164 1    
    82   40   41 2    
    83   40   42 1    
    84   42   43 1    
    85   42   44 1    
    86   42  165 1    
    87   43  166 1    
    88   43  167 1    
    89   43  168 1    
    90   44   45 am   BACKBONE|DICT|INTERRES
    91   44  169 1    
    92   45   46 2    
    93   45   47 1    
    94   47   48 1    
    95   47   49 1    
    96   47  170 1    
    97   48  171 1    
    98   48  172 1    
    99   48  173 1    
   100   49   50 am   BACKBONE|DICT|INTERRES
   101   49  174 1    
   102   50   51 2    
   103   50   52 1    
   104   52   53 1    
   105   52   54 1    
   106   52  175 1    
   107   53  176 1    
   108   53  177 1    
   109   53  178 1    
   110   54   55 am   BACKBONE|DICT|INTERRES
   111   54  179 1    
   112   55   56 2    
   113   55   57 1    
   114   57   58 1    
   115   57   59 1    
   116   57  180 1    
   117   58  181 1    
   118   58  182 1    
   119   58  183 1    
   120   59   60 am   BACKBONE|DICT|INTERRES
   121   59  184 1    
   122   60   61 2    
   123   60   62 1    
   124   62   63 1    
   125   62   64 1    
   126   62  185 1    
   127   63  186 1    
   128   63  187 1    
   129   63  188 1    
   130   64   65 am   BACKBONE|DICT|INTERRES
   131   64  189 1    
   132   65   66 2    
   133   67   68 2    
   134   67   69 am   BACKBONE|DICT|INTERRES
   135   69   70 1    
   136   69  190 1    
   137   70   71 1    
   138   70   72 1    
   139   70  191 1    
   140   71  192 1    
   141   71  193 1    
   142   71  194 1    
   143   72   73 2    
   144   72   74 am   BACKBONE|DICT|INTERRES
   145   74   75 1    
   146   74  195 1    
   147   75   76 1    
   148   75   77 1    
   149   75  196 1    
   150   76  197 1    
   151   76  198 1    
   152   76  199 1    
   153   77   78 2    
   154   77   79 am   BACKBONE|DICT|INTERRES
   155   79   80 1    
   156   79  200 1    
   157   80   81 1    
   158   80   82 1    
   159   80  201 1    
   160   81  202 1    
   161   81  203 1    
   162   81  204 1    
   163   82   83 2    
   164   82   84 am   BACKBONE|DICT|INTERRES
   165   84   85 1    
   166   84  205 1    
   167   85   86 1    
   168   85   87 1    
   169   85  206 1    
   170   86  207 1    
   171   86  208 1    
   172   86  209 1    
   173   87   88 2    
   174   87   89 am   BACKBONE|DICT|INTERRES
   175   89   90 1    
   176   89  210 1    
   177   90   91 1    
   178   90   92 1    
   179   90  211 1    
   180   91  212 1    
   181   91  213 1    
   182   91  214 1    
   183   92   93 2    
   184   92   94 am   BACKBONE|DICT|INTERRES
   185   94   95 1    
   186   94  215 1    
   187   95   96 1    
   188   95   97 1    
   189   95  216 1    
   190   96  217 1    
   191   96  218 1    
   192   96  219 1    
   193   97   98 2    
   194   97   99 am   BACKBONE|DICT|INTERRES
   195   99  100 1    
   196   99  220 1    
   197  100  101 1    
   198  100  102 1    
   199  100  221 1    
   200  101  222 1    
   201  101  223 1    
   202  101  224 1    
   203  102  103 2    
   204  102  104 am   BACKBONE|DICT|INTERRES
   205  104  105 1    
   206  104  225 1    
   207  105  106 1    
   208  105  107 1    
   209  105  226 1    
   210  106  227 1    
   211  106  228 1    
   212  106  229 1    
   213  107  108 2    
   214  107  109 am   BACKBONE|DICT|INTERRES
   215  109  110 1    
   216  109  230 1    
   217  110  111 1    
   218  110  112 1    
   219  110  231 1    
   220  111  232 1    
   221  111  233 1    
   222  111  234 1    
   223  112  113 2    
   224  112  114 am   BACKBONE|DICT|INTERRES
   225  114  115 1    
   226  114  235 1    
   227  115  116 1    
   228  115  117 1    
   229  115  236 1    
   230  116  237 1    
   231  116  238 1    
   232  116  239 1    
   233  117  118 2    
   234  117  119 am   BACKBONE|DICT|INTERRES
   235  119  120 1    
   236  119  240 1    
   237  120  121 1    
   238  120  124 1    
   239  120  241 1    
   240  121  122 am   BACKBONE|DICT|INTERRES
   241  121  123 2    
   242  122  242 1    
   243  122  243 1    
   244  124  125 1    
   245  124  244 1    
   246  124  245 1    
   247  125  126 1    
   248  126  246 1    
   249  126  247 1    
@<TRIPOS>SUBSTRUCTURE
     1 UNK         1 GROUP             0       ****    0 ROOT    
