@<TRIPOS>MOLECULE
3R540
247   249    1
SMALL
USER_CHARGES


@<TRIPOS>ATOM
      1 CA          0.1796  -18.5910  -40.9410 C.3       0 UNK        -0.1800 
      2 C          -0.7094  -17.3974  -41.2615 C.2       0 UNK         0.5000 
      3 O          -1.9325  -17.5171  -41.2300 O.2       0 UNK        -0.5000 
      4 N          -0.1029  -16.2488  -41.5724 N.am      1 UNK        -0.5000 
      5 CA         -0.7833  -15.0108  -41.9366 C.3       1 UNK         0.1400 
      6 C6         -1.1757  -14.9983  -43.4370 C.3       23 UNK        -0.0398 
      7 S7         -2.1450  -13.5343  -43.9398 S.3       23 UNK        -0.2404 
      8 C8         -3.8599  -14.0858  -43.6739 C.3       23 UNK        -0.0205 
      9 C9         -4.2551  -15.2319  -44.5930 C.ar      23 UNK        -0.0193 
     10 C10        -4.2766  -15.0530  -45.9792 C.ar      23 UNK        -0.1150 
     11 C11        -4.6313  -16.1069  -46.8259 C.ar      23 UNK        -0.0193 
     12 C12        -4.9703  -17.3464  -46.2761 C.ar      23 UNK        -0.1150 
     13 C13        -4.9532  -17.5379  -44.8911 C.ar      23 UNK        -0.0193 
     14 C14        -4.6038  -16.4732  -44.0552 C.ar      23 UNK        -0.1150 
     15 C15        -5.3018  -18.8996  -44.3040 C.3       23 UNK        -0.0205 
     16 S16        -4.0086  -19.5624  -43.1992 S.3       23 UNK        -0.2404 
     17 C17        -2.5297  -19.5420  -44.2705 C.3       23 UNK        -0.0398 
     18 CA         -2.4330  -20.7892  -45.1768 C.3       11 UNK         0.1400 
     19 N          -1.5660  -20.5565  -46.3326 N.am      11 UNK        -0.5000 
     20 C          -1.4578  -21.3874  -47.3775 C.2       10 UNK         0.5000 
     21 O          -2.1139  -22.4206  -47.4981 O.2       10 UNK        -0.5000 
     22 CA         -0.4052  -21.0382  -48.4424 C.3       10 UNK         0.1400 
     23 CB         -0.9431  -19.9805  -49.4160 C.3       10 UNK        -0.1800 
     24 N           0.8573  -20.5876  -47.8555 N.am      10 UNK        -0.5000 
     25 C           1.6312  -21.3461  -47.0647 C.2       9 UNK         0.5000 
     26 O           1.3833  -22.5195  -46.7906 O.2       9 UNK        -0.5000 
     27 CA          2.8634  -20.6750  -46.4361 C.3       9 UNK         0.1400 
     28 CB          4.0165  -20.6023  -47.4477 C.3       9 UNK        -0.1800 
     29 N           2.5757  -19.3396  -45.9131 N.am      9 UNK        -0.5000 
     30 C           1.7155  -19.0749  -44.9192 C.2       8 UNK         0.5000 
     31 O           1.0860  -19.9378  -44.3068 O.2       8 UNK        -0.5000 
     32 CA          1.4715  -17.5905  -44.5928 C.3       8 UNK         0.1400 
     33 CB          2.6234  -17.0015  -43.7662 C.3       8 UNK        -0.1800 
     34 N           1.2603  -16.7801  -45.7910 N.am      8 UNK        -0.5000 
     35 C           0.2452  -16.9581  -46.6483 C.2       7 UNK         0.5000 
     36 O          -0.6443  -17.7933  -46.4908 O.2       7 UNK        -0.5000 
     37 CA          0.2670  -16.1000  -47.9222 C.3       7 UNK         0.1400 
     38 CB         -0.2989  -14.6959  -47.6553 C.3       7 UNK        -0.1800 
     39 N           1.6138  -16.0060  -48.4866 N.am      7 UNK        -0.5000 
     40 C           2.2481  -17.0291  -49.0787 C.2       6 UNK         0.5000 
     41 O           1.7470  -18.1409  -49.2409 O.2       6 UNK        -0.5000 
     42 CA          3.6979  -16.7827  -49.5342 C.3       6 UNK         0.1400 
     43 CB          3.7215  -16.1088  -50.9141 C.3       6 UNK        -0.1800 
     44 N           4.4600  -15.9713  -48.5853 N.am      6 UNK        -0.5000 
     45 C           4.7722  -16.3488  -47.3370 C.2       5 UNK         0.5000 
     46 O           4.4902  -17.4479  -46.8644 O.2       5 UNK        -0.5000 
     47 CA          5.4668  -15.3000  -46.4489 C.3       5 UNK         0.1400 
     48 CB          6.9926  -15.3930  -46.5960 C.3       5 UNK        -0.1800 
     49 N           5.0322  -13.9296  -46.7325 N.am      5 UNK        -0.5000 
     50 C           3.7753  -13.4884  -46.5944 C.2       4 UNK         0.5000 
     51 O           2.8374  -14.1963  -46.2161 O.2       4 UNK        -0.5000 
     52 CA          3.5182  -12.0352  -47.0310 C.3       4 UNK         0.1400 
     53 CB          3.1529  -11.9938  -48.5234 C.3       4 UNK        -0.1800 
     54 N           2.4398  -11.4105  -46.2685 N.am      4 UNK        -0.5000 
     55 C           2.4848  -11.1311  -44.9603 C.2       3 UNK         0.5000 
     56 O           3.4833  -11.3121  -44.2590 O.2       3 UNK        -0.5000 
     57 CA          1.2136  -10.5430  -44.3244 C.3       3 UNK         0.1400 
     58 CB         -0.0588  -10.7041  -45.1856 C.3       3 UNK        -0.1800 
     59 N           1.0204  -11.1694  -43.0223 N.am      3 UNK        -0.5000 
     60 C           0.4003  -10.6248  -41.9724 C.2       2 UNK         0.5000 
     61 O          -0.0944   -9.4957  -41.9829 O.2       2 UNK        -0.5000 
     62 CA          0.2895  -11.5170  -40.7181 C.3       2 UNK         0.1400 
     63 CB         -0.4401  -10.8231  -39.5534 C.3       2 UNK        -0.1800 
     64 N          -0.4095  -12.7636  -41.0345 N.am      2 UNK        -0.5000 
     65 C           0.1574  -13.8549  -41.5619 C.2       1 UNK         0.5000 
     66 O           1.3672  -13.9596  -41.7806 O.2       1 UNK        -0.5000 
     67 C          -2.0185  -22.0505  -44.3900 C.2       11 UNK         0.5000 
     68 O          -2.8737  -22.8857  -44.0935 O.2       11 UNK        -0.5000 
     69 N          -0.7126  -22.2014  -44.1217 N.am      12 UNK        -0.5000 
     70 CA         -0.1279  -23.3679  -43.4527 C.3       12 UNK         0.1400 
     71 CB          1.3615  -23.1075  -43.1835 C.3       12 UNK        -0.1800 
     72 C          -0.3221  -24.6829  -44.2351 C.2       12 UNK         0.5000 
     73 O          -0.5376  -25.7293  -43.6231 O.2       12 UNK        -0.5000 
     74 N          -0.2849  -24.5974  -45.5709 N.am      13 UNK        -0.5000 
     75 CA         -0.5600  -25.6951  -46.4991 C.3       13 UNK         0.1400 
     76 CB          0.1214  -25.3825  -47.8415 C.3       13 UNK        -0.1800 
     77 C          -2.0647  -25.9677  -46.7128 C.2       13 UNK         0.5000 
     78 O          -2.3983  -26.8790  -47.4719 O.2       13 UNK        -0.5000 
     79 N          -2.9466  -25.1689  -46.0894 N.am      14 UNK        -0.5000 
     80 CA         -4.4095  -25.1905  -46.2181 C.3       14 UNK         0.1400 
     81 CB         -4.9941  -26.4643  -45.5739 C.3       14 UNK        -0.1800 
     82 C          -4.8707  -24.9792  -47.6762 C.2       14 UNK         0.5000 
     83 O          -5.7502  -25.6899  -48.1652 O.2       14 UNK        -0.5000 
     84 N          -4.2077  -24.0324  -48.3554 N.am      15 UNK        -0.5000 
     85 CA         -4.3117  -23.6619  -49.7701 C.3       15 UNK         0.1400 
     86 CB         -5.7506  -23.2447  -50.1401 C.3       15 UNK        -0.1800 
     87 C          -3.7502  -24.7111  -50.7515 C.2       15 UNK         0.5000 
     88 O          -3.7571  -24.4572  -51.9553 O.2       15 UNK        -0.5000 
     89 N          -3.2917  -25.8710  -50.2521 N.am      16 UNK        -0.5000 
     90 CA         -2.7479  -27.0156  -50.9994 C.3       16 UNK         0.1400 
     91 CB         -1.3834  -26.6423  -51.6154 C.3       16 UNK        -0.1800 
     92 C          -3.7149  -27.6057  -52.0548 C.2       16 UNK         0.5000 
     93 O          -3.2692  -28.3067  -52.9647 O.2       16 UNK        -0.5000 
     94 N          -5.0129  -27.2838  -51.9297 N.am      17 UNK        -0.5000 
     95 CA         -6.0914  -27.5054  -52.8997 C.3       17 UNK         0.1400 
     96 CB         -6.4029  -29.0106  -53.0356 C.3       17 UNK        -0.1800 
     97 C          -5.8487  -26.8151  -54.2649 C.2       17 UNK         0.5000 
     98 O          -6.3726  -27.2776  -55.2804 O.2       17 UNK        -0.5000 
     99 N          -5.0635  -25.7285  -54.2743 N.am      18 UNK        -0.5000 
    100 CA        -4.6721  -24.9809  -55.4655 C.3       18 UNK         0.1400 
    101 CB        -3.1420  -24.8278  -55.4626 C.3       18 UNK        -0.1800 
    102 C         -5.3358  -23.5962  -55.4749 C.2       18 UNK         0.5000 
    103 O         -5.5258  -22.9891  -54.4190 O.2       18 UNK        -0.5000 
    104 N         -5.6234  -23.0922  -56.6815 N.am      19 UNK        -0.5000 
    105 CA        -6.1639  -21.7486  -56.9151 C.3       19 UNK         0.1400 
    106 CB        -6.8030  -21.7088  -58.3122 C.3       19 UNK        -0.1800 
    107 C         -5.1042  -20.6352  -56.7753 C.2       19 UNK         0.5000 
    108 O         -5.4664  -19.4674  -56.6335 O.2       19 UNK        -0.5000 
    109 N         -3.8185  -21.0124  -56.8189 N.am      20 UNK        -0.5000 
    110 CA        -2.6607  -20.1228  -56.6990 C.3       20 UNK         0.1400 
    111 CB        -1.4309  -20.8508  -57.2655 C.3       20 UNK        -0.1800 
    112 C         -2.3845  -19.6385  -55.2597 C.2       20 UNK         0.5000 
    113 O         -1.5283  -18.7705  -55.0753 O.2       20 UNK        -0.5000 
    114 N         -3.0856  -20.2096  -54.2687 N.am      21 UNK        -0.5000 
    115 CA        -2.9871  -19.8889  -52.8445 C.3       21 UNK         0.1400 
    116 CB        -4.0196  -20.7268  -52.0793 C.3       21 UNK        -0.1800 
    117 C         -3.1827  -18.3878  -52.5596 C.2       21 UNK         0.5000 
    118 O         -4.2233  -17.8311  -52.9160 O.2       21 UNK        -0.5000 
    119 N         -2.1616  -17.7724  -51.9508 N.am      22 UNK        -0.5000 
    120 CA        -2.0594  -16.3300  -51.6632 C.3       22 UNK         0.1400 
    121 C         -1.8862  -15.4260  -52.9243 C.2       22 UNK         0.5000 
    122 N         -1.6132  -15.9645  -54.1076 N.am      22 UNK        -0.7600 
    123 O         -1.9630  -14.2043  -52.8266 O.2       22 UNK        -0.5000 
    124 C124       -3.1701  -15.8060  -50.7074 C.3       23 UNK        -0.0398 
    125 S125       -3.2038  -16.6876  -49.1125 S.3       23 UNK        -0.2404 
    126 C126       -4.6463  -15.9057  -48.3326 C.3       23 UNK        -0.0205 
    127 H127        1.2366  -18.3253  -40.9538 H         1 UNK         0.0600 
    128 H128        0.0203  -19.3846  -41.6713 H         1 UNK         0.0600 
    129 H129       -0.0599  -18.9834  -39.9528 H         1 UNK         0.0600 
    130 H130        0.9051  -16.1637  -41.5318 H         1 UNK         0.3000 
    131 H131       -1.6888  -14.9209  -41.3322 H         1 UNK         0.0600 
    132 H132       -0.2802  -15.0313  -44.0596 H         1 UNK         0.0800 
    133 H133       -1.7368  -15.8995  -43.6860 H         1 UNK         0.0800 
    134 H134       -3.9867  -14.3629  -42.6262 H         1 UNK         0.0800 
    135 H135       -4.5308  -13.2445  -43.8518 H         1 UNK         0.0800 
    136 H136       -4.0056  -14.0932  -46.3964 H         1 UNK         0.1150 
    137 H137       -5.2349  -18.1635  -46.9325 H         1 UNK         0.1150 
    138 H138       -4.5845  -16.6213  -42.9842 H         1 UNK         0.1150 
    139 H139       -6.2319  -18.8107  -43.7414 H         1 UNK         0.0800 
    140 H140       -5.4913  -19.6255  -45.0960 H         1 UNK         0.0800 
    141 H141       -1.6423  -19.4422  -43.6437 H         1 UNK         0.0800 
    142 H142       -2.5519  -18.6367  -44.8761 H         1 UNK         0.0800 
    143 H143       -3.4275  -20.9804  -45.5859 H         1 UNK         0.0600 
    144 H144       -1.0273  -19.6944  -46.3330 H         1 UNK         0.3000 
    145 H145       -0.2007  -21.9471  -49.0119 H         1 UNK         0.0600 
    146 H146       -0.2487  -19.8171  -50.2399 H         1 UNK         0.0600 
    147 H147       -1.8938  -20.2950  -49.8455 H         1 UNK         0.0600 
    148 H148       -1.1080  -19.0235  -48.9209 H         1 UNK         0.0600 
    149 H149        1.1495  -19.6409  -48.0771 H         1 UNK         0.3000 
    150 H150        3.1869  -21.2954  -45.5980 H         1 UNK         0.0600 
    151 H151        4.2500  -21.5902  -47.8467 H         1 UNK         0.0600 
    152 H152        4.9240  -20.2171  -46.9828 H         1 UNK         0.0600 
    153 H153        3.7721  -19.9556  -48.2909 H         1 UNK         0.0600 
    154 H154        3.0926  -18.5714  -46.3341 H         1 UNK         0.3000 
    155 H155        0.5589  -17.5355  -43.9982 H         1 UNK         0.0600 
    156 H156        2.7623  -17.5571  -42.8384 H         1 UNK         0.0600 
    157 H157        2.4278  -15.9623  -43.5010 H         1 UNK         0.0600 
    158 H158        3.5673  -17.0336  -44.3098 H         1 UNK         0.0600 
    159 H159        1.9378  -16.0499  -45.9840 H         1 UNK         0.3000 
    160 H160       -0.3691  -16.5882  -48.6612 H         1 UNK         0.0600 
    161 H161        0.2931  -14.1474  -46.9227 H         1 UNK         0.0600 
    162 H162       -1.3170  -14.7579  -47.2679 H         1 UNK         0.0600 
    163 H163       -0.3358  -14.1052  -48.5705 H         1 UNK         0.0600 
    164 H164        2.1155  -15.1453  -48.3254 H         1 UNK         0.3000 
    165 H165        4.1895  -17.7542  -49.6189 H         1 UNK         0.0600 
    166 H166        4.7416  -16.0026  -51.2836 H         1 UNK         0.0600 
    167 H167        3.1718  -16.7013  -51.6469 H         1 UNK         0.0600 
    168 H168        3.2685  -15.1168  -50.8876 H         1 UNK         0.0600 
    169 H169        4.7375  -15.0508  -48.8911 H         1 UNK         0.3000 
    170 H170        5.2090  -15.5228  -45.4116 H         1 UNK         0.0600 
    171 H171        7.3452  -16.4003  -46.3699 H         1 UNK         0.0600 
    172 H172        7.3161  -15.1516  -47.6093 H         1 UNK         0.0600 
    173 H173        7.4974  -14.7124  -45.9102 H         1 UNK         0.0600 
    174 H174        5.7438  -13.2915  -47.0589 H         1 UNK         0.3000 
    175 H175        4.4283  -11.4526  -46.8734 H         1 UNK         0.0600 
    176 H176        2.2385  -12.5517  -48.7306 H         1 UNK         0.0600 
    177 H177        3.0042  -10.9690  -48.8645 H         1 UNK         0.0600 
    178 H178        3.9463  -12.4245  -49.1356 H         1 UNK         0.0600 
    179 H179        1.5727  -11.2583  -46.7615 H         1 UNK         0.3000 
    180 H180        1.4038   -9.4776  -44.1799 H         1 UNK         0.0600 
    181 H181       -0.9407  -10.3345  -44.6620 H         1 UNK         0.0600 
    182 H182       -0.2420  -11.7484  -45.4413 H         1 UNK         0.0600 
    183 H183        0.0155  -10.1382  -46.1147 H         1 UNK         0.0600 
    184 H184        1.4380  -12.0872  -42.9123 H         1 UNK         0.3000 
    185 H185        1.3054  -11.7418  -40.3861 H         1 UNK         0.0600 
    186 H186       -1.4670  -10.5655  -39.8157 H         1 UNK         0.0600 
    187 H187       -0.4701  -11.4628  -38.6712 H         1 UNK         0.0600 
    188 H188        0.0683   -9.9016  -39.2670 H         1 UNK         0.0600 
    189 H189       -1.4139  -12.7401  -40.9312 H         1 UNK         0.3000 
    190 H190       -0.0682  -21.4566  -44.3762 H         1 UNK         0.3000 
    191 H191       -0.6315  -23.4812  -42.4906 H         1 UNK         0.0600 
    192 H192        1.9178  -22.9616  -44.1096 H         1 UNK         0.0600 
    193 H193        1.5013  -22.2196  -42.5665 H         1 UNK         0.0600 
    194 H194        1.8161  -23.9465  -42.6553 H         1 UNK         0.0600 
    195 H195       -0.0273  -23.7094  -45.9907 H         1 UNK         0.3000 
    196 H196       -0.1185  -26.6103  -46.0999 H         1 UNK         0.0600 
    197 H197        1.1897  -25.2092  -47.7114 H         1 UNK         0.0600 
    198 H198       -0.3070  -24.4969  -48.3124 H         1 UNK         0.0600 
    199 H199        0.0127  -26.2130  -48.5395 H         1 UNK         0.0600 
    200 H200       -2.5823  -24.4304  -45.4985 H         1 UNK         0.3000 
    201 H201       -4.7807  -24.3341  -45.6535 H         1 UNK         0.0600 
    202 H202       -6.0841  -26.4301  -45.5614 H         1 UNK         0.0600 
    203 H203       -4.6615  -26.5702  -44.5413 H         1 UNK         0.0600 
    204 H204       -4.7016  -27.3648  -46.1146 H         1 UNK         0.0600 
    205 H205       -3.4685  -23.5321  -47.8612 H         1 UNK         0.3000 
    206 H206       -3.6754  -22.7838  -49.8842 H         1 UNK         0.0600 
    207 H207       -6.1155  -22.4599  -49.4777 H         1 UNK         0.0600 
    208 H208       -6.4471  -24.0813  -50.0879 H         1 UNK         0.0600 
    209 H209       -5.7991  -22.8569  -51.1581 H         1 UNK         0.0600 
    210 H210       -3.3276  -26.0016  -49.2479 H         1 UNK         0.3000 
    211 H211       -2.5788  -27.8044  -50.2652 H         1 UNK         0.0600 
    212 H212       -0.7151  -26.2151  -50.8685 H         1 UNK         0.0600 
    213 H213       -0.8857  -27.5198  -52.0294 H         1 UNK         0.0600 
    214 H214       -1.4905  -25.9165  -52.4224 H         1 UNK         0.0600 
    215 H215       -5.2606  -26.7132  -51.1334 H         1 UNK         0.3000 
    216 H216       -6.9758  -27.0253  -52.4786 H         1 UNK         0.0600 
    217 H217       -7.3038  -29.1725  -53.6286 H         1 UNK         0.0600 
    218 H218       -5.5907  -29.5505  -53.5229 H         1 UNK         0.0600 
    219 H219       -6.5727  -29.4678  -52.0608 H         1 UNK         0.0600 
    220 H220       -4.7045  -25.3588  -53.3975 H         1 UNK         0.3000 
    221 H221       -4.9627  -25.5182  -56.3705 H         1 UNK         0.0600 
    222 H222       -2.7951  -24.2622  -54.5964 H         1 UNK         0.0600 
    223 H223       -2.6506  -25.8008  -55.4416 H         1 UNK         0.0600 
    224 H224       -2.7955  -24.3078  -56.3563 H         1 UNK         0.0600 
    225 H225       -5.4406  -23.6498  -57.5039 H         1 UNK         0.3000 
    226 H226       -6.9449  -21.5521  -56.1774 H         1 UNK         0.0600 
    227 H227       -7.5973  -22.4499  -58.4040 H         1 UNK         0.0600 
    228 H228       -7.2475  -20.7328  -58.5116 H         1 UNK         0.0600 
    229 H229       -6.0699  -21.9018  -59.0964 H         1 UNK         0.0600 
    230 H230       -3.6186  -21.9929  -56.9458 H         1 UNK         0.3000 
    231 H231       -2.8428  -19.2350  -57.3081 H         1 UNK         0.0600 
    232 H232       -0.5481  -20.2106  -57.2383 H         1 UNK         0.0600 
    233 H233       -1.5869  -21.1395  -58.3051 H         1 UNK         0.0600 
    234 H234       -1.2000  -21.7523  -56.6965 H         1 UNK         0.0600 
    235 H235       -3.7790  -20.8994  -54.5195 H         1 UNK         0.3000 
    236 H236       -1.9913  -20.1883  -52.5119 H         1 UNK         0.0600 
    237 H237       -3.9898  -20.5155  -51.0100 H         1 UNK         0.0600 
    238 H238       -5.0350  -20.5272  -52.4242 H         1 UNK         0.0600 
    239 H239       -3.8276  -21.7905  -52.2131 H         1 UNK         0.0600 
    240 H240       -1.3388  -18.3105  -51.7240 H         1 UNK         0.3000 
    241 H241       -1.1130  -16.2192  -51.1324 H         1 UNK         0.0600 
    242 H242       -1.4912  -15.3593  -54.9036 H         1 UNK         0.3800 
    243 H243       -1.5504  -16.9696  -54.2351 H         1 UNK         0.3800 
    244 H244       -3.0117  -14.7492  -50.4864 H         1 UNK         0.0800 
    245 H245       -4.1525  -15.8744  -51.1759 H         1 UNK         0.0800 
    246 H246       -4.6581  -14.8404  -48.5684 H         1 UNK         0.0800 
    247 H247       -5.5595  -16.3271  -48.7553 H         1 UNK         0.0800 
@<TRIPOS>BOND
     1    1    2 1    
     2    1  127 1    
     3    1  128 1    
     4    1  129 1    
     5    2    3 2    
     6    2    4 am   BACKBONE|DICT|INTERRES
     7    4    5 1    
     8    4  130 1    
     9    5    6 1    
    10    5   65 1    
    11    5  131 1    
    12    6    7 1    
    13    6  132 1    
    14    6  133 1    
    15    7    8 1    
    16    8    9 1    
    17    8  134 1    
    18    8  135 1    
    19    9   10 ar   
    20    9   14 ar   
    21   10   11 ar   
    22   10  136 1    
    23   11   12 ar   
    24   11  126 1    
    25   12   13 ar   
    26   12  137 1    
    27   13   14 ar   
    28   13   15 1    
    29   14  138 1    
    30   15   16 1    
    31   15  139 1    
    32   15  140 1    
    33   16   17 1    
    34   17   18 1    
    35   17  141 1    
    36   17  142 1    
    37   18   19 1    
    38   18   67 1    
    39   18  143 1    
    40   19   20 am   BACKBONE|DICT|INTERRES
    41   19  144 1    
    42   20   21 2    
    43   20   22 1    
    44   22   23 1    
    45   22   24 1    
    46   22  145 1    
    47   23  146 1    
    48   23  147 1    
    49   23  148 1    
    50   24   25 am   BACKBONE|DICT|INTERRES
    51   24  149 1    
    52   25   26 2    
    53   25   27 1    
    54   27   28 1    
    55   27   29 1    
    56   27  150 1    
    57   28  151 1    
    58   28  152 1    
    59   28  153 1    
    60   29   30 am   BACKBONE|DICT|INTERRES
    61   29  154 1    
    62   30   31 2    
    63   30   32 1    
    64   32   33 1    
    65   32   34 1    
    66   32  155 1    
    67   33  156 1    
    68   33  157 1    
    69   33  158 1    
    70   34   35 am   BACKBONE|DICT|INTERRES
    71   34  159 1    
    72   35   36 2    
    73   35   37 1    
    74   37   38 1    
    75   37   39 1    
    76   37  160 1    
    77   38  161 1    
    78   38  162 1    
    79   38  163 1    
    80   39   40 am   BACKBONE|DICT|INTERRES
    81   39  164 1    
    82   40   41 2    
    83   40   42 1    
    84   42   43 1    
    85   42   44 1    
    86   42  165 1    
    87   43  166 1    
    88   43  167 1    
    89   43  168 1    
    90   44   45 am   BACKBONE|DICT|INTERRES
    91   44  169 1    
    92   45   46 2    
    93   45   47 1    
    94   47   48 1    
    95   47   49 1    
    96   47  170 1    
    97   48  171 1    
    98   48  172 1    
    99   48  173 1    
   100   49   50 am   BACKBONE|DICT|INTERRES
   101   49  174 1    
   102   50   51 2    
   103   50   52 1    
   104   52   53 1    
   105   52   54 1    
   106   52  175 1    
   107   53  176 1    
   108   53  177 1    
   109   53  178 1    
   110   54   55 am   BACKBONE|DICT|INTERRES
   111   54  179 1    
   112   55   56 2    
   113   55   57 1    
   114   57   58 1    
   115   57   59 1    
   116   57  180 1    
   117   58  181 1    
   118   58  182 1    
   119   58  183 1    
   120   59   60 am   BACKBONE|DICT|INTERRES
   121   59  184 1    
   122   60   61 2    
   123   60   62 1    
   124   62   63 1    
   125   62   64 1    
   126   62  185 1    
   127   63  186 1    
   128   63  187 1    
   129   63  188 1    
   130   64   65 am   BACKBONE|DICT|INTERRES
   131   64  189 1    
   132   65   66 2    
   133   67   68 2    
   134   67   69 am   BACKBONE|DICT|INTERRES
   135   69   70 1    
   136   69  190 1    
   137   70   71 1    
   138   70   72 1    
   139   70  191 1    
   140   71  192 1    
   141   71  193 1    
   142   71  194 1    
   143   72   73 2    
   144   72   74 am   BACKBONE|DICT|INTERRES
   145   74   75 1    
   146   74  195 1    
   147   75   76 1    
   148   75   77 1    
   149   75  196 1    
   150   76  197 1    
   151   76  198 1    
   152   76  199 1    
   153   77   78 2    
   154   77   79 am   BACKBONE|DICT|INTERRES
   155   79   80 1    
   156   79  200 1    
   157   80   81 1    
   158   80   82 1    
   159   80  201 1    
   160   81  202 1    
   161   81  203 1    
   162   81  204 1    
   163   82   83 2    
   164   82   84 am   BACKBONE|DICT|INTERRES
   165   84   85 1    
   166   84  205 1    
   167   85   86 1    
   168   85   87 1    
   169   85  206 1    
   170   86  207 1    
   171   86  208 1    
   172   86  209 1    
   173   87   88 2    
   174   87   89 am   BACKBONE|DICT|INTERRES
   175   89   90 1    
   176   89  210 1    
   177   90   91 1    
   178   90   92 1    
   179   90  211 1    
   180   91  212 1    
   181   91  213 1    
   182   91  214 1    
   183   92   93 2    
   184   92   94 am   BACKBONE|DICT|INTERRES
   185   94   95 1    
   186   94  215 1    
   187   95   96 1    
   188   95   97 1    
   189   95  216 1    
   190   96  217 1    
   191   96  218 1    
   192   96  219 1    
   193   97   98 2    
   194   97   99 am   BACKBONE|DICT|INTERRES
   195   99  100 1    
   196   99  220 1    
   197  100  101 1    
   198  100  102 1    
   199  100  221 1    
   200  101  222 1    
   201  101  223 1    
   202  101  224 1    
   203  102  103 2    
   204  102  104 am   BACKBONE|DICT|INTERRES
   205  104  105 1    
   206  104  225 1    
   207  105  106 1    
   208  105  107 1    
   209  105  226 1    
   210  106  227 1    
   211  106  228 1    
   212  106  229 1    
   213  107  108 2    
   214  107  109 am   BACKBONE|DICT|INTERRES
   215  109  110 1    
   216  109  230 1    
   217  110  111 1    
   218  110  112 1    
   219  110  231 1    
   220  111  232 1    
   221  111  233 1    
   222  111  234 1    
   223  112  113 2    
   224  112  114 am   BACKBONE|DICT|INTERRES
   225  114  115 1    
   226  114  235 1    
   227  115  116 1    
   228  115  117 1    
   229  115  236 1    
   230  116  237 1    
   231  116  238 1    
   232  116  239 1    
   233  117  118 2    
   234  117  119 am   BACKBONE|DICT|INTERRES
   235  119  120 1    
   236  119  240 1    
   237  120  121 1    
   238  120  124 1    
   239  120  241 1    
   240  121  122 am   BACKBONE|DICT|INTERRES
   241  121  123 2    
   242  122  242 1    
   243  122  243 1    
   244  124  125 1    
   245  124  244 1    
   246  124  245 1    
   247  125  126 1    
   248  126  246 1    
   249  126  247 1    
@<TRIPOS>SUBSTRUCTURE
     1 UNK         1 GROUP             0       ****    0 ROOT    
