@<TRIPOS>MOLECULE
3R540
247   249    1
SMALL
USER_CHARGES


@<TRIPOS>ATOM
      1 CA         -6.1572  -10.8223  -49.1661 C.3       0 UNK        -0.1800 
      2 C          -4.9146  -11.6335  -48.8299 C.2       0 UNK         0.5000 
      3 O          -4.1844  -11.2798  -47.9048 O.2       0 UNK        -0.5000 
      4 N          -4.6784  -12.7292  -49.5659 N.am      1 UNK        -0.5000 
      5 CA         -3.5253  -13.6290  -49.4106 C.3       1 UNK         0.1400 
      6 C6         -3.4861  -14.6861  -50.5443 C.3       23 UNK        -0.0398 
      7 S7         -1.8346  -15.4192  -50.8173 S.3       23 UNK        -0.2404 
      8 C8         -2.0348  -16.9733  -49.9007 C.3       23 UNK        -0.0205 
      9 C9         -0.8013  -17.8537  -49.9624 C.ar      23 UNK        -0.0193 
     10 C10        -0.7074  -18.8595  -50.9248 C.ar      23 UNK        -0.1150 
     11 C11         0.4111  -19.6950  -50.9726 C.ar      23 UNK        -0.0193 
     12 C12         1.4314  -19.5313  -50.0303 C.ar      23 UNK        -0.1150 
     13 C13         1.3425  -18.5339  -49.0531 C.ar      23 UNK        -0.0193 
     14 C14         0.2268  -17.6924  -49.0311 C.ar      23 UNK        -0.1150 
     15 C15         2.4571  -18.3590  -48.0321 C.3       23 UNK        -0.0205 
     16 S16         2.2297  -19.4317  -46.5773 S.3       23 UNK        -0.2404 
     17 C17         0.9179  -18.5629  -45.6516 C.3       23 UNK        -0.0398 
     18 CA         -0.4153  -19.3474  -45.6304 C.3       11 UNK         0.1400 
     19 N          -0.2571  -20.6738  -45.0191 N.am      11 UNK        -0.5000 
     20 C          -1.2186  -21.5927  -44.8565 C.2       10 UNK         0.5000 
     21 O          -2.3771  -21.4404  -45.2435 O.2       10 UNK        -0.5000 
     22 CA         -0.8479  -22.8745  -44.0888 C.3       10 UNK         0.1400 
     23 CB         -0.4996  -24.0013  -45.0720 C.3       10 UNK        -0.1800 
     24 N           0.2518  -22.7283  -43.1304 N.am      10 UNK        -0.5000 
     25 C           0.3320  -21.8580  -42.1154 C.2       9 UNK         0.5000 
     26 O          -0.4994  -20.9716  -41.9141 O.2       9 UNK        -0.5000 
     27 CA          1.5529  -21.9678  -41.1779 C.3       9 UNK         0.1400 
     28 CB          1.2170  -22.8167  -39.9380 C.3       9 UNK        -0.1800 
     29 N           2.8029  -22.4221  -41.8084 N.am      9 UNK        -0.5000 
     30 C           3.1083  -23.6157  -42.3443 C.2       8 UNK         0.5000 
     31 O           2.3106  -24.5500  -42.4235 O.2       8 UNK        -0.5000 
     32 CA          4.5233  -23.7959  -42.9344 C.3       8 UNK         0.1400 
     33 CB          4.4595  -23.7823  -44.4702 C.3       8 UNK        -0.1800 
     34 N           5.4753  -22.7730  -42.5007 N.am      8 UNK        -0.5000 
     35 C           6.0099  -22.6787  -41.2749 C.2       7 UNK         0.5000 
     36 O           5.8320  -23.5119  -40.3860 O.2       7 UNK        -0.5000 
     37 CA          6.8614  -21.4233  -40.9851 C.3       7 UNK         0.1400 
     38 CB          8.3578  -21.7490  -41.1090 C.3       7 UNK        -0.1800 
     39 N           6.5493  -20.2752  -41.8477 N.am      7 UNK        -0.5000 
     40 C           5.3622  -19.6571  -41.9029 C.2       6 UNK         0.5000 
     41 O           4.3854  -19.9907  -41.2251 O.2       6 UNK        -0.5000 
     42 CA          5.2218  -18.5243  -42.9281 C.3       6 UNK         0.1400 
     43 CB          5.2192  -19.0870  -44.3628 C.3       6 UNK        -0.1800 
     44 N           3.9668  -17.8325  -42.6593 N.am      6 UNK        -0.5000 
     45 C           3.6276  -16.6179  -43.0925 C.2       5 UNK         0.5000 
     46 O           4.3488  -15.9084  -43.7996 O.2       5 UNK        -0.5000 
     47 CA          2.2502  -16.1079  -42.6500 C.3       5 UNK         0.1400 
     48 CB          2.3020  -15.5037  -41.2368 C.3       5 UNK        -0.1800 
     49 N           1.8086  -15.0970  -43.6016 N.am      5 UNK        -0.5000 
     50 C           0.5432  -14.8738  -43.9613 C.2       4 UNK         0.5000 
     51 O          -0.4182  -15.4831  -43.4888 O.2       4 UNK        -0.5000 
     52 CA          0.3406  -13.8232  -45.0697 C.3       4 UNK         0.1400 
     53 CB          0.6610  -14.4352  -46.4423 C.3       4 UNK        -0.1800 
     54 N          -1.0226  -13.2934  -45.0930 N.am      4 UNK        -0.5000 
     55 C          -1.5416  -12.4795  -44.1610 C.2       3 UNK         0.5000 
     56 O          -0.8873  -12.0229  -43.2219 O.2       3 UNK        -0.5000 
     57 CA         -3.0291  -12.0852  -44.2941 C.3       3 UNK         0.1400 
     58 CB         -3.1583  -10.6333  -44.7795 C.3       3 UNK        -0.1800 
     59 N          -3.7819  -12.9575  -45.1970 N.am      3 UNK        -0.5000 
     60 C          -4.1478  -14.2147  -44.9045 C.2       2 UNK         0.5000 
     61 O          -4.0055  -14.7104  -43.7876 O.2       2 UNK        -0.5000 
     62 CA         -4.7701  -15.0691  -46.0333 C.3       2 UNK         0.1400 
     63 CB         -6.2625  -15.3157  -45.7621 C.3       2 UNK        -0.1800 
     64 N          -4.6227  -14.5132  -47.3837 N.am      2 UNK        -0.5000 
     65 C          -3.4587  -14.2828  -48.0100 C.2       1 UNK         0.5000 
     66 O          -2.3642  -14.5122  -47.4993 O.2       1 UNK        -0.5000 
     67 C          -1.5206  -18.4984  -44.9608 C.2       11 UNK         0.5000 
     68 O          -2.1816  -17.7259  -45.6536 O.2       11 UNK        -0.5000 
     69 N          -1.7542  -18.7035  -43.6541 N.am      12 UNK        -0.5000 
     70 CA         -2.8263  -18.0573  -42.8903 C.3       12 UNK         0.1400 
     71 CB         -2.5811  -18.2892  -41.3921 C.3       12 UNK        -0.1800 
     72 C          -4.2408  -18.5328  -43.2894 C.2       12 UNK         0.5000 
     73 O          -5.2123  -17.8166  -43.0505 O.2       12 UNK        -0.5000 
     74 N          -4.3317  -19.7168  -43.9096 N.am      13 UNK        -0.5000 
     75 CA         -5.5393  -20.2805  -44.5171 C.3       13 UNK         0.1400 
     76 CB         -5.6755  -21.7454  -44.0654 C.3       13 UNK        -0.1800 
     77 C          -5.4827  -20.1640  -46.0558 C.2       13 UNK         0.5000 
     78 O          -6.1678  -20.9118  -46.7560 O.2       13 UNK        -0.5000 
     79 N          -4.6246  -19.2624  -46.5580 N.am      14 UNK        -0.5000 
     80 CA         -4.3091  -18.9952  -47.9635 C.3       14 UNK         0.1400 
     81 CB         -5.5274  -18.4012  -48.6996 C.3       14 UNK        -0.1800 
     82 C          -3.6857  -20.1912  -48.7148 C.2       14 UNK         0.5000 
     83 O          -3.6924  -20.2034  -49.9442 O.2       14 UNK        -0.5000 
     84 N          -3.1729  -21.1795  -47.9667 N.am      15 UNK        -0.5000 
     85 CA         -2.6610  -22.4724  -48.4271 C.3       15 UNK         0.1400 
     86 CB         -1.3637  -22.2859  -49.2345 C.3       15 UNK        -0.1800 
     87 C          -3.7224  -23.3345  -49.1484 C.2       15 UNK         0.5000 
     88 O          -3.3677  -24.2111  -49.9391 O.2       15 UNK        -0.5000 
     89 N          -5.0068  -23.0851  -48.8433 N.am      16 UNK        -0.5000 
     90 CA         -6.1938  -23.7427  -49.3918 C.3       16 UNK         0.1400 
     91 CB         -6.3276  -25.1663  -48.8056 C.3       16 UNK        -0.1800 
     92 C          -6.2251  -23.6836  -50.9352 C.2       16 UNK         0.5000 
     93 O          -6.2651  -22.5883  -51.4976 O.2       16 UNK        -0.5000 
     94 N          -6.1924  -24.8494  -51.5944 N.am      17 UNK        -0.5000 
     95 CA         -6.2205  -25.0007  -53.0503 C.3       17 UNK         0.1400 
     96 CB         -6.4124  -26.4864  -53.3907 C.3       17 UNK        -0.1800 
     97 C          -4.9781  -24.4412  -53.7712 C.2       17 UNK         0.5000 
     98 O          -5.0695  -24.1224  -54.9578 O.2       17 UNK        -0.5000 
     99 N          -3.8479  -24.3056  -53.0593 N.am      18 UNK        -0.5000 
    100 CA        -2.5954  -23.7758  -53.6058 C.3       18 UNK         0.1400 
    101 CB        -1.4281  -24.1141  -52.6699 C.3       18 UNK        -0.1800 
    102 C         -2.6390  -22.2663  -53.9110 C.2       18 UNK         0.5000 
    103 O         -1.7527  -21.7791  -54.6125 O.2       18 UNK        -0.5000 
    104 N         -3.6758  -21.5531  -53.4431 N.am      19 UNK        -0.5000 
    105 CA        -3.9525  -20.1517  -53.7761 C.3       19 UNK         0.1400 
    106 CB        -5.2478  -19.7081  -53.0802 C.3       19 UNK        -0.1800 
    107 C         -4.0613  -19.8945  -55.2928 C.2       19 UNK         0.5000 
    108 O         -3.6493  -18.8333  -55.7598 O.2       19 UNK        -0.5000 
    109 N         -4.5653  -20.8885  -56.0389 N.am      20 UNK        -0.5000 
    110 CA        -4.6536  -20.8738  -57.4991 C.3       20 UNK         0.1400 
    111 CB        -5.5451  -22.0397  -57.9529 C.3       20 UNK        -0.1800 
    112 C         -3.2813  -20.9402  -58.2008 C.2       20 UNK         0.5000 
    113 O         -3.1641  -20.4649  -59.3310 O.2       20 UNK        -0.5000 
    114 N         -2.2761  -21.5218  -57.5318 N.am      21 UNK        -0.5000 
    115 CA        -0.8987  -21.6013  -58.0139 C.3       21 UNK         0.1400 
    116 CB        -0.2520  -22.9038  -57.5144 C.3       21 UNK        -0.1800 
    117 C         -0.0865  -20.3757  -57.5649 C.2       21 UNK         0.5000 
    118 O          0.6404  -19.8019  -58.3773 O.2       21 UNK        -0.5000 
    119 N         -0.2249  -19.9966  -56.2874 N.am      22 UNK        -0.5000 
    120 CA         0.4542  -18.8373  -55.6871 C.3       22 UNK         0.1400 
    121 C         -0.0724  -17.4593  -56.1803 C.2       22 UNK         0.5000 
    122 N         -1.3408  -17.3189  -56.5436 N.am      22 UNK        -0.7600 
    123 O          0.6904  -16.4990  -56.2429 O.2       22 UNK        -0.5000 
    124 C124        0.4440  -18.8994  -54.1406 C.3       23 UNK        -0.0398 
    125 S125        1.4554  -20.2719  -53.4859 S.3       23 UNK        -0.2404 
    126 C126        0.4978  -20.7890  -52.0264 C.3       23 UNK        -0.0205 
    127 H127       -6.7121  -11.2554  -49.9986 H         1 UNK         0.0600 
    128 H128       -5.8776   -9.8041  -49.4364 H         1 UNK         0.0600 
    129 H129       -6.8199  -10.7769  -48.3019 H         1 UNK         0.0600 
    130 H130       -5.3221  -12.9637  -50.3084 H         1 UNK         0.3000 
    131 H131       -2.6366  -13.0012  -49.5064 H         1 UNK         0.0600 
    132 H132       -3.7609  -14.2151  -51.4892 H         1 UNK         0.0800 
    133 H133       -4.2308  -15.4678  -50.3831 H         1 UNK         0.0800 
    134 H134       -2.8977  -17.5139  -50.2913 H         1 UNK         0.0800 
    135 H135       -2.2459  -16.7404  -48.8590 H         1 UNK         0.0800 
    136 H136       -1.5143  -18.9975  -51.6297 H         1 UNK         0.1150 
    137 H137        2.2937  -20.1827  -50.0562 H         1 UNK         0.1150 
    138 H138        0.1498  -16.9148  -48.2861 H         1 UNK         0.1150 
    139 H139        3.4142  -18.6024  -48.4958 H         1 UNK         0.0800 
    140 H140        2.5333  -17.3166  -47.7184 H         1 UNK         0.0800 
    141 H141        0.7755  -17.5684  -46.0754 H         1 UNK         0.0800 
    142 H142        1.2784  -18.4038  -44.6346 H         1 UNK         0.0800 
    143 H143       -0.7285  -19.5114  -46.6640 H         1 UNK         0.0600 
    144 H144        0.6671  -20.8961  -44.6802 H         1 UNK         0.3000 
    145 H145       -1.7305  -23.1749  -43.5211 H         1 UNK         0.0600 
    146 H146       -0.2875  -24.9324  -44.5461 H         1 UNK         0.0600 
    147 H147       -1.3281  -24.1988  -45.7525 H         1 UNK         0.0600 
    148 H148        0.3736  -23.7516  -45.6764 H         1 UNK         0.0600 
    149 H149        0.9694  -23.4468  -43.1579 H         1 UNK         0.3000 
    150 H150        1.7578  -20.9543  -40.8296 H         1 UNK         0.0600 
    151 H151        0.3567  -22.4065  -39.4076 H         1 UNK         0.0600 
    152 H152        2.0517  -22.8362  -39.2370 H         1 UNK         0.0600 
    153 H153        0.9750  -23.8467  -40.2012 H         1 UNK         0.0600 
    154 H154        3.5358  -21.7208  -41.7948 H         1 UNK         0.3000 
    155 H155        4.8920  -24.7720  -42.6124 H         1 UNK         0.0600 
    156 H156        4.1004  -22.8248  -44.8504 H         1 UNK         0.0600 
    157 H157        3.7858  -24.5557  -44.8419 H         1 UNK         0.0600 
    158 H158        5.4398  -23.9717  -44.9078 H         1 UNK         0.0600 
    159 H159        5.6971  -22.0514  -43.1700 H         1 UNK         0.3000 
    160 H160        6.6597  -21.1276  -39.9534 H         1 UNK         0.0600 
    161 H161        8.6256  -22.0275  -42.1290 H         1 UNK         0.0600 
    162 H162        8.6324  -22.5808  -40.4588 H         1 UNK         0.0600 
    163 H163        8.9730  -20.8967  -40.8197 H         1 UNK         0.0600 
    164 H164        7.2979  -19.9486  -42.4421 H         1 UNK         0.3000 
    165 H165        6.0540  -17.8296  -42.7976 H         1 UNK         0.0600 
    166 H166        5.0709  -18.3000  -45.1024 H         1 UNK         0.0600 
    167 H167        6.1663  -19.5724  -44.5997 H         1 UNK         0.0600 
    168 H168        4.4284  -19.8252  -44.5004 H         1 UNK         0.0600 
    169 H169        3.3607  -18.3403  -42.0257 H         1 UNK         0.3000 
    170 H170        1.5559  -16.9510  -42.6562 H         1 UNK         0.0600 
    171 H171        2.9898  -14.6588  -41.1866 H         1 UNK         0.0600 
    172 H172        1.3185  -15.1537  -40.9224 H         1 UNK         0.0600 
    173 H173        2.6324  -16.2423  -40.5055 H         1 UNK         0.0600 
    174 H174        2.5659  -14.6177  -44.0731 H         1 UNK         0.3000 
    175 H175        1.0262  -12.9925  -44.8895 H         1 UNK         0.0600 
    176 H176        0.0170  -15.2893  -46.6504 H         1 UNK         0.0600 
    177 H177        0.5220  -13.7090  -47.2435 H         1 UNK         0.0600 
    178 H178        1.6937  -14.7823  -46.4924 H         1 UNK         0.0600 
    179 H179       -1.6277  -13.6582  -45.8216 H         1 UNK         0.3000 
    180 H180       -3.4758  -12.1503  -43.2998 H         1 UNK         0.0600 
    181 H181       -4.2033  -10.3339  -44.8616 H         1 UNK         0.0600 
    182 H182       -2.6910  -10.4937  -45.7550 H         1 UNK         0.0600 
    183 H183       -2.6762   -9.9447  -44.0845 H         1 UNK         0.0600 
    184 H184       -3.9377  -12.6058  -46.1342 H         1 UNK         0.3000 
    185 H185       -4.2591  -16.0334  -46.0189 H         1 UNK         0.0600 
    186 H186       -6.6970  -15.9872  -46.5020 H         1 UNK         0.0600 
    187 H187       -6.4106  -15.7771  -44.7846 H         1 UNK         0.0600 
    188 H188       -6.8313  -14.3853  -45.7758 H         1 UNK         0.0600 
    189 H189       -5.4760  -14.2569  -47.8583 H         1 UNK         0.3000 
    190 H190       -1.2017  -19.3920  -43.1543 H         1 UNK         0.3000 
    191 H191       -2.7736  -16.9840  -43.0811 H         1 UNK         0.0600 
    192 H192       -3.3308  -17.7745  -40.7899 H         1 UNK         0.0600 
    193 H193       -1.6048  -17.9095  -41.0899 H         1 UNK         0.0600 
    194 H194       -2.6244  -19.3487  -41.1370 H         1 UNK         0.0600 
    195 H195       -3.4787  -20.2333  -44.0979 H         1 UNK         0.3000 
    196 H196       -6.4251  -19.7362  -44.1848 H         1 UNK         0.0600 
    197 H197       -4.8494  -22.3578  -44.4287 H         1 UNK         0.0600 
    198 H198       -5.6955  -21.8214  -42.9782 H         1 UNK         0.0600 
    199 H199       -6.6008  -22.1877  -44.4367 H         1 UNK         0.0600 
    200 H200       -4.0710  -18.7279  -45.8993 H         1 UNK         0.3000 
    201 H201       -3.5385  -18.2309  -47.9308 H         1 UNK         0.0600 
    202 H202       -6.3343  -19.1279  -48.7963 H         1 UNK         0.0600 
    203 H203       -5.2619  -18.0765  -49.7061 H         1 UNK         0.0600 
    204 H204       -5.9184  -17.5306  -48.1750 H         1 UNK         0.0600 
    205 H205       -3.1786  -21.0707  -46.9569 H         1 UNK         0.3000 
    206 H206       -2.4033  -23.0270  -47.5257 H         1 UNK         0.0600 
    207 H207       -0.6445  -21.6738  -48.6895 H         1 UNK         0.0600 
    208 H208       -0.8850  -23.2442  -49.4369 H         1 UNK         0.0600 
    209 H209       -1.5588  -21.8008  -50.1899 H         1 UNK         0.0600 
    210 H210       -5.1975  -22.3221  -48.2044 H         1 UNK         0.3000 
    211 H211       -7.0515  -23.1623  -49.0491 H         1 UNK         0.0600 
    212 H212       -7.2440  -25.6502  -49.1462 H         1 UNK         0.0600 
    213 H213       -6.3732  -25.1324  -47.7169 H         1 UNK         0.0600 
    214 H214       -5.4874  -25.8064  -49.0771 H         1 UNK         0.0600 
    215 H215       -6.1321  -25.7007  -51.0551 H         1 UNK         0.3000 
    216 H216       -7.0859  -24.4505  -53.4255 H         1 UNK         0.0600 
    217 H217       -5.5865  -27.0939  -53.0184 H         1 UNK         0.0600 
    218 H218       -6.4698  -26.6365  -54.4697 H         1 UNK         0.0600 
    219 H219       -7.3363  -26.8743  -52.9613 H         1 UNK         0.0600 
    220 H220       -3.8510  -24.5389  -52.0726 H         1 UNK         0.3000 
    221 H221       -2.4086  -24.2813  -54.5556 H         1 UNK         0.0600 
    222 H222       -1.3721  -25.1850  -52.4747 H         1 UNK         0.0600 
    223 H223       -1.5231  -23.6026  -51.7157 H         1 UNK         0.0600 
    224 H224       -0.4759  -23.8116  -53.1079 H         1 UNK         0.0600 
    225 H225       -4.3560  -22.0164  -52.8542 H         1 UNK         0.3000 
    226 H226       -3.1270  -19.5502  -53.3921 H         1 UNK         0.0600 
    227 H227       -6.1069  -20.2846  -53.4258 H         1 UNK         0.0600 
    228 H228       -5.1839  -19.8300  -52.0003 H         1 UNK         0.0600 
    229 H229       -5.4562  -18.6554  -53.2750 H         1 UNK         0.0600 
    230 H230       -4.8603  -21.7389  -55.5772 H         1 UNK         0.3000 
    231 H231       -5.1322  -19.9395  -57.8002 H         1 UNK         0.0600 
    232 H232       -5.1251  -23.0032  -57.6610 H         1 UNK         0.0600 
    233 H233       -5.6600  -22.0457  -59.0376 H         1 UNK         0.0600 
    234 H234       -6.5433  -21.9648  -57.5212 H         1 UNK         0.0600 
    235 H235       -2.4345  -21.8279  -56.5803 H         1 UNK         0.3000 
    236 H236       -0.8935  -21.6281  -59.1058 H         1 UNK         0.0600 
    237 H237       -0.8111  -23.7757  -57.8540 H         1 UNK         0.0600 
    238 H238        0.7655  -23.0016  -57.8948 H         1 UNK         0.0600 
    239 H239       -0.1979  -22.9442  -56.4263 H         1 UNK         0.0600 
    240 H240       -0.8057  -20.5549  -55.6677 H         1 UNK         0.3000 
    241 H241        1.4988  -18.8824  -56.0024 H         1 UNK         0.0600 
    242 H242       -1.6584  -16.4199  -56.8681 H         1 UNK         0.3800 
    243 H243       -2.0199  -18.0626  -56.4124 H         1 UNK         0.3800 
    244 H244       -0.5834  -18.9940  -53.7883 H         1 UNK         0.0800 
    245 H245        0.8353  -17.9772  -53.7065 H         1 UNK         0.0800 
    246 H246       -0.5016  -21.0901  -52.3371 H         1 UNK         0.0800 
    247 H247        0.9605  -21.6778  -51.5953 H         1 UNK         0.0800 
@<TRIPOS>BOND
     1    1    2 1    
     2    1  127 1    
     3    1  128 1    
     4    1  129 1    
     5    2    3 2    
     6    2    4 am   BACKBONE|DICT|INTERRES
     7    4    5 1    
     8    4  130 1    
     9    5    6 1    
    10    5   65 1    
    11    5  131 1    
    12    6    7 1    
    13    6  132 1    
    14    6  133 1    
    15    7    8 1    
    16    8    9 1    
    17    8  134 1    
    18    8  135 1    
    19    9   10 ar   
    20    9   14 ar   
    21   10   11 ar   
    22   10  136 1    
    23   11   12 ar   
    24   11  126 1    
    25   12   13 ar   
    26   12  137 1    
    27   13   14 ar   
    28   13   15 1    
    29   14  138 1    
    30   15   16 1    
    31   15  139 1    
    32   15  140 1    
    33   16   17 1    
    34   17   18 1    
    35   17  141 1    
    36   17  142 1    
    37   18   19 1    
    38   18   67 1    
    39   18  143 1    
    40   19   20 am   BACKBONE|DICT|INTERRES
    41   19  144 1    
    42   20   21 2    
    43   20   22 1    
    44   22   23 1    
    45   22   24 1    
    46   22  145 1    
    47   23  146 1    
    48   23  147 1    
    49   23  148 1    
    50   24   25 am   BACKBONE|DICT|INTERRES
    51   24  149 1    
    52   25   26 2    
    53   25   27 1    
    54   27   28 1    
    55   27   29 1    
    56   27  150 1    
    57   28  151 1    
    58   28  152 1    
    59   28  153 1    
    60   29   30 am   BACKBONE|DICT|INTERRES
    61   29  154 1    
    62   30   31 2    
    63   30   32 1    
    64   32   33 1    
    65   32   34 1    
    66   32  155 1    
    67   33  156 1    
    68   33  157 1    
    69   33  158 1    
    70   34   35 am   BACKBONE|DICT|INTERRES
    71   34  159 1    
    72   35   36 2    
    73   35   37 1    
    74   37   38 1    
    75   37   39 1    
    76   37  160 1    
    77   38  161 1    
    78   38  162 1    
    79   38  163 1    
    80   39   40 am   BACKBONE|DICT|INTERRES
    81   39  164 1    
    82   40   41 2    
    83   40   42 1    
    84   42   43 1    
    85   42   44 1    
    86   42  165 1    
    87   43  166 1    
    88   43  167 1    
    89   43  168 1    
    90   44   45 am   BACKBONE|DICT|INTERRES
    91   44  169 1    
    92   45   46 2    
    93   45   47 1    
    94   47   48 1    
    95   47   49 1    
    96   47  170 1    
    97   48  171 1    
    98   48  172 1    
    99   48  173 1    
   100   49   50 am   BACKBONE|DICT|INTERRES
   101   49  174 1    
   102   50   51 2    
   103   50   52 1    
   104   52   53 1    
   105   52   54 1    
   106   52  175 1    
   107   53  176 1    
   108   53  177 1    
   109   53  178 1    
   110   54   55 am   BACKBONE|DICT|INTERRES
   111   54  179 1    
   112   55   56 2    
   113   55   57 1    
   114   57   58 1    
   115   57   59 1    
   116   57  180 1    
   117   58  181 1    
   118   58  182 1    
   119   58  183 1    
   120   59   60 am   BACKBONE|DICT|INTERRES
   121   59  184 1    
   122   60   61 2    
   123   60   62 1    
   124   62   63 1    
   125   62   64 1    
   126   62  185 1    
   127   63  186 1    
   128   63  187 1    
   129   63  188 1    
   130   64   65 am   BACKBONE|DICT|INTERRES
   131   64  189 1    
   132   65   66 2    
   133   67   68 2    
   134   67   69 am   BACKBONE|DICT|INTERRES
   135   69   70 1    
   136   69  190 1    
   137   70   71 1    
   138   70   72 1    
   139   70  191 1    
   140   71  192 1    
   141   71  193 1    
   142   71  194 1    
   143   72   73 2    
   144   72   74 am   BACKBONE|DICT|INTERRES
   145   74   75 1    
   146   74  195 1    
   147   75   76 1    
   148   75   77 1    
   149   75  196 1    
   150   76  197 1    
   151   76  198 1    
   152   76  199 1    
   153   77   78 2    
   154   77   79 am   BACKBONE|DICT|INTERRES
   155   79   80 1    
   156   79  200 1    
   157   80   81 1    
   158   80   82 1    
   159   80  201 1    
   160   81  202 1    
   161   81  203 1    
   162   81  204 1    
   163   82   83 2    
   164   82   84 am   BACKBONE|DICT|INTERRES
   165   84   85 1    
   166   84  205 1    
   167   85   86 1    
   168   85   87 1    
   169   85  206 1    
   170   86  207 1    
   171   86  208 1    
   172   86  209 1    
   173   87   88 2    
   174   87   89 am   BACKBONE|DICT|INTERRES
   175   89   90 1    
   176   89  210 1    
   177   90   91 1    
   178   90   92 1    
   179   90  211 1    
   180   91  212 1    
   181   91  213 1    
   182   91  214 1    
   183   92   93 2    
   184   92   94 am   BACKBONE|DICT|INTERRES
   185   94   95 1    
   186   94  215 1    
   187   95   96 1    
   188   95   97 1    
   189   95  216 1    
   190   96  217 1    
   191   96  218 1    
   192   96  219 1    
   193   97   98 2    
   194   97   99 am   BACKBONE|DICT|INTERRES
   195   99  100 1    
   196   99  220 1    
   197  100  101 1    
   198  100  102 1    
   199  100  221 1    
   200  101  222 1    
   201  101  223 1    
   202  101  224 1    
   203  102  103 2    
   204  102  104 am   BACKBONE|DICT|INTERRES
   205  104  105 1    
   206  104  225 1    
   207  105  106 1    
   208  105  107 1    
   209  105  226 1    
   210  106  227 1    
   211  106  228 1    
   212  106  229 1    
   213  107  108 2    
   214  107  109 am   BACKBONE|DICT|INTERRES
   215  109  110 1    
   216  109  230 1    
   217  110  111 1    
   218  110  112 1    
   219  110  231 1    
   220  111  232 1    
   221  111  233 1    
   222  111  234 1    
   223  112  113 2    
   224  112  114 am   BACKBONE|DICT|INTERRES
   225  114  115 1    
   226  114  235 1    
   227  115  116 1    
   228  115  117 1    
   229  115  236 1    
   230  116  237 1    
   231  116  238 1    
   232  116  239 1    
   233  117  118 2    
   234  117  119 am   BACKBONE|DICT|INTERRES
   235  119  120 1    
   236  119  240 1    
   237  120  121 1    
   238  120  124 1    
   239  120  241 1    
   240  121  122 am   BACKBONE|DICT|INTERRES
   241  121  123 2    
   242  122  242 1    
   243  122  243 1    
   244  124  125 1    
   245  124  244 1    
   246  124  245 1    
   247  125  126 1    
   248  126  246 1    
   249  126  247 1    
@<TRIPOS>SUBSTRUCTURE
     1 UNK         1 GROUP             0       ****    0 ROOT    
