@<TRIPOS>MOLECULE
3R540
247   249    1
SMALL
USER_CHARGES


@<TRIPOS>ATOM
      1 CA         -3.9823  -13.8984  -49.2085 C.3       0 UNK        -0.1800 
      2 C          -3.2298  -14.7236  -48.1764 C.2       0 UNK         0.5000 
      3 O          -3.0523  -14.2735  -47.0452 O.2       0 UNK        -0.5000 
      4 N          -2.7968  -15.9368  -48.5432 N.am      1 UNK        -0.5000 
      5 CA         -2.0196  -16.8394  -47.6790 C.3       1 UNK         0.1400 
      6 C6         -1.4579  -18.0548  -48.4523 C.3       23 UNK        -0.0398 
      7 S7         -2.7362  -19.0699  -49.2801 S.3       23 UNK        -0.2404 
      8 C8         -1.9932  -20.7269  -49.2684 C.3       23 UNK        -0.0205 
      9 C9         -0.9162  -20.8904  -50.3248 C.ar      23 UNK        -0.0193 
     10 C10        -1.1888  -21.5842  -51.5054 C.ar      23 UNK        -0.1150 
     11 C11        -0.1900  -21.7781  -52.4651 C.ar      23 UNK        -0.0193 
     12 C12         1.0946  -21.2775  -52.2252 C.ar      23 UNK        -0.1150 
     13 C13         1.3800  -20.5891  -51.0410 C.ar      23 UNK        -0.0193 
     14 C14         0.3671  -20.3911  -50.1029 C.ar      23 UNK        -0.1150 
     15 C15         2.7785  -20.0584  -50.7696 C.3       23 UNK        -0.0205 
     16 S16         3.7609  -21.2146  -49.7596 S.3       23 UNK        -0.2404 
     17 C17         3.2243  -20.8387  -48.0524 C.3       23 UNK        -0.0398 
     18 CA          2.6734  -22.0889  -47.3041 C.3       11 UNK         0.1400 
     19 N           3.3892  -22.3199  -46.0492 N.am      11 UNK        -0.5000 
     20 C           3.6821  -23.5209  -45.5370 C.2       10 UNK         0.5000 
     21 O           3.4250  -24.5877  -46.0954 O.2       10 UNK        -0.5000 
     22 CA          4.3814  -23.5371  -44.1634 C.3       10 UNK         0.1400 
     23 CB          5.9056  -23.6134  -44.3389 C.3       10 UNK        -0.1800 
     24 N           4.0567  -22.3828  -43.3213 N.am      10 UNK        -0.5000 
     25 C           2.8494  -22.1469  -42.7912 C.2       9 UNK         0.5000 
     26 O           1.8648  -22.8624  -42.9810 O.2       9 UNK        -0.5000 
     27 CA          2.7160  -20.8855  -41.9169 C.3       9 UNK         0.1400 
     28 CB          3.3111  -21.1461  -40.5242 C.3       9 UNK        -0.1800 
     29 N           3.2903  -19.6447  -42.4576 N.am      9 UNK        -0.5000 
     30 C           3.1958  -19.1735  -43.7118 C.2       8 UNK         0.5000 
     31 O           2.8186  -19.8421  -44.6737 O.2       8 UNK        -0.5000 
     32 CA          3.5551  -17.6921  -43.9212 C.3       8 UNK         0.1400 
     33 CB          2.9027  -17.0995  -45.1858 C.3       8 UNK        -0.1800 
     34 N           3.1464  -16.9041  -42.7599 N.am      8 UNK        -0.5000 
     35 C           3.8481  -15.8974  -42.2226 C.2       7 UNK         0.5000 
     36 O           4.9377  -15.5217  -42.6569 O.2       7 UNK        -0.5000 
     37 CA          3.2454  -15.1791  -40.9962 C.3       7 UNK         0.1400 
     38 CB          2.7004  -13.8000  -41.3982 C.3       7 UNK        -0.1800 
     39 N           2.1853  -15.9404  -40.3302 N.am      7 UNK        -0.5000 
     40 C           2.3912  -17.0576  -39.6163 C.2       6 UNK         0.5000 
     41 O           3.5088  -17.5300  -39.4071 O.2       6 UNK        -0.5000 
     42 CA          1.1526  -17.7991  -39.0708 C.3       6 UNK         0.1400 
     43 CB          0.9385  -17.4629  -37.5874 C.3       6 UNK        -0.1800 
     44 N          -0.0927  -17.5419  -39.7983 N.am      6 UNK        -0.5000 
     45 C          -0.3008  -17.7582  -41.1042 C.2       5 UNK         0.5000 
     46 O           0.5677  -18.1753  -41.8695 O.2       5 UNK        -0.5000 
     47 CA         -1.6917  -17.4066  -41.6687 C.3       5 UNK         0.1400 
     48 CB         -2.7488  -17.0763  -40.5913 C.3       5 UNK        -0.1800 
     49 N          -1.6197  -16.3195  -42.6454 N.am      5 UNK        -0.5000 
     50 C          -1.0903  -15.0998  -42.4611 C.2       4 UNK         0.5000 
     51 O          -0.5088  -14.7419  -41.4351 O.2       4 UNK        -0.5000 
     52 CA         -1.2891  -14.0945  -43.6097 C.3       4 UNK         0.1400 
     53 CB         -0.2709  -14.3434  -44.7339 C.3       4 UNK        -0.1800 
     54 N          -2.6492  -14.1421  -44.1532 N.am      4 UNK        -0.5000 
     55 C          -3.7605  -13.8260  -43.4690 C.2       3 UNK         0.5000 
     56 O          -3.7551  -13.3574  -42.3302 O.2       3 UNK        -0.5000 
     57 CA         -5.1069  -14.1049  -44.1602 C.3       3 UNK         0.1400 
     58 CB         -5.5266  -12.9263  -45.0527 C.3       3 UNK        -0.1800 
     59 N          -5.0551  -15.3327  -44.9541 N.am      3 UNK        -0.5000 
     60 C          -5.2117  -16.5659  -44.4498 C.2       2 UNK         0.5000 
     61 O          -5.5026  -16.7911  -43.2753 O.2       2 UNK        -0.5000 
     62 CA         -4.9989  -17.7529  -45.4110 C.3       2 UNK         0.1400 
     63 CB         -6.3387  -18.2399  -45.9838 C.3       2 UNK        -0.1800 
     64 N          -4.0996  -17.4340  -46.5188 N.am      2 UNK        -0.5000 
     65 C          -2.7759  -17.2673  -46.4013 C.2       1 UNK         0.5000 
     66 O          -2.1663  -17.3854  -45.3384 O.2       1 UNK        -0.5000 
     67 C           1.1620  -21.9911  -47.0146 C.2       11 UNK         0.5000 
     68 O           0.3677  -22.6431  -47.6912 O.2       11 UNK        -0.5000 
     69 N           0.7980  -21.2194  -45.9763 N.am      12 UNK        -0.5000 
     70 CA         -0.5652  -20.9486  -45.5038 C.3       12 UNK         0.1400 
     71 CB         -0.5044  -20.0738  -44.2486 C.3       12 UNK        -0.1800 
     72 C          -1.4183  -22.2002  -45.2380 C.2       12 UNK         0.5000 
     73 O          -2.6307  -22.1582  -45.4479 O.2       12 UNK        -0.5000 
     74 N          -0.7627  -23.2986  -44.8393 N.am      13 UNK        -0.5000 
     75 CA         -1.3405  -24.6285  -44.6392 C.3       13 UNK         0.1400 
     76 CB         -0.2258  -25.5783  -44.1744 C.3       13 UNK        -0.1800 
     77 C          -2.0686  -25.2162  -45.8690 C.2       13 UNK         0.5000 
     78 O          -2.9361  -26.0723  -45.6913 O.2       13 UNK        -0.5000 
     79 N          -1.7302  -24.7520  -47.0825 N.am      14 UNK        -0.5000 
     80 CA         -2.4107  -25.1255  -48.3257 C.3       14 UNK         0.1400 
     81 CB         -1.5362  -24.7190  -49.5206 C.3       14 UNK        -0.1800 
     82 C          -3.8284  -24.5267  -48.4569 C.2       14 UNK         0.5000 
     83 O          -4.6550  -25.1074  -49.1621 O.2       14 UNK        -0.5000 
     84 N          -4.0855  -23.4062  -47.7618 N.am      15 UNK        -0.5000 
     85 CA         -5.3497  -22.6647  -47.6856 C.3       15 UNK         0.1400 
     86 CB         -6.4048  -23.5027  -46.9306 C.3       15 UNK        -0.1800 
     87 C          -5.8644  -22.1314  -49.0457 C.2       15 UNK         0.5000 
     88 O          -5.1128  -22.0661  -50.0182 O.2       15 UNK        -0.5000 
     89 N          -7.1356  -21.7035  -49.0700 N.am      16 UNK        -0.5000 
     90 CA         -7.8877  -21.1539  -50.2107 C.3       16 UNK         0.1400 
     91 CB         -7.9259  -22.1432  -51.3944 C.3       16 UNK        -0.1800 
     92 C          -7.4680  -19.7347  -50.6555 C.2       16 UNK         0.5000 
     93 O          -8.0368  -19.2192  -51.6186 O.2       16 UNK        -0.5000 
     94 N          -6.5185  -19.1144  -49.9397 N.am      17 UNK        -0.5000 
     95 CA         -6.0199  -17.7339  -50.0388 C.3       17 UNK         0.1400 
     96 CB         -7.1435  -16.7184  -49.7610 C.3       17 UNK        -0.1800 
     97 C          -5.2664  -17.3664  -51.3343 C.2       17 UNK         0.5000 
     98 O          -4.2893  -16.6190  -51.2601 O.2       17 UNK        -0.5000 
     99 N          -5.7240  -17.8708  -52.4847 N.am      18 UNK        -0.5000 
    100 CA        -5.2560  -17.5568  -53.8357 C.3       18 UNK         0.1400 
    101 CB        -6.3515  -17.9691  -54.8359 C.3       18 UNK        -0.1800 
    102 C         -3.8819  -18.1705  -54.1826 C.2       18 UNK         0.5000 
    103 O         -3.7599  -18.8969  -55.1709 O.2       18 UNK        -0.5000 
    104 N         -2.8570  -17.8335  -53.3894 N.am      19 UNK        -0.5000 
    105 CA        -1.4664  -18.2750  -53.5434 C.3       19 UNK         0.1400 
    106 CB        -0.6160  -17.6573  -52.4267 C.3       19 UNK        -0.1800 
    107 C         -0.8528  -17.9522  -54.9191 C.2       19 UNK         0.5000 
    108 O         -0.0518  -18.7318  -55.4340 O.2       19 UNK        -0.5000 
    109 N         -1.2689  -16.8220  -55.5054 N.am      20 UNK        -0.5000 
    110 CA        -0.8581  -16.3667  -56.8327 C.3       20 UNK         0.1400 
    111 CB        -1.3183  -14.9127  -57.0201 C.3       20 UNK        -0.1800 
    112 C         -1.3789  -17.2485  -57.9859 C.2       20 UNK         0.5000 
    113 O         -0.7768  -17.2361  -59.0605 O.2       20 UNK        -0.5000 
    114 N         -2.4787  -17.9836  -57.7625 N.am      21 UNK        -0.5000 
    115 CA        -3.0651  -18.8867  -58.7514 C.3       21 UNK         0.1400 
    116 CB        -4.5669  -19.0618  -58.4729 C.3       21 UNK        -0.1800 
    117 C         -2.3447  -20.2446  -58.7702 C.2       21 UNK         0.5000 
    118 O         -2.0285  -20.7467  -59.8498 O.2       21 UNK        -0.5000 
    119 N         -2.1027  -20.8129  -57.5823 N.am      22 UNK        -0.5000 
    120 CA        -1.4190  -22.1045  -57.4047 C.3       22 UNK         0.1400 
    121 C          0.1334  -22.0277  -57.4456 C.2       22 UNK         0.5000 
    122 N          0.7588  -20.9012  -57.1296 N.am      22 UNK        -0.7600 
    123 O          0.7848  -23.0108  -57.7880 O.2       22 UNK        -0.5000 
    124 C124       -1.9301  -22.8712  -56.1577 C.3       23 UNK        -0.0398 
    125 S125       -1.9328  -21.8789  -54.6273 S.3       23 UNK        -0.2404 
    126 C126       -0.4901  -22.5512  -53.7434 C.3       23 UNK        -0.0205 
    127 H127       -3.6674  -12.8562  -49.1567 H         1 UNK         0.0600 
    128 H128       -5.0538  -13.9413  -49.0152 H         1 UNK         0.0600 
    129 H129       -3.7971  -14.2534  -50.2217 H         1 UNK         0.0600 
    130 H130       -2.9912  -16.2707  -49.4805 H         1 UNK         0.3000 
    131 H131       -1.1577  -16.2636  -47.3352 H         1 UNK         0.0600 
    132 H132       -0.7588  -17.7012  -49.2094 H         1 UNK         0.0800 
    133 H133       -0.8653  -18.6772  -47.7823 H         1 UNK         0.0800 
    134 H134       -1.5909  -20.9590  -48.2875 H         1 UNK         0.0800 
    135 H135       -2.7765  -21.4611  -49.4372 H         1 UNK         0.0800 
    136 H136       -2.1804  -21.9803  -51.6757 H         1 UNK         0.1150 
    137 H137        1.8767  -21.4314  -52.9553 H         1 UNK         0.1150 
    138 H138        0.5816  -19.8644  -49.1872 H         1 UNK         0.1150 
    139 H139        3.2986  -19.8964  -51.7149 H         1 UNK         0.0800 
    140 H140        2.7290  -19.0824  -50.2844 H         1 UNK         0.0800 
    141 H141        2.5211  -20.0056  -48.0493 H         1 UNK         0.0800 
    142 H142        4.1043  -20.4458  -47.5406 H         1 UNK         0.0800 
    143 H143        2.8090  -22.9651  -47.9419 H         1 UNK         0.0600 
    144 H144        3.5636  -21.4985  -45.4803 H         1 UNK         0.3000 
    145 H145        4.0529  -24.4378  -43.6404 H         1 UNK         0.0600 
    146 H146        6.4096  -23.7104  -43.3771 H         1 UNK         0.0600 
    147 H147        6.1870  -24.4790  -44.9403 H         1 UNK         0.0600 
    148 H148        6.2981  -22.7261  -44.8371 H         1 UNK         0.0600 
    149 H149        4.8029  -21.7305  -43.1297 H         1 UNK         0.3000 
    150 H150        1.6492  -20.7007  -41.7861 H         1 UNK         0.0600 
    151 H151        2.8785  -22.0403  -40.0733 H         1 UNK         0.0600 
    152 H152        3.1161  -20.3168  -39.8458 H         1 UNK         0.0600 
    153 H153        4.3912  -21.2903  -40.5693 H         1 UNK         0.0600 
    154 H154        3.6395  -19.0003  -41.7627 H         1 UNK         0.3000 
    155 H155        4.6397  -17.6553  -44.0388 H         1 UNK         0.0600 
    156 H156        3.1768  -16.0528  -45.3178 H         1 UNK         0.0600 
    157 H157        1.8143  -17.1565  -45.1364 H         1 UNK         0.0600 
    158 H158        3.2217  -17.6324  -46.0824 H         1 UNK         0.0600 
    159 H159        2.2608  -17.1760  -42.3407 H         1 UNK         0.3000 
    160 H160        4.0535  -15.0261  -40.2780 H         1 UNK         0.0600 
    161 H161        1.9285  -13.8800  -42.1634 H         1 UNK         0.0600 
    162 H162        3.4941  -13.1700  -41.8018 H         1 UNK         0.0600 
    163 H163        2.2735  -13.2766  -40.5426 H         1 UNK         0.0600 
    164 H164        1.2339  -15.6251  -40.4865 H         1 UNK         0.3000 
    165 H165        1.3553  -18.8682  -39.1510 H         1 UNK         0.0600 
    166 H166        0.1303  -18.0565  -37.1598 H         1 UNK         0.0600 
    167 H167        1.8364  -17.6729  -37.0045 H         1 UNK         0.0600 
    168 H168        0.6942  -16.4093  -37.4462 H         1 UNK         0.0600 
    169 H169       -0.8523  -17.1553  -39.2576 H         1 UNK         0.3000 
    170 H170       -2.0374  -18.2877  -42.2087 H         1 UNK         0.0600 
    171 H171       -2.8645  -17.8986  -39.8842 H         1 UNK         0.0600 
    172 H172       -2.4980  -16.1775  -40.0267 H         1 UNK         0.0600 
    173 H173       -3.7246  -16.9102  -41.0482 H         1 UNK         0.0600 
    174 H174       -1.9860  -16.5427  -43.5662 H         1 UNK         0.3000 
    175 H175       -1.1214  -13.0916  -43.2119 H         1 UNK         0.0600 
    176 H176       -0.3749  -15.3406  -45.1610 H         1 UNK         0.0600 
    177 H177       -0.3889  -13.6199  -45.5408 H         1 UNK         0.0600 
    178 H178        0.7505  -14.2547  -44.3622 H         1 UNK         0.0600 
    179 H179       -2.7460  -14.4392  -45.1190 H         1 UNK         0.3000 
    180 H180       -5.8651  -14.2172  -43.3820 H         1 UNK         0.0600 
    181 H181       -6.4904  -13.1142  -45.5260 H         1 UNK         0.0600 
    182 H182       -4.7993  -12.7288  -45.8400 H         1 UNK         0.0600 
    183 H183       -5.6257  -12.0126  -44.4654 H         1 UNK         0.0600 
    184 H184       -4.7626  -15.2313  -45.9158 H         1 UNK         0.3000 
    185 H185       -4.5566  -18.5693  -44.8355 H         1 UNK         0.0600 
    186 H186       -6.8342  -17.4616  -46.5646 H         1 UNK         0.0600 
    187 H187       -6.2020  -19.1081  -46.6287 H         1 UNK         0.0600 
    188 H188       -7.0195  -18.5345  -45.1841 H         1 UNK         0.0600 
    189 H189       -4.5168  -17.2997  -47.4259 H         1 UNK         0.3000 
    190 H190        1.5356  -20.7340  -45.4675 H         1 UNK         0.3000 
    191 H191       -1.0727  -20.3667  -46.2690 H         1 UNK         0.0600 
    192 H192       -1.5081  -19.8256  -43.9033 H         1 UNK         0.0600 
    193 H193        0.0104  -19.1329  -44.4443 H         1 UNK         0.0600 
    194 H194        0.0100  -20.5784  -43.4320 H         1 UNK         0.0600 
    195 H195        0.2299  -23.2127  -44.6618 H         1 UNK         0.3000 
    196 H196       -2.0776  -24.5446  -43.8384 H         1 UNK         0.0600 
    197 H197        0.5662  -25.6610  -44.9201 H         1 UNK         0.0600 
    198 H198        0.2256  -25.2318  -43.2444 H         1 UNK         0.0600 
    199 H199       -0.6137  -26.5814  -43.9920 H         1 UNK         0.0600 
    200 H200       -0.9986  -24.0516  -47.1597 H         1 UNK         0.3000 
    201 H201       -2.5146  -26.2125  -48.3428 H         1 UNK         0.0600 
    202 H202       -1.3613  -23.6446  -49.5368 H         1 UNK         0.0600 
    203 H203       -2.0084  -24.9892  -50.4659 H         1 UNK         0.0600 
    204 H204       -0.5651  -25.2130  -49.4866 H         1 UNK         0.0600 
    205 H205       -3.3450  -23.0359  -47.1767 H         1 UNK         0.3000 
    206 H206       -5.1317  -21.7836  -47.0803 H         1 UNK         0.0600 
    207 H207       -5.9921  -23.9114  -46.0078 H         1 UNK         0.0600 
    208 H208       -7.2704  -22.9028  -46.6490 H         1 UNK         0.0600 
    209 H209       -6.7625  -24.3388  -47.5327 H         1 UNK         0.0600 
    210 H210       -7.6673  -21.7771  -48.2137 H         1 UNK         0.3000 
    211 H211       -8.9128  -21.0491  -49.8524 H         1 UNK         0.0600 
    212 H212       -8.6347  -21.8146  -52.1553 H         1 UNK         0.0600 
    213 H213       -8.2379  -23.1359  -51.0701 H         1 UNK         0.0600 
    214 H214       -6.9540  -22.2373  -51.8793 H         1 UNK         0.0600 
    215 H215       -6.0772  -19.6722  -49.2240 H         1 UNK         0.3000 
    216 H216       -5.2983  -17.6318  -49.2294 H         1 UNK         0.0600 
    217 H217       -6.7484  -15.7030  -49.7133 H         1 UNK         0.0600 
    218 H218       -7.9056  -16.7325  -50.5406 H         1 UNK         0.0600 
    219 H219       -7.6358  -16.9205  -48.8102 H         1 UNK         0.0600 
    220 H220       -6.5447  -18.4673  -52.4198 H         1 UNK         0.3000 
    221 H221       -5.1403  -16.4734  -53.9060 H         1 UNK         0.0600 
    222 H222       -7.2954  -17.4702  -54.6153 H         1 UNK         0.0600 
    223 H223       -6.5288  -19.0452  -54.8143 H         1 UNK         0.0600 
    224 H224       -6.0753  -17.7003  -55.8563 H         1 UNK         0.0600 
    225 H225       -3.0717  -17.2614  -52.5776 H         1 UNK         0.3000 
    226 H226       -1.4515  -19.3561  -53.4181 H         1 UNK         0.0600 
    227 H227        0.4224  -17.9838  -52.4983 H         1 UNK         0.0600 
    228 H228       -0.6269  -16.5675  -52.4625 H         1 UNK         0.0600 
    229 H229       -0.9840  -17.9671  -51.4519 H         1 UNK         0.0600 
    230 H230       -1.9326  -16.2447  -55.0107 H         1 UNK         0.3000 
    231 H231        0.2330  -16.3878  -56.8730 H         1 UNK         0.0600 
    232 H232       -2.4044  -14.8251  -56.9698 H         1 UNK         0.0600 
    233 H233       -1.0024  -14.5243  -57.9893 H         1 UNK         0.0600 
    234 H234       -0.8919  -14.2616  -56.2568 H         1 UNK         0.0600 
    235 H235       -2.8915  -17.9953  -56.8370 H         1 UNK         0.3000 
    236 H236       -2.9668  -18.4398  -59.7432 H         1 UNK         0.0600 
    237 H237       -5.0344  -19.6739  -59.2450 H         1 UNK         0.0600 
    238 H238       -4.7521  -19.5500  -57.5161 H         1 UNK         0.0600 
    239 H239       -5.0814  -18.1008  -58.4640 H         1 UNK         0.0600 
    240 H240       -2.3875  -20.3391  -56.7349 H         1 UNK         0.3000 
    241 H241       -1.6882  -22.7294  -58.2589 H         1 UNK         0.0600 
    242 H242        1.7641  -20.8716  -57.1752 H         1 UNK         0.3800 
    243 H243        0.2605  -20.1126  -56.7271 H         1 UNK         0.3800 
    244 H244       -1.3706  -23.7960  -56.0055 H         1 UNK         0.0800 
    245 H245       -2.9599  -23.1839  -56.3346 H         1 UNK         0.0800 
    246 H246        0.3730  -22.5340  -54.4104 H         1 UNK         0.0800 
    247 H247       -0.6743  -23.5963  -53.4912 H         1 UNK         0.0800 
@<TRIPOS>BOND
     1    1    2 1    
     2    1  127 1    
     3    1  128 1    
     4    1  129 1    
     5    2    3 2    
     6    2    4 am   BACKBONE|DICT|INTERRES
     7    4    5 1    
     8    4  130 1    
     9    5    6 1    
    10    5   65 1    
    11    5  131 1    
    12    6    7 1    
    13    6  132 1    
    14    6  133 1    
    15    7    8 1    
    16    8    9 1    
    17    8  134 1    
    18    8  135 1    
    19    9   10 ar   
    20    9   14 ar   
    21   10   11 ar   
    22   10  136 1    
    23   11   12 ar   
    24   11  126 1    
    25   12   13 ar   
    26   12  137 1    
    27   13   14 ar   
    28   13   15 1    
    29   14  138 1    
    30   15   16 1    
    31   15  139 1    
    32   15  140 1    
    33   16   17 1    
    34   17   18 1    
    35   17  141 1    
    36   17  142 1    
    37   18   19 1    
    38   18   67 1    
    39   18  143 1    
    40   19   20 am   BACKBONE|DICT|INTERRES
    41   19  144 1    
    42   20   21 2    
    43   20   22 1    
    44   22   23 1    
    45   22   24 1    
    46   22  145 1    
    47   23  146 1    
    48   23  147 1    
    49   23  148 1    
    50   24   25 am   BACKBONE|DICT|INTERRES
    51   24  149 1    
    52   25   26 2    
    53   25   27 1    
    54   27   28 1    
    55   27   29 1    
    56   27  150 1    
    57   28  151 1    
    58   28  152 1    
    59   28  153 1    
    60   29   30 am   BACKBONE|DICT|INTERRES
    61   29  154 1    
    62   30   31 2    
    63   30   32 1    
    64   32   33 1    
    65   32   34 1    
    66   32  155 1    
    67   33  156 1    
    68   33  157 1    
    69   33  158 1    
    70   34   35 am   BACKBONE|DICT|INTERRES
    71   34  159 1    
    72   35   36 2    
    73   35   37 1    
    74   37   38 1    
    75   37   39 1    
    76   37  160 1    
    77   38  161 1    
    78   38  162 1    
    79   38  163 1    
    80   39   40 am   BACKBONE|DICT|INTERRES
    81   39  164 1    
    82   40   41 2    
    83   40   42 1    
    84   42   43 1    
    85   42   44 1    
    86   42  165 1    
    87   43  166 1    
    88   43  167 1    
    89   43  168 1    
    90   44   45 am   BACKBONE|DICT|INTERRES
    91   44  169 1    
    92   45   46 2    
    93   45   47 1    
    94   47   48 1    
    95   47   49 1    
    96   47  170 1    
    97   48  171 1    
    98   48  172 1    
    99   48  173 1    
   100   49   50 am   BACKBONE|DICT|INTERRES
   101   49  174 1    
   102   50   51 2    
   103   50   52 1    
   104   52   53 1    
   105   52   54 1    
   106   52  175 1    
   107   53  176 1    
   108   53  177 1    
   109   53  178 1    
   110   54   55 am   BACKBONE|DICT|INTERRES
   111   54  179 1    
   112   55   56 2    
   113   55   57 1    
   114   57   58 1    
   115   57   59 1    
   116   57  180 1    
   117   58  181 1    
   118   58  182 1    
   119   58  183 1    
   120   59   60 am   BACKBONE|DICT|INTERRES
   121   59  184 1    
   122   60   61 2    
   123   60   62 1    
   124   62   63 1    
   125   62   64 1    
   126   62  185 1    
   127   63  186 1    
   128   63  187 1    
   129   63  188 1    
   130   64   65 am   BACKBONE|DICT|INTERRES
   131   64  189 1    
   132   65   66 2    
   133   67   68 2    
   134   67   69 am   BACKBONE|DICT|INTERRES
   135   69   70 1    
   136   69  190 1    
   137   70   71 1    
   138   70   72 1    
   139   70  191 1    
   140   71  192 1    
   141   71  193 1    
   142   71  194 1    
   143   72   73 2    
   144   72   74 am   BACKBONE|DICT|INTERRES
   145   74   75 1    
   146   74  195 1    
   147   75   76 1    
   148   75   77 1    
   149   75  196 1    
   150   76  197 1    
   151   76  198 1    
   152   76  199 1    
   153   77   78 2    
   154   77   79 am   BACKBONE|DICT|INTERRES
   155   79   80 1    
   156   79  200 1    
   157   80   81 1    
   158   80   82 1    
   159   80  201 1    
   160   81  202 1    
   161   81  203 1    
   162   81  204 1    
   163   82   83 2    
   164   82   84 am   BACKBONE|DICT|INTERRES
   165   84   85 1    
   166   84  205 1    
   167   85   86 1    
   168   85   87 1    
   169   85  206 1    
   170   86  207 1    
   171   86  208 1    
   172   86  209 1    
   173   87   88 2    
   174   87   89 am   BACKBONE|DICT|INTERRES
   175   89   90 1    
   176   89  210 1    
   177   90   91 1    
   178   90   92 1    
   179   90  211 1    
   180   91  212 1    
   181   91  213 1    
   182   91  214 1    
   183   92   93 2    
   184   92   94 am   BACKBONE|DICT|INTERRES
   185   94   95 1    
   186   94  215 1    
   187   95   96 1    
   188   95   97 1    
   189   95  216 1    
   190   96  217 1    
   191   96  218 1    
   192   96  219 1    
   193   97   98 2    
   194   97   99 am   BACKBONE|DICT|INTERRES
   195   99  100 1    
   196   99  220 1    
   197  100  101 1    
   198  100  102 1    
   199  100  221 1    
   200  101  222 1    
   201  101  223 1    
   202  101  224 1    
   203  102  103 2    
   204  102  104 am   BACKBONE|DICT|INTERRES
   205  104  105 1    
   206  104  225 1    
   207  105  106 1    
   208  105  107 1    
   209  105  226 1    
   210  106  227 1    
   211  106  228 1    
   212  106  229 1    
   213  107  108 2    
   214  107  109 am   BACKBONE|DICT|INTERRES
   215  109  110 1    
   216  109  230 1    
   217  110  111 1    
   218  110  112 1    
   219  110  231 1    
   220  111  232 1    
   221  111  233 1    
   222  111  234 1    
   223  112  113 2    
   224  112  114 am   BACKBONE|DICT|INTERRES
   225  114  115 1    
   226  114  235 1    
   227  115  116 1    
   228  115  117 1    
   229  115  236 1    
   230  116  237 1    
   231  116  238 1    
   232  116  239 1    
   233  117  118 2    
   234  117  119 am   BACKBONE|DICT|INTERRES
   235  119  120 1    
   236  119  240 1    
   237  120  121 1    
   238  120  124 1    
   239  120  241 1    
   240  121  122 am   BACKBONE|DICT|INTERRES
   241  121  123 2    
   242  122  242 1    
   243  122  243 1    
   244  124  125 1    
   245  124  244 1    
   246  124  245 1    
   247  125  126 1    
   248  126  246 1    
   249  126  247 1    
@<TRIPOS>SUBSTRUCTURE
     1 UNK         1 GROUP             0       ****    0 ROOT    
