@<TRIPOS>MOLECULE
3R540
247   249    1
SMALL
USER_CHARGES


@<TRIPOS>ATOM
      1 CA         -1.3208   -8.7040  -46.7992 C.3       0 UNK        -0.1800 
      2 C          -0.7104   -9.8506  -47.5918 C.2       0 UNK         0.5000 
      3 O           0.5081   -9.8994  -47.7617 O.2       0 UNK        -0.5000 
      4 N          -1.5475  -10.7861  -48.0620 N.am      1 UNK        -0.5000 
      5 CA         -1.1513  -11.9536  -48.8642 C.3       1 UNK         0.1400 
      6 C6         -2.3718  -12.6454  -49.5183 C.3       23 UNK        -0.0398 
      7 S7         -3.5349  -13.4001  -48.3258 S.3       23 UNK        -0.2404 
      8 C8         -3.1677  -15.1575  -48.6107 C.3       23 UNK        -0.0205 
      9 C9         -3.9711  -16.0640  -47.6972 C.ar      23 UNK        -0.0193 
     10 C10        -5.3238  -16.2914  -47.9578 C.ar      23 UNK        -0.1150 
     11 C11        -6.0615  -17.1752  -47.1656 C.ar      23 UNK        -0.0193 
     12 C12        -5.4365  -17.8274  -46.0999 C.ar      23 UNK        -0.1150 
     13 C13        -4.0809  -17.6122  -45.8344 C.ar      23 UNK        -0.0193 
     14 C14        -3.3568  -16.7151  -46.6248 C.ar      23 UNK        -0.1150 
     15 C15        -3.3853  -18.3839  -44.7247 C.3       23 UNK        -0.0205 
     16 S16        -2.2215  -19.6084  -45.4009 S.3       23 UNK        -0.2404 
     17 C17        -3.3071  -20.6728  -46.4121 C.3       23 UNK        -0.0398 
     18 CA         -3.0220  -22.1665  -46.1455 C.3       11 UNK         0.1400 
     19 N          -3.4061  -22.5488  -44.7810 N.am      11 UNK        -0.5000 
     20 C          -3.3363  -23.7616  -44.2181 C.2       10 UNK         0.5000 
     21 O          -3.1092  -24.7964  -44.8463 O.2       10 UNK        -0.5000 
     22 CA         -3.4692  -23.7969  -42.6810 C.3       10 UNK         0.1400 
     23 CB         -3.5527  -25.2320  -42.1313 C.3       10 UNK        -0.1800 
     24 N          -2.3237  -23.1197  -42.0675 N.am      10 UNK        -0.5000 
     25 C          -2.1501  -21.7921  -42.0272 C.2       9 UNK         0.5000 
     26 O          -3.0316  -20.9912  -42.3515 O.2       9 UNK        -0.5000 
     27 CA         -0.7432  -21.3022  -41.6275 C.3       9 UNK         0.1400 
     28 CB          0.3240  -21.8543  -42.5909 C.3       9 UNK        -0.1800 
     29 N          -0.6429  -19.8446  -41.6411 N.am      9 UNK        -0.5000 
     30 C          -1.1366  -19.0208  -40.7079 C.2       8 UNK         0.5000 
     31 O          -1.6903  -19.4119  -39.6784 O.2       8 UNK        -0.5000 
     32 CA         -0.9397  -17.5130  -40.9620 C.3       8 UNK         0.1400 
     33 CB         -0.9961  -16.6784  -39.6695 C.3       8 UNK        -0.1800 
     34 N           0.3471  -17.2839  -41.6208 N.am      8 UNK        -0.5000 
     35 C           0.5182  -16.7482  -42.8337 C.2       7 UNK         0.5000 
     36 O          -0.4023  -16.2895  -43.5126 O.2       7 UNK        -0.5000 
     37 CA          1.9621  -16.7141  -43.3875 C.3       7 UNK         0.1400 
     38 CB          2.9598  -17.6106  -42.6185 C.3       7 UNK        -0.1800 
     39 N           2.0058  -17.0189  -44.8195 N.am      7 UNK        -0.5000 
     40 C           1.5564  -18.1335  -45.4181 C.2       6 UNK         0.5000 
     41 O           1.1100  -19.1079  -44.8118 O.2       6 UNK        -0.5000 
     42 CA          1.6499  -18.1759  -46.9542 C.3       6 UNK         0.1400 
     43 CB          0.4105  -17.5452  -47.6096 C.3       6 UNK        -0.1800 
     44 N           2.8461  -17.5007  -47.4537 N.am      6 UNK        -0.5000 
     45 C           4.0777  -18.0264  -47.4392 C.2       5 UNK         0.5000 
     46 O           4.3250  -19.1519  -47.0034 O.2       5 UNK        -0.5000 
     47 CA          5.2336  -17.1543  -47.9786 C.3       5 UNK         0.1400 
     48 CB          6.1995  -17.9579  -48.8739 C.3       5 UNK        -0.1800 
     49 N           4.8119  -15.9147  -48.6448 N.am      5 UNK        -0.5000 
     50 C           4.1204  -15.7666  -49.7847 C.2       4 UNK         0.5000 
     51 O           3.7229  -16.7118  -50.4665 O.2       4 UNK        -0.5000 
     52 CA          3.7982  -14.3153  -50.2119 C.3       4 UNK         0.1400 
     53 CB          2.6443  -14.2449  -51.2288 C.3       4 UNK        -0.1800 
     54 N           3.4796  -13.4506  -49.0694 N.am      4 UNK        -0.5000 
     55 C           4.3818  -12.8538  -48.2752 C.2       3 UNK         0.5000 
     56 O           5.5965  -12.9733  -48.4350 O.2       3 UNK        -0.5000 
     57 CA          3.8675  -12.0236  -47.0821 C.3       3 UNK         0.1400 
     58 CB          3.9486  -10.5234  -47.4009 C.3       3 UNK        -0.1800 
     59 N           2.5018  -12.3449  -46.6703 N.am      3 UNK        -0.5000 
     60 C           2.0961  -13.5113  -46.1462 C.2       2 UNK         0.5000 
     61 O           2.8393  -14.4722  -45.9412 O.2       2 UNK        -0.5000 
     62 CA          0.5902  -13.6397  -45.8425 C.3       2 UNK         0.1400 
     63 CB          0.2993  -13.1706  -44.4094 C.3       2 UNK        -0.1800 
     64 N          -0.2611  -12.8823  -46.7619 N.am      2 UNK        -0.5000 
     65 C          -0.2571  -12.9588  -48.1016 C.2       1 UNK         0.5000 
     66 O           0.4407  -13.7506  -48.7351 O.2       1 UNK        -0.5000 
     67 C          -3.6105  -23.0460  -47.2634 C.2       11 UNK         0.5000 
     68 O          -2.9185  -23.2947  -48.2467 O.2       11 UNK        -0.5000 
     69 N          -4.8387  -23.5462  -47.0740 N.am      12 UNK        -0.5000 
     70 CA         -5.5143  -24.4667  -47.9913 C.3       12 UNK         0.1400 
     71 CB         -6.9601  -24.6668  -47.5126 C.3       12 UNK        -0.1800 
     72 C          -4.8089  -25.8304  -48.1651 C.2       12 UNK         0.5000 
     73 O          -5.0280  -26.4857  -49.1846 O.2       12 UNK        -0.5000 
     74 N          -3.9934  -26.2350  -47.1817 N.am      13 UNK        -0.5000 
     75 CA         -3.2344  -27.4856  -47.1808 C.3       13 UNK         0.1400 
     76 CB         -3.6763  -28.3240  -45.9705 C.3       13 UNK        -0.1800 
     77 C          -1.7126  -27.2549  -47.1348 C.2       13 UNK         0.5000 
     78 O          -0.9693  -28.1085  -47.6202 O.2       13 UNK        -0.5000 
     79 N          -1.2689  -26.1403  -46.5336 N.am      14 UNK        -0.5000 
     80 CA          0.1362  -25.8429  -46.2407 C.3       14 UNK         0.1400 
     81 CB          0.2243  -24.5755  -45.3758 C.3       14 UNK        -0.1800 
     82 C           1.0434  -25.7108  -47.4780 C.2       14 UNK         0.5000 
     83 O           2.1905  -26.1578  -47.4267 O.2       14 UNK        -0.5000 
     84 N           0.5291  -25.1142  -48.5596 N.am      15 UNK        -0.5000 
     85 CA          1.2404  -24.9360  -49.8222 C.3       15 UNK         0.1400 
     86 CB          2.2595  -23.7856  -49.7099 C.3       15 UNK        -0.1800 
     87 C           0.2285  -24.6437  -50.9325 C.2       15 UNK         0.5000 
     88 O          -0.7908  -24.0035  -50.6717 O.2       15 UNK        -0.5000 
     89 N           0.5469  -25.0672  -52.1621 N.am      16 UNK        -0.5000 
     90 CA         -0.2807  -24.8435  -53.3509 C.3       16 UNK         0.1400 
     91 CB          0.2994  -25.6312  -54.5349 C.3       16 UNK        -0.1800 
     92 C          -0.4277  -23.3535  -53.7098 C.2       16 UNK         0.5000 
     93 O          -1.5125  -22.9290  -54.1043 O.2       16 UNK        -0.5000 
     94 N           0.6519  -22.5800  -53.5258 N.am      17 UNK        -0.5000 
     95 CA          0.6716  -21.1299  -53.7265 C.3       17 UNK         0.1400 
     96 CB          2.1222  -20.6271  -53.6783 C.3       17 UNK        -0.1800 
     97 C          -0.1964  -20.3840  -52.6975 C.2       17 UNK         0.5000 
     98 O          -0.9059  -19.4475  -53.0635 O.2       17 UNK        -0.5000 
     99 N          -0.1534  -20.8402  -51.4380 N.am      18 UNK        -0.5000 
    100 CA        -0.9685  -20.3169  -50.3426 C.3       18 UNK         0.1400 
    101 CB        -0.4324  -20.8545  -49.0072 C.3       18 UNK        -0.1800 
    102 C         -2.4580  -20.6527  -50.5342 C.2       18 UNK         0.5000 
    103 O         -3.3080  -19.7891  -50.3198 O.2       18 UNK        -0.5000 
    104 N         -2.7423  -21.8804  -50.9900 N.am      19 UNK        -0.5000 
    105 CA        -4.0824  -22.3523  -51.3301 C.3       19 UNK         0.1400 
    106 CB        -4.0420  -23.8616  -51.6108 C.3       19 UNK        -0.1800 
    107 C         -4.6876  -21.5883  -52.5202 C.2       19 UNK         0.5000 
    108 O         -5.8683  -21.2453  -52.4762 O.2       19 UNK        -0.5000 
    109 N         -3.8636  -21.3031  -53.5396 N.am      20 UNK        -0.5000 
    110 CA        -4.2235  -20.4856  -54.6978 C.3       20 UNK         0.1400 
    111 CB        -3.1194  -20.5698  -55.7623 C.3       20 UNK        -0.1800 
    112 C         -4.5100  -19.0228  -54.3165 C.2       20 UNK         0.5000 
    113 O         -5.5177  -18.4712  -54.7603 O.2       20 UNK        -0.5000 
    114 N         -3.6569  -18.4347  -53.4637 N.am      21 UNK        -0.5000 
    115 CA        -3.8223  -17.0806  -52.9235 C.3       21 UNK         0.1400 
    116 CB        -2.5616  -16.6842  -52.1404 C.3       21 UNK        -0.1800 
    117 C         -5.0879  -16.9228  -52.0544 C.2       21 UNK         0.5000 
    118 O         -5.6866  -15.8472  -52.0420 O.2       21 UNK        -0.5000 
    119 N         -5.4897  -18.0078  -51.3826 N.am      22 UNK        -0.5000 
    120 CA        -6.7649  -18.1515  -50.6658 C.3       22 UNK         0.1400 
    121 C         -8.0051  -18.3809  -51.5868 C.2       22 UNK         0.5000 
    122 N         -7.8610  -18.5211  -52.8996 N.am      22 UNK        -0.7600 
    123 O         -9.1360  -18.3991  -51.1099 O.2       22 UNK        -0.5000 
    124 C124       -6.6282  -19.2237  -49.5495 C.3       23 UNK        -0.0398 
    125 S125       -7.8172  -19.1040  -48.1636 S.3       23 UNK        -0.2404 
    126 C126       -7.5276  -17.4388  -47.4733 C.3       23 UNK        -0.0205 
    127 H127       -0.9063   -8.6827  -45.7914 H         1 UNK         0.0600 
    128 H128       -2.4042   -8.7972  -46.7203 H         1 UNK         0.0600 
    129 H129       -1.0951   -7.7533  -47.2821 H         1 UNK         0.0600 
    130 H130       -2.5375  -10.7060  -47.8749 H         1 UNK         0.3000 
    131 H131       -0.5334  -11.5704  -49.6792 H         1 UNK         0.0600 
    132 H132       -2.0355  -13.3969  -50.2351 H         1 UNK         0.0800 
    133 H133       -2.9277  -11.9171  -50.1102 H         1 UNK         0.0800 
    134 H134       -3.4038  -15.4062  -49.6448 H         1 UNK         0.0800 
    135 H135       -2.0992  -15.3386  -48.4824 H         1 UNK         0.0800 
    136 H136       -5.7933  -15.7845  -48.7887 H         1 UNK         0.1150 
    137 H137       -6.0018  -18.5239  -45.4967 H         1 UNK         0.1150 
    138 H138       -2.3072  -16.5538  -46.4222 H         1 UNK         0.1150 
    139 H139       -2.8360  -17.6885  -44.0885 H         1 UNK         0.0800 
    140 H140       -4.1072  -18.8889  -44.0810 H         1 UNK         0.0800 
    141 H141       -3.1442  -20.4106  -47.4587 H         1 UNK         0.0800 
    142 H142       -4.3551  -20.4513  -46.2072 H         1 UNK         0.0800 
    143 H143       -1.9419  -22.3069  -46.2044 H         1 UNK         0.0600 
    144 H144       -3.5337  -21.7693  -44.1428 H         1 UNK         0.3000 
    145 H145       -4.3897  -23.2758  -42.4096 H         1 UNK         0.0600 
    146 H146       -3.6882  -25.2320  -41.0497 H         1 UNK         0.0600 
    147 H147       -4.3990  -25.7668  -42.5644 H         1 UNK         0.0600 
    148 H148       -2.6524  -25.8054  -42.3565 H         1 UNK         0.0600 
    149 H149       -1.5540  -23.7157  -41.7998 H         1 UNK         0.3000 
    150 H150       -0.5301  -21.6617  -40.6188 H         1 UNK         0.0600 
    151 H151        0.1078  -21.5828  -43.6257 H         1 UNK         0.0600 
    152 H152        0.3868  -22.9416  -42.5424 H         1 UNK         0.0600 
    153 H153        1.3139  -21.4674  -42.3474 H         1 UNK         0.0600 
    154 H154       -0.2438  -19.4369  -42.4759 H         1 UNK         0.3000 
    155 H155       -1.7643  -17.1987  -41.6049 H         1 UNK         0.0600 
    156 H156       -0.2268  -16.9842  -38.9595 H         1 UNK         0.0600 
    157 H157       -1.9629  -16.7829  -39.1755 H         1 UNK         0.0600 
    158 H158       -0.8551  -15.6183  -39.8808 H         1 UNK         0.0600 
    159 H159        1.1557  -17.6569  -41.1432 H         1 UNK         0.3000 
    160 H160        2.3026  -15.6832  -43.2872 H         1 UNK         0.0600 
    161 H161        2.6465  -18.6553  -42.6049 H         1 UNK         0.0600 
    162 H162        3.0770  -17.2815  -41.5854 H         1 UNK         0.0600 
    163 H163        3.9486  -17.5708  -43.0756 H         1 UNK         0.0600 
    164 H164        2.3606  -16.2670  -45.4026 H         1 UNK         0.3000 
    165 H165        1.6901  -19.2256  -47.2513 H         1 UNK         0.0600 
    166 H166       -0.5033  -18.0259  -47.2613 H         1 UNK         0.0600 
    167 H167        0.3285  -16.4819  -47.3877 H         1 UNK         0.0600 
    168 H168        0.4409  -17.6558  -48.6936 H         1 UNK         0.0600 
    169 H169        2.7321  -16.5654  -47.8149 H         1 UNK         0.3000 
    170 H170        5.7946  -16.8366  -47.0987 H         1 UNK         0.0600 
    171 H171        6.6430  -18.7893  -48.3249 H         1 UNK         0.0600 
    172 H172        5.6931  -18.3771  -49.7436 H         1 UNK         0.0600 
    173 H173        7.0190  -17.3338  -49.2302 H         1 UNK         0.0600 
    174 H174        5.0963  -15.0606  -48.1810 H         1 UNK         0.3000 
    175 H175        4.6912  -13.9271  -50.7059 H         1 UNK         0.0600 
    176 H176        2.4116  -13.2136  -51.4941 H         1 UNK         0.0600 
    177 H177        2.9039  -14.7652  -52.1515 H         1 UNK         0.0600 
    178 H178        1.7357  -14.7053  -50.8398 H         1 UNK         0.0600 
    179 H179        2.4945  -13.3602  -48.8463 H         1 UNK         0.3000 
    180 H180        4.5259  -12.2297  -46.2358 H         1 UNK         0.0600 
    181 H181        3.3003  -10.2557  -48.2364 H         1 UNK         0.0600 
    182 H182        4.9657  -10.2333  -47.6679 H         1 UNK         0.0600 
    183 H183        3.6541   -9.9199  -46.5421 H         1 UNK         0.0600 
    184 H184        1.8082  -11.6258  -46.8342 H         1 UNK         0.3000 
    185 H185        0.3182  -14.6927  -45.9220 H         1 UNK         0.0600 
    186 H186       -0.7356  -13.3728  -44.1325 H         1 UNK         0.0600 
    187 H187        0.9317  -13.6886  -43.6882 H         1 UNK         0.0600 
    188 H188        0.4778  -12.1011  -44.2906 H         1 UNK         0.0600 
    189 H189       -0.8786  -12.2037  -46.3412 H         1 UNK         0.3000 
    190 H190       -5.3255  -23.3167  -46.2201 H         1 UNK         0.3000 
    191 H191       -5.5455  -23.9922  -48.9735 H         1 UNK         0.0600 
    192 H192       -7.4982  -23.7195  -47.4739 H         1 UNK         0.0600 
    193 H193       -7.5092  -25.3229  -48.1894 H         1 UNK         0.0600 
    194 H194       -6.9953  -25.1161  -46.5193 H         1 UNK         0.0600 
    195 H195       -3.8610  -25.6304  -46.3763 H         1 UNK         0.3000 
    196 H196       -3.4412  -28.0621  -48.0846 H         1 UNK         0.0600 
    197 H197       -3.1353  -29.2703  -45.9296 H         1 UNK         0.0600 
    198 H198       -4.7393  -28.5594  -46.0230 H         1 UNK         0.0600 
    199 H199       -3.4955  -27.7993  -45.0312 H         1 UNK         0.0600 
    200 H200       -1.9508  -25.5290  -46.0958 H         1 UNK         0.3000 
    201 H201        0.5206  -26.6755  -45.6480 H         1 UNK         0.0600 
    202 H202        1.2575  -24.3635  -45.0979 H         1 UNK         0.0600 
    203 H203       -0.1548  -23.7024  -45.9053 H         1 UNK         0.0600 
    204 H204       -0.3415  -24.6854  -44.4510 H         1 UNK         0.0600 
    205 H205       -0.4310  -24.7888  -48.5573 H         1 UNK         0.3000 
    206 H206        1.7626  -25.8631  -50.0685 H         1 UNK         0.0600 
    207 H207        3.0337  -24.0091  -48.9761 H         1 UNK         0.0600 
    208 H208        2.7622  -23.6095  -50.6616 H         1 UNK         0.0600 
    209 H209        1.7807  -22.8528  -49.4123 H         1 UNK         0.0600 
    210 H210        1.4062  -25.5795  -52.3009 H         1 UNK         0.3000 
    211 H211       -1.2795  -25.2319  -53.1411 H         1 UNK         0.0600 
    212 H212        1.3132  -25.3097  -54.7766 H         1 UNK         0.0600 
    213 H213       -0.3101  -25.4956  -55.4294 H         1 UNK         0.0600 
    214 H214        0.3273  -26.6999  -54.3217 H         1 UNK         0.0600 
    215 H215        1.5061  -23.0113  -53.2057 H         1 UNK         0.3000 
    216 H216        0.2690  -20.9175  -54.7192 H         1 UNK         0.0600 
    217 H217        2.1662  -19.5489  -53.8385 H         1 UNK         0.0600 
    218 H218        2.7275  -21.0948  -54.4550 H         1 UNK         0.0600 
    219 H219        2.5911  -20.8348  -52.7156 H         1 UNK         0.0600 
    220 H220        0.4158  -21.6471  -51.2352 H         1 UNK         0.3000 
    221 H221       -0.8673  -19.2296  -50.3356 H         1 UNK         0.0600 
    222 H222       -0.5843  -21.9298  -48.9094 H         1 UNK         0.0600 
    223 H223        0.6338  -20.6560  -48.9029 H         1 UNK         0.0600 
    224 H224       -0.9304  -20.3742  -48.1666 H         1 UNK         0.0600 
    225 H225       -1.9936  -22.5653  -51.0470 H         1 UNK         0.3000 
    226 H226       -4.7215  -22.1822  -50.4614 H         1 UNK         0.0600 
    227 H227       -5.0440  -24.2525  -51.7907 H         1 UNK         0.0600 
    228 H228       -3.4353  -24.0931  -52.4860 H         1 UNK         0.0600 
    229 H229       -3.6256  -24.4086  -50.7647 H         1 UNK         0.0600 
    230 H230       -2.9235  -21.6871  -53.5298 H         1 UNK         0.3000 
    231 H231       -5.1373  -20.9014  -55.1274 H         1 UNK         0.0600 
    232 H232       -2.1638  -20.2066  -55.3840 H         1 UNK         0.0600 
    233 H233       -3.3748  -19.9724  -56.6383 H         1 UNK         0.0600 
    234 H234       -2.9764  -21.5963  -56.0999 H         1 UNK         0.0600 
    235 H235       -2.8235  -18.9390  -53.1755 H         1 UNK         0.3000 
    236 H236       -3.9201  -16.4001  -53.7718 H         1 UNK         0.0600 
    237 H237       -1.6664  -16.7880  -52.7536 H         1 UNK         0.0600 
    238 H238       -2.6130  -15.6421  -51.8248 H         1 UNK         0.0600 
    239 H239       -2.4300  -17.2984  -51.2488 H         1 UNK         0.0600 
    240 H240       -4.8958  -18.8285  -51.4029 H         1 UNK         0.3000 
    241 H241       -6.9531  -17.1919  -50.1885 H         1 UNK         0.0600 
    242 H242       -8.6803  -18.6577  -53.4693 H         1 UNK         0.3800 
    243 H243       -6.9485  -18.5010  -53.3394 H         1 UNK         0.3800 
    244 H244       -5.6332  -19.1711  -49.1047 H         1 UNK         0.0800 
    245 H245       -6.6969  -20.2247  -49.9782 H         1 UNK         0.0800 
    246 H246       -8.1067  -17.3380  -46.5545 H         1 UNK         0.0800 
    247 H247       -7.9239  -16.6871  -48.1569 H         1 UNK         0.0800 
@<TRIPOS>BOND
     1    1    2 1    
     2    1  127 1    
     3    1  128 1    
     4    1  129 1    
     5    2    3 2    
     6    2    4 am   BACKBONE|DICT|INTERRES
     7    4    5 1    
     8    4  130 1    
     9    5    6 1    
    10    5   65 1    
    11    5  131 1    
    12    6    7 1    
    13    6  132 1    
    14    6  133 1    
    15    7    8 1    
    16    8    9 1    
    17    8  134 1    
    18    8  135 1    
    19    9   10 ar   
    20    9   14 ar   
    21   10   11 ar   
    22   10  136 1    
    23   11   12 ar   
    24   11  126 1    
    25   12   13 ar   
    26   12  137 1    
    27   13   14 ar   
    28   13   15 1    
    29   14  138 1    
    30   15   16 1    
    31   15  139 1    
    32   15  140 1    
    33   16   17 1    
    34   17   18 1    
    35   17  141 1    
    36   17  142 1    
    37   18   19 1    
    38   18   67 1    
    39   18  143 1    
    40   19   20 am   BACKBONE|DICT|INTERRES
    41   19  144 1    
    42   20   21 2    
    43   20   22 1    
    44   22   23 1    
    45   22   24 1    
    46   22  145 1    
    47   23  146 1    
    48   23  147 1    
    49   23  148 1    
    50   24   25 am   BACKBONE|DICT|INTERRES
    51   24  149 1    
    52   25   26 2    
    53   25   27 1    
    54   27   28 1    
    55   27   29 1    
    56   27  150 1    
    57   28  151 1    
    58   28  152 1    
    59   28  153 1    
    60   29   30 am   BACKBONE|DICT|INTERRES
    61   29  154 1    
    62   30   31 2    
    63   30   32 1    
    64   32   33 1    
    65   32   34 1    
    66   32  155 1    
    67   33  156 1    
    68   33  157 1    
    69   33  158 1    
    70   34   35 am   BACKBONE|DICT|INTERRES
    71   34  159 1    
    72   35   36 2    
    73   35   37 1    
    74   37   38 1    
    75   37   39 1    
    76   37  160 1    
    77   38  161 1    
    78   38  162 1    
    79   38  163 1    
    80   39   40 am   BACKBONE|DICT|INTERRES
    81   39  164 1    
    82   40   41 2    
    83   40   42 1    
    84   42   43 1    
    85   42   44 1    
    86   42  165 1    
    87   43  166 1    
    88   43  167 1    
    89   43  168 1    
    90   44   45 am   BACKBONE|DICT|INTERRES
    91   44  169 1    
    92   45   46 2    
    93   45   47 1    
    94   47   48 1    
    95   47   49 1    
    96   47  170 1    
    97   48  171 1    
    98   48  172 1    
    99   48  173 1    
   100   49   50 am   BACKBONE|DICT|INTERRES
   101   49  174 1    
   102   50   51 2    
   103   50   52 1    
   104   52   53 1    
   105   52   54 1    
   106   52  175 1    
   107   53  176 1    
   108   53  177 1    
   109   53  178 1    
   110   54   55 am   BACKBONE|DICT|INTERRES
   111   54  179 1    
   112   55   56 2    
   113   55   57 1    
   114   57   58 1    
   115   57   59 1    
   116   57  180 1    
   117   58  181 1    
   118   58  182 1    
   119   58  183 1    
   120   59   60 am   BACKBONE|DICT|INTERRES
   121   59  184 1    
   122   60   61 2    
   123   60   62 1    
   124   62   63 1    
   125   62   64 1    
   126   62  185 1    
   127   63  186 1    
   128   63  187 1    
   129   63  188 1    
   130   64   65 am   BACKBONE|DICT|INTERRES
   131   64  189 1    
   132   65   66 2    
   133   67   68 2    
   134   67   69 am   BACKBONE|DICT|INTERRES
   135   69   70 1    
   136   69  190 1    
   137   70   71 1    
   138   70   72 1    
   139   70  191 1    
   140   71  192 1    
   141   71  193 1    
   142   71  194 1    
   143   72   73 2    
   144   72   74 am   BACKBONE|DICT|INTERRES
   145   74   75 1    
   146   74  195 1    
   147   75   76 1    
   148   75   77 1    
   149   75  196 1    
   150   76  197 1    
   151   76  198 1    
   152   76  199 1    
   153   77   78 2    
   154   77   79 am   BACKBONE|DICT|INTERRES
   155   79   80 1    
   156   79  200 1    
   157   80   81 1    
   158   80   82 1    
   159   80  201 1    
   160   81  202 1    
   161   81  203 1    
   162   81  204 1    
   163   82   83 2    
   164   82   84 am   BACKBONE|DICT|INTERRES
   165   84   85 1    
   166   84  205 1    
   167   85   86 1    
   168   85   87 1    
   169   85  206 1    
   170   86  207 1    
   171   86  208 1    
   172   86  209 1    
   173   87   88 2    
   174   87   89 am   BACKBONE|DICT|INTERRES
   175   89   90 1    
   176   89  210 1    
   177   90   91 1    
   178   90   92 1    
   179   90  211 1    
   180   91  212 1    
   181   91  213 1    
   182   91  214 1    
   183   92   93 2    
   184   92   94 am   BACKBONE|DICT|INTERRES
   185   94   95 1    
   186   94  215 1    
   187   95   96 1    
   188   95   97 1    
   189   95  216 1    
   190   96  217 1    
   191   96  218 1    
   192   96  219 1    
   193   97   98 2    
   194   97   99 am   BACKBONE|DICT|INTERRES
   195   99  100 1    
   196   99  220 1    
   197  100  101 1    
   198  100  102 1    
   199  100  221 1    
   200  101  222 1    
   201  101  223 1    
   202  101  224 1    
   203  102  103 2    
   204  102  104 am   BACKBONE|DICT|INTERRES
   205  104  105 1    
   206  104  225 1    
   207  105  106 1    
   208  105  107 1    
   209  105  226 1    
   210  106  227 1    
   211  106  228 1    
   212  106  229 1    
   213  107  108 2    
   214  107  109 am   BACKBONE|DICT|INTERRES
   215  109  110 1    
   216  109  230 1    
   217  110  111 1    
   218  110  112 1    
   219  110  231 1    
   220  111  232 1    
   221  111  233 1    
   222  111  234 1    
   223  112  113 2    
   224  112  114 am   BACKBONE|DICT|INTERRES
   225  114  115 1    
   226  114  235 1    
   227  115  116 1    
   228  115  117 1    
   229  115  236 1    
   230  116  237 1    
   231  116  238 1    
   232  116  239 1    
   233  117  118 2    
   234  117  119 am   BACKBONE|DICT|INTERRES
   235  119  120 1    
   236  119  240 1    
   237  120  121 1    
   238  120  124 1    
   239  120  241 1    
   240  121  122 am   BACKBONE|DICT|INTERRES
   241  121  123 2    
   242  122  242 1    
   243  122  243 1    
   244  124  125 1    
   245  124  244 1    
   246  124  245 1    
   247  125  126 1    
   248  126  246 1    
   249  126  247 1    
@<TRIPOS>SUBSTRUCTURE
     1 UNK         1 GROUP             0       ****    0 ROOT    
