@<TRIPOS>MOLECULE
3R540
247   249    1
SMALL
USER_CHARGES


@<TRIPOS>ATOM
      1 CA          2.0048  -16.4244  -47.2156 C.3       0 UNK        -0.1800 
      2 C           1.3960  -15.2947  -46.4004 C.2       0 UNK         0.5000 
      3 O           2.0355  -14.7949  -45.4758 O.2       0 UNK        -0.5000 
      4 N           0.1735  -14.8697  -46.7500 N.am      1 UNK        -0.5000 
      5 CA         -0.5756  -13.8053  -46.0644 C.3       1 UNK         0.1400 
      6 C6         -2.0611  -13.7529  -46.5005 C.3       23 UNK        -0.0398 
      7 S7         -2.3295  -13.4413  -48.2848 S.3       23 UNK        -0.2404 
      8 C8         -3.4613  -14.7908  -48.7560 C.3       23 UNK        -0.0205 
      9 C9         -2.7119  -15.9902  -49.3161 C.ar      23 UNK        -0.0193 
     10 C10        -2.6559  -16.2006  -50.6976 C.ar      23 UNK        -0.1150 
     11 C11        -1.9753  -17.3037  -51.2190 C.ar      23 UNK        -0.0193 
     12 C12        -1.3317  -18.1864  -50.3507 C.ar      23 UNK        -0.1150 
     13 C13        -1.3867  -17.9970  -48.9665 C.ar      23 UNK        -0.0193 
     14 C14        -2.0895  -16.9004  -48.4573 C.ar      23 UNK        -0.1150 
     15 C15        -0.7367  -18.9765  -47.9972 C.3       23 UNK        -0.0205 
     16 S16         0.8201  -19.7216  -48.5953 S.3       23 UNK        -0.2404 
     17 C17         1.4909  -20.3609  -47.0248 C.3       23 UNK        -0.0398 
     18 CA          1.2306  -21.8455  -46.6506 C.3       11 UNK         0.1400 
     19 N           1.5254  -22.0383  -45.2282 N.am      11 UNK        -0.5000 
     20 C           1.5634  -23.2002  -44.5661 C.2       10 UNK         0.5000 
     21 O           1.3552  -24.2946  -45.0878 O.2       10 UNK        -0.5000 
     22 CA          1.8561  -23.1089  -43.0574 C.3       10 UNK         0.1400 
     23 CB          3.3541  -22.8856  -42.7990 C.3       10 UNK        -0.1800 
     24 N           1.0883  -22.0385  -42.4195 N.am      10 UNK        -0.5000 
     25 C          -0.2297  -22.0987  -42.1832 C.2       9 UNK         0.5000 
     26 O          -0.9225  -23.0889  -42.4192 O.2       9 UNK        -0.5000 
     27 CA         -0.8927  -20.8322  -41.6086 C.3       9 UNK         0.1400 
     28 CB         -0.7358  -20.7843  -40.0813 C.3       9 UNK        -0.1800 
     29 N          -0.3793  -19.5890  -42.1862 N.am      9 UNK        -0.5000 
     30 C          -0.4547  -19.2591  -43.4831 C.2       8 UNK         0.5000 
     31 O          -0.9612  -19.9705  -44.3469 O.2       8 UNK        -0.5000 
     32 CA          0.1901  -17.9299  -43.8999 C.3       8 UNK         0.1400 
     33 CB         -0.7286  -16.7545  -43.5412 C.3       8 UNK        -0.1800 
     34 N           1.5138  -17.7301  -43.3138 N.am      8 UNK        -0.5000 
     35 C           2.5632  -18.5546  -43.4486 C.2       7 UNK         0.5000 
     36 O           2.5427  -19.5988  -44.0991 O.2       7 UNK        -0.5000 
     37 CA          3.8338  -18.1768  -42.6727 C.3       7 UNK         0.1400 
     38 CB          4.6099  -17.0606  -43.3889 C.3       7 UNK        -0.1800 
     39 N           3.5142  -17.7672  -41.3064 N.am      7 UNK        -0.5000 
     40 C           3.0708  -18.6002  -40.3534 C.2       6 UNK         0.5000 
     41 O           2.9588  -19.8177  -40.5031 O.2       6 UNK        -0.5000 
     42 CA          2.6466  -17.9533  -39.0219 C.3       6 UNK         0.1400 
     43 CB          3.8618  -17.7558  -38.1035 C.3       6 UNK        -0.1800 
     44 N           1.9703  -16.6684  -39.2140 N.am      6 UNK        -0.5000 
     45 C           0.7621  -16.5275  -39.7780 C.2       5 UNK         0.5000 
     46 O           0.0735  -17.4739  -40.1595 O.2       5 UNK        -0.5000 
     47 CA          0.2609  -15.0848  -39.9903 C.3       5 UNK         0.1400 
     48 CB         -0.4604  -14.5740  -38.7343 C.3       5 UNK        -0.1800 
     49 N           1.3263  -14.1445  -40.3573 N.am      5 UNK        -0.5000 
     50 C           2.0588  -14.2349  -41.4747 C.2       4 UNK         0.5000 
     51 O           1.9205  -15.1324  -42.3053 O.2       4 UNK        -0.5000 
     52 CA          3.1728  -13.2002  -41.6627 C.3       4 UNK         0.1400 
     53 CB          4.4003  -13.6074  -40.8208 C.3       4 UNK        -0.1800 
     54 N           3.5255  -13.1289  -43.0805 N.am      4 UNK        -0.5000 
     55 C           4.3374  -12.2184  -43.6312 C.2       3 UNK         0.5000 
     56 O           4.8327  -11.2771  -43.0096 O.2       3 UNK        -0.5000 
     57 CA          4.6499  -12.3794  -45.1264 C.3       3 UNK         0.1400 
     58 CB          5.2940  -13.7426  -45.4357 C.3       3 UNK        -0.1800 
     59 N           3.4470  -12.2012  -45.9358 N.am      3 UNK        -0.5000 
     60 C           3.0325  -11.0215  -46.4223 C.2       2 UNK         0.5000 
     61 O           3.6201   -9.9583  -46.2175 O.2       2 UNK        -0.5000 
     62 CA          1.7712  -11.0108  -47.3109 C.3       2 UNK         0.1400 
     63 CB          2.1608  -10.8815  -48.7919 C.3       2 UNK        -0.1800 
     64 N           0.9437  -12.2042  -47.1509 N.am      2 UNK        -0.5000 
     65 C           0.1040  -12.4190  -46.1301 C.2       1 UNK         0.5000 
     66 O          -0.1193  -11.5911  -45.2457 O.2       1 UNK        -0.5000 
     67 C          -0.1774  -22.3668  -47.0251 C.2       11 UNK         0.5000 
     68 O          -0.3283  -23.0487  -48.0405 O.2       11 UNK        -0.5000 
     69 N          -1.1752  -22.0897  -46.1740 N.am      12 UNK        -0.5000 
     70 CA         -2.5794  -22.4770  -46.3384 C.3       12 UNK         0.1400 
     71 CB         -3.4239  -21.7729  -45.2650 C.3       12 UNK        -0.1800 
     72 C          -2.8502  -23.9946  -46.3337 C.2       12 UNK         0.5000 
     73 O          -3.9512  -24.4054  -46.7007 O.2       12 UNK        -0.5000 
     74 N          -1.8579  -24.8088  -45.9475 N.am      13 UNK        -0.5000 
     75 CA         -1.8999  -26.2649  -46.0859 C.3       13 UNK         0.1400 
     76 CB         -0.7830  -26.8877  -45.2353 C.3       13 UNK        -0.1800 
     77 C          -1.7834  -26.7277  -47.5540 C.2       13 UNK         0.5000 
     78 O          -2.2145  -27.8395  -47.8631 O.2       13 UNK        -0.5000 
     79 N          -1.2075  -25.8830  -48.4221 N.am      14 UNK        -0.5000 
     80 CA         -1.0158  -26.1470  -49.8475 C.3       14 UNK         0.1400 
     81 CB          0.4889  -26.1164  -50.1612 C.3       14 UNK        -0.1800 
     82 C          -1.7662  -25.1333  -50.7277 C.2       14 UNK         0.5000 
     83 O          -2.3478  -25.5347  -51.7362 O.2       14 UNK        -0.5000 
     84 N          -1.7259  -23.8496  -50.3500 N.am      15 UNK        -0.5000 
     85 CA         -2.2751  -22.7276  -51.1076 C.3       15 UNK         0.1400 
     86 CB         -1.1311  -21.7419  -51.4016 C.3       15 UNK        -0.1800 
     87 C          -3.4724  -22.1010  -50.3625 C.2       15 UNK         0.5000 
     88 O          -4.2855  -22.8339  -49.7989 O.2       15 UNK        -0.5000 
     89 N          -3.5884  -20.7657  -50.4049 N.am      16 UNK        -0.5000 
     90 CA         -4.6067  -19.8851  -49.8089 C.3       16 UNK         0.1400 
     91 CB         -4.6677  -20.0280  -48.2771 C.3       16 UNK        -0.1800 
     92 C          -6.0195  -19.9932  -50.4134 C.2       16 UNK         0.5000 
     93 O          -6.6972  -18.9707  -50.5287 O.2       16 UNK        -0.5000 
     94 N          -6.4532  -21.2030  -50.7851 N.am      17 UNK        -0.5000 
     95 CA         -7.7777  -21.5180  -51.3282 C.3       17 UNK         0.1400 
     96 CB         -8.0563  -23.0162  -51.1125 C.3       17 UNK        -0.1800 
     97 C          -7.9580  -21.0707  -52.7974 C.2       17 UNK         0.5000 
     98 O          -8.2524  -21.8933  -53.6672 O.2       17 UNK        -0.5000 
     99 N          -7.7837  -19.7628  -53.0320 N.am      18 UNK        -0.5000 
    100 CA        -7.9031  -19.0389  -54.3015 C.3       18 UNK         0.1400 
    101 CB        -9.3594  -19.0967  -54.8134 C.3       18 UNK        -0.1800 
    102 C         -6.8839  -19.4953  -55.3672 C.2       18 UNK         0.5000 
    103 O         -5.9601  -20.2550  -55.0695 O.2       18 UNK        -0.5000 
    104 N         -7.0706  -19.0288  -56.6096 N.am      19 UNK        -0.5000 
    105 CA        -6.2295  -19.3257  -57.7773 C.3       19 UNK         0.1400 
    106 CB        -6.6906  -18.4455  -58.9496 C.3       19 UNK        -0.1800 
    107 C         -6.2022  -20.8129  -58.1933 C.2       19 UNK         0.5000 
    108 O         -5.3492  -21.2046  -58.9896 O.2       19 UNK        -0.5000 
    109 N         -7.1229  -21.6178  -57.6471 N.am      20 UNK        -0.5000 
    110 CA        -7.1302  -23.0741  -57.7613 C.3       20 UNK         0.1400 
    111 CB        -8.5052  -23.5965  -57.3170 C.3       20 UNK        -0.1800 
    112 C         -6.0100  -23.7448  -56.9392 C.2       20 UNK         0.5000 
    113 O         -5.5973  -24.8514  -57.2892 O.2       20 UNK        -0.5000 
    114 N         -5.5499  -23.0809  -55.8690 N.am      21 UNK        -0.5000 
    115 CA        -4.5298  -23.5817  -54.9491 C.3       21 UNK         0.1400 
    116 CB        -5.1258  -23.6209  -53.5351 C.3       21 UNK        -0.1800 
    117 C         -3.2568  -22.7193  -54.9940 C.2       21 UNK         0.5000 
    118 O         -2.1567  -23.2718  -54.9766 O.2       21 UNK        -0.5000 
    119 N         -3.4150  -21.3911  -55.0589 N.am      22 UNK        -0.5000 
    120 CA        -2.3273  -20.4182  -55.2333 C.3       22 UNK         0.1400 
    121 C         -1.6858  -20.5216  -56.6437 C.2       22 UNK         0.5000 
    122 N         -0.3704  -20.6653  -56.7310 N.am      22 UNK        -0.7600 
    123 O         -2.3677  -20.4238  -57.6601 O.2       22 UNK        -0.5000 
    124 C124       -2.8142  -18.9702  -54.9714 C.3       23 UNK        -0.0398 
    125 S125       -3.2645  -18.6892  -53.2263 S.3       23 UNK        -0.2404 
    126 C126       -1.9351  -17.5552  -52.7164 C.3       23 UNK        -0.0205 
    127 H127        2.1605  -17.2999  -46.5857 H         1 UNK         0.0600 
    128 H128        1.3659  -16.7097  -48.0513 H         1 UNK         0.0600 
    129 H129        2.9708  -16.1178  -47.6162 H         1 UNK         0.0600 
    130 H130       -0.2906  -15.2817  -47.5475 H         1 UNK         0.3000 
    131 H131       -0.5772  -14.0591  -45.0046 H         1 UNK         0.0600 
    132 H132       -2.5917  -12.9813  -45.9397 H         1 UNK         0.0800 
    133 H133       -2.5422  -14.6890  -46.2172 H         1 UNK         0.0800 
    134 H134       -4.0786  -15.0923  -47.9088 H         1 UNK         0.0800 
    135 H135       -4.1562  -14.4068  -49.5044 H         1 UNK         0.0800 
    136 H136       -3.1487  -15.5107  -51.3681 H         1 UNK         0.1150 
    137 H137       -0.7941  -19.0265  -50.7608 H         1 UNK         0.1150 
    138 H138       -2.1547  -16.7550  -47.3885 H         1 UNK         0.1150 
    139 H139       -0.5500  -18.4647  -47.0542 H         1 UNK         0.0800 
    140 H140       -1.4442  -19.7747  -47.7812 H         1 UNK         0.0800 
    141 H141        1.1131  -19.7192  -46.2325 H         1 UNK         0.0800 
    142 H142        2.5672  -20.1842  -47.0353 H         1 UNK         0.0800 
    143 H143        1.9413  -22.4552  -47.2120 H         1 UNK         0.0600 
    144 H144        1.7492  -21.1922  -44.7098 H         1 UNK         0.3000 
    145 H145        1.5722  -24.0601  -42.6020 H         1 UNK         0.0600 
    146 H146        3.5716  -22.8791  -41.7307 H         1 UNK         0.0600 
    147 H147        3.9502  -23.6807  -43.2485 H         1 UNK         0.0600 
    148 H148        3.7015  -21.9390  -43.2144 H         1 UNK         0.0600 
    149 H149        1.5846  -21.1853  -42.1982 H         1 UNK         0.3000 
    150 H150       -1.9584  -20.8862  -41.8404 H         1 UNK         0.0600 
    151 H151       -1.1180  -21.6952  -39.6189 H         1 UNK         0.0600 
    152 H152       -1.2883  -19.9468  -39.6550 H         1 UNK         0.0600 
    153 H153        0.3094  -20.6784  -39.7881 H         1 UNK         0.0600 
    154 H154        0.0152  -18.9150  -41.5368 H         1 UNK         0.3000 
    155 H155        0.3202  -17.9334  -44.9809 H         1 UNK         0.0600 
    156 H156       -1.0373  -16.7818  -42.4968 H         1 UNK         0.0600 
    157 H157       -1.6328  -16.7682  -44.1506 H         1 UNK         0.0600 
    158 H158       -0.2302  -15.8033  -43.7099 H         1 UNK         0.0600 
    159 H159        1.6495  -16.8574  -42.8072 H         1 UNK         0.3000 
    160 H160        4.4748  -19.0599  -42.6261 H         1 UNK         0.0600 
    161 H161        5.5309  -16.8165  -42.8597 H         1 UNK         0.0600 
    162 H162        4.0223  -16.1475  -43.4763 H         1 UNK         0.0600 
    163 H163        4.8855  -17.3660  -44.3991 H         1 UNK         0.0600 
    164 H164        3.5246  -16.7770  -41.1159 H         1 UNK         0.3000 
    165 H165        1.9509  -18.6350  -38.5277 H         1 UNK         0.0600 
    166 H166        3.5613  -17.3672  -37.1304 H         1 UNK         0.0600 
    167 H167        4.3767  -18.7016  -37.9297 H         1 UNK         0.0600 
    168 H168        4.5854  -17.0621  -38.5337 H         1 UNK         0.0600 
    169 H169        2.4669  -15.8397  -38.9227 H         1 UNK         0.3000 
    170 H170       -0.4600  -15.1047  -40.8098 H         1 UNK         0.0600 
    171 H171       -1.2722  -15.2453  -38.4507 H         1 UNK         0.0600 
    172 H172        0.2164  -14.4988  -37.8824 H         1 UNK         0.0600 
    173 H173       -0.8987  -13.5903  -38.9038 H         1 UNK         0.0600 
    174 H174        1.5037  -13.3889  -39.7110 H         1 UNK         0.3000 
    175 H175        2.8029  -12.2255  -41.3388 H         1 UNK         0.0600 
    176 H176        4.8234  -14.5531  -41.1621 H         1 UNK         0.0600 
    177 H177        5.1880  -12.8560  -40.8663 H         1 UNK         0.0600 
    178 H178        4.1383  -13.7251  -39.7687 H         1 UNK         0.0600 
    179 H179        3.1004  -13.8498  -43.6572 H         1 UNK         0.3000 
    180 H180        5.3836  -11.6152  -45.3926 H         1 UNK         0.0600 
    181 H181        4.6173  -14.5744  -45.2462 H         1 UNK         0.0600 
    182 H182        6.1836  -13.9003  -44.8247 H         1 UNK         0.0600 
    183 H183        5.6028  -13.8001  -46.4794 H         1 UNK         0.0600 
    184 H184        2.8711  -13.0247  -46.0683 H         1 UNK         0.3000 
    185 H185        1.1817  -10.1332  -47.0369 H         1 UNK         0.0600 
    186 H186        2.7525   -9.9813  -48.9638 H         1 UNK         0.0600 
    187 H187        2.7536  -11.7331  -49.1282 H         1 UNK         0.0600 
    188 H188        1.2777  -10.8141  -49.4277 H         1 UNK         0.0600 
    189 H189        1.0603  -12.9367  -47.8356 H         1 UNK         0.3000 
    190 H190       -0.9780  -21.4850  -45.3786 H         1 UNK         0.3000 
    191 H191       -2.8984  -22.1144  -47.3160 H         1 UNK         0.0600 
    192 H192       -3.0987  -22.0442  -44.2598 H         1 UNK         0.0600 
    193 H193       -4.4785  -22.0366  -45.3544 H         1 UNK         0.0600 
    194 H194       -3.3566  -20.6892  -45.3593 H         1 UNK         0.0600 
    195 H195       -0.9811  -24.4042  -45.6454 H         1 UNK         0.3000 
    196 H196       -2.8576  -26.6196  -45.6992 H         1 UNK         0.0600 
    197 H197        0.2048  -26.6321  -45.6196 H         1 UNK         0.0600 
    198 H198       -0.8589  -27.9757  -45.2315 H         1 UNK         0.0600 
    199 H199       -0.8386  -26.5532  -44.1991 H         1 UNK         0.0600 
    200 H200       -0.8964  -24.9780  -48.0867 H         1 UNK         0.3000 
    201 H201       -1.3911  -27.1386  -50.1087 H         1 UNK         0.0600 
    202 H202        0.9332  -25.1515  -49.9125 H         1 UNK         0.0600 
    203 H203        0.6718  -26.3005  -51.2207 H         1 UNK         0.0600 
    204 H204        1.0222  -26.8842  -49.6007 H         1 UNK         0.0600 
    205 H205       -1.2359  -23.5986  -49.4943 H         1 UNK         0.3000 
    206 H206       -2.6519  -23.0693  -52.0701 H         1 UNK         0.0600 
    207 H207       -0.3144  -22.2405  -51.9238 H         1 UNK         0.0600 
    208 H208       -1.4573  -20.9231  -52.0421 H         1 UNK         0.0600 
    209 H209       -0.7248  -21.3242  -50.4815 H         1 UNK         0.0600 
    210 H210       -2.8964  -20.2668  -50.9461 H         1 UNK         0.3000 
    211 H211       -4.2678  -18.8703  -50.0221 H         1 UNK         0.0600 
    212 H212       -4.9964  -21.0213  -47.9714 H         1 UNK         0.0600 
    213 H213       -5.3693  -19.3109  -47.8492 H         1 UNK         0.0600 
    214 H214       -3.7000  -19.8333  -47.8210 H         1 UNK         0.0600 
    215 H215       -5.8304  -21.9865  -50.6146 H         1 UNK         0.3000 
    216 H216       -8.5207  -20.9687  -50.7464 H         1 UNK         0.0600 
    217 H217       -9.0421  -23.2920  -51.4889 H         1 UNK         0.0600 
    218 H218       -8.0334  -23.2700  -50.0525 H         1 UNK         0.0600 
    219 H219       -7.3225  -23.6420  -51.6183 H         1 UNK         0.0600 
    220 H220       -7.4795  -19.2054  -52.2381 H         1 UNK         0.3000 
    221 H221       -7.6651  -17.9988  -54.0753 H         1 UNK         0.0600 
    222 H222       -9.6239  -20.0912  -55.1748 H         1 UNK         0.0600 
    223 H223      -10.0631  -18.8333  -54.0236 H         1 UNK         0.0600 
    224 H224       -9.5265  -18.3945  -55.6304 H         1 UNK         0.0600 
    225 H225       -7.8537  -18.4141  -56.7780 H         1 UNK         0.3000 
    226 H226       -5.2035  -19.0498  -57.5265 H         1 UNK         0.0600 
    227 H227       -6.6271  -17.3867  -58.6979 H         1 UNK         0.0600 
    228 H228       -6.0660  -18.6052  -59.8295 H         1 UNK         0.0600 
    229 H229       -7.7206  -18.6636  -59.2343 H         1 UNK         0.0600 
    230 H230       -7.7929  -21.2112  -57.0114 H         1 UNK         0.3000 
    231 H231       -6.9825  -23.3421  -58.8096 H         1 UNK         0.0600 
    232 H232       -9.3040  -23.1773  -57.9291 H         1 UNK         0.0600 
    233 H233       -8.7122  -23.3462  -56.2753 H         1 UNK         0.0600 
    234 H234       -8.5598  -24.6818  -57.4109 H         1 UNK         0.0600 
    235 H235       -5.9258  -22.1615  -55.6620 H         1 UNK         0.3000 
    236 H236       -4.2437  -24.6012  -55.2155 H         1 UNK         0.0600 
    237 H237       -4.4716  -24.1546  -52.8473 H         1 UNK         0.0600 
    238 H238       -5.2927  -22.6195  -53.1370 H         1 UNK         0.0600 
    239 H239       -6.0807  -24.1459  -53.5342 H         1 UNK         0.0600 
    240 H240       -4.3546  -20.9990  -55.0544 H         1 UNK         0.3000 
    241 H241       -1.5576  -20.6514  -54.4952 H         1 UNK         0.0600 
    242 H242        0.0557  -20.7169  -57.6434 H         1 UNK         0.3800 
    243 H243        0.2095  -20.7503  -55.9106 H         1 UNK         0.3800 
    244 H244       -2.0458  -18.2493  -55.2568 H         1 UNK         0.0800 
    245 H245       -3.6807  -18.7392  -55.5922 H         1 UNK         0.0800 
    246 H246       -0.9673  -17.9775  -52.9921 H         1 UNK         0.0800 
    247 H247       -2.0305  -16.6144  -53.2609 H         1 UNK         0.0800 
@<TRIPOS>BOND
     1    1    2 1    
     2    1  127 1    
     3    1  128 1    
     4    1  129 1    
     5    2    3 2    
     6    2    4 am   BACKBONE|DICT|INTERRES
     7    4    5 1    
     8    4  130 1    
     9    5    6 1    
    10    5   65 1    
    11    5  131 1    
    12    6    7 1    
    13    6  132 1    
    14    6  133 1    
    15    7    8 1    
    16    8    9 1    
    17    8  134 1    
    18    8  135 1    
    19    9   10 ar   
    20    9   14 ar   
    21   10   11 ar   
    22   10  136 1    
    23   11   12 ar   
    24   11  126 1    
    25   12   13 ar   
    26   12  137 1    
    27   13   14 ar   
    28   13   15 1    
    29   14  138 1    
    30   15   16 1    
    31   15  139 1    
    32   15  140 1    
    33   16   17 1    
    34   17   18 1    
    35   17  141 1    
    36   17  142 1    
    37   18   19 1    
    38   18   67 1    
    39   18  143 1    
    40   19   20 am   BACKBONE|DICT|INTERRES
    41   19  144 1    
    42   20   21 2    
    43   20   22 1    
    44   22   23 1    
    45   22   24 1    
    46   22  145 1    
    47   23  146 1    
    48   23  147 1    
    49   23  148 1    
    50   24   25 am   BACKBONE|DICT|INTERRES
    51   24  149 1    
    52   25   26 2    
    53   25   27 1    
    54   27   28 1    
    55   27   29 1    
    56   27  150 1    
    57   28  151 1    
    58   28  152 1    
    59   28  153 1    
    60   29   30 am   BACKBONE|DICT|INTERRES
    61   29  154 1    
    62   30   31 2    
    63   30   32 1    
    64   32   33 1    
    65   32   34 1    
    66   32  155 1    
    67   33  156 1    
    68   33  157 1    
    69   33  158 1    
    70   34   35 am   BACKBONE|DICT|INTERRES
    71   34  159 1    
    72   35   36 2    
    73   35   37 1    
    74   37   38 1    
    75   37   39 1    
    76   37  160 1    
    77   38  161 1    
    78   38  162 1    
    79   38  163 1    
    80   39   40 am   BACKBONE|DICT|INTERRES
    81   39  164 1    
    82   40   41 2    
    83   40   42 1    
    84   42   43 1    
    85   42   44 1    
    86   42  165 1    
    87   43  166 1    
    88   43  167 1    
    89   43  168 1    
    90   44   45 am   BACKBONE|DICT|INTERRES
    91   44  169 1    
    92   45   46 2    
    93   45   47 1    
    94   47   48 1    
    95   47   49 1    
    96   47  170 1    
    97   48  171 1    
    98   48  172 1    
    99   48  173 1    
   100   49   50 am   BACKBONE|DICT|INTERRES
   101   49  174 1    
   102   50   51 2    
   103   50   52 1    
   104   52   53 1    
   105   52   54 1    
   106   52  175 1    
   107   53  176 1    
   108   53  177 1    
   109   53  178 1    
   110   54   55 am   BACKBONE|DICT|INTERRES
   111   54  179 1    
   112   55   56 2    
   113   55   57 1    
   114   57   58 1    
   115   57   59 1    
   116   57  180 1    
   117   58  181 1    
   118   58  182 1    
   119   58  183 1    
   120   59   60 am   BACKBONE|DICT|INTERRES
   121   59  184 1    
   122   60   61 2    
   123   60   62 1    
   124   62   63 1    
   125   62   64 1    
   126   62  185 1    
   127   63  186 1    
   128   63  187 1    
   129   63  188 1    
   130   64   65 am   BACKBONE|DICT|INTERRES
   131   64  189 1    
   132   65   66 2    
   133   67   68 2    
   134   67   69 am   BACKBONE|DICT|INTERRES
   135   69   70 1    
   136   69  190 1    
   137   70   71 1    
   138   70   72 1    
   139   70  191 1    
   140   71  192 1    
   141   71  193 1    
   142   71  194 1    
   143   72   73 2    
   144   72   74 am   BACKBONE|DICT|INTERRES
   145   74   75 1    
   146   74  195 1    
   147   75   76 1    
   148   75   77 1    
   149   75  196 1    
   150   76  197 1    
   151   76  198 1    
   152   76  199 1    
   153   77   78 2    
   154   77   79 am   BACKBONE|DICT|INTERRES
   155   79   80 1    
   156   79  200 1    
   157   80   81 1    
   158   80   82 1    
   159   80  201 1    
   160   81  202 1    
   161   81  203 1    
   162   81  204 1    
   163   82   83 2    
   164   82   84 am   BACKBONE|DICT|INTERRES
   165   84   85 1    
   166   84  205 1    
   167   85   86 1    
   168   85   87 1    
   169   85  206 1    
   170   86  207 1    
   171   86  208 1    
   172   86  209 1    
   173   87   88 2    
   174   87   89 am   BACKBONE|DICT|INTERRES
   175   89   90 1    
   176   89  210 1    
   177   90   91 1    
   178   90   92 1    
   179   90  211 1    
   180   91  212 1    
   181   91  213 1    
   182   91  214 1    
   183   92   93 2    
   184   92   94 am   BACKBONE|DICT|INTERRES
   185   94   95 1    
   186   94  215 1    
   187   95   96 1    
   188   95   97 1    
   189   95  216 1    
   190   96  217 1    
   191   96  218 1    
   192   96  219 1    
   193   97   98 2    
   194   97   99 am   BACKBONE|DICT|INTERRES
   195   99  100 1    
   196   99  220 1    
   197  100  101 1    
   198  100  102 1    
   199  100  221 1    
   200  101  222 1    
   201  101  223 1    
   202  101  224 1    
   203  102  103 2    
   204  102  104 am   BACKBONE|DICT|INTERRES
   205  104  105 1    
   206  104  225 1    
   207  105  106 1    
   208  105  107 1    
   209  105  226 1    
   210  106  227 1    
   211  106  228 1    
   212  106  229 1    
   213  107  108 2    
   214  107  109 am   BACKBONE|DICT|INTERRES
   215  109  110 1    
   216  109  230 1    
   217  110  111 1    
   218  110  112 1    
   219  110  231 1    
   220  111  232 1    
   221  111  233 1    
   222  111  234 1    
   223  112  113 2    
   224  112  114 am   BACKBONE|DICT|INTERRES
   225  114  115 1    
   226  114  235 1    
   227  115  116 1    
   228  115  117 1    
   229  115  236 1    
   230  116  237 1    
   231  116  238 1    
   232  116  239 1    
   233  117  118 2    
   234  117  119 am   BACKBONE|DICT|INTERRES
   235  119  120 1    
   236  119  240 1    
   237  120  121 1    
   238  120  124 1    
   239  120  241 1    
   240  121  122 am   BACKBONE|DICT|INTERRES
   241  121  123 2    
   242  122  242 1    
   243  122  243 1    
   244  124  125 1    
   245  124  244 1    
   246  124  245 1    
   247  125  126 1    
   248  126  246 1    
   249  126  247 1    
@<TRIPOS>SUBSTRUCTURE
     1 UNK         1 GROUP             0       ****    0 ROOT    
