@<TRIPOS>MOLECULE
3R540
247   249    1
SMALL
USER_CHARGES


@<TRIPOS>ATOM
      1 CA         -1.4734   -7.7853  -50.4038 C.3       0 UNK        -0.1800 
      2 C          -1.5852   -9.2001  -50.9549 C.2       0 UNK         0.5000 
      3 O          -1.5496   -9.3882  -52.1714 O.2       0 UNK        -0.5000 
      4 N          -1.7285  -10.1921  -50.0674 N.am      1 UNK        -0.5000 
      5 CA         -1.7813  -11.6170  -50.4060 C.3       1 UNK         0.1400 
      6 C6         -2.3389  -12.4497  -49.2234 C.3       23 UNK        -0.0398 
      7 S7         -2.9360  -14.0983  -49.7319 S.3       23 UNK        -0.2404 
      8 C8         -3.9548  -14.5416  -48.2866 C.3       23 UNK        -0.0205 
      9 C9         -4.6106  -15.9141  -48.4068 C.ar      23 UNK        -0.0193 
     10 C10        -5.3241  -16.2653  -49.5571 C.ar      23 UNK        -0.1150 
     11 C11        -5.9693  -17.5010  -49.6474 C.ar      23 UNK        -0.0193 
     12 C12        -5.9194  -18.3827  -48.5641 C.ar      23 UNK        -0.1150 
     13 C13        -5.2177  -18.0474  -47.3993 C.ar      23 UNK        -0.0193 
     14 C14        -4.5589  -16.8136  -47.3357 C.ar      23 UNK        -0.1150 
     15 C15        -5.2151  -18.9646  -46.1758 C.3       23 UNK        -0.0205 
     16 S16        -5.1342  -20.7441  -46.5756 S.3       23 UNK        -0.2404 
     17 C17        -4.9406  -21.4854  -44.9188 C.3       23 UNK        -0.0398 
     18 CA         -3.5297  -22.0937  -44.7083 C.3       11 UNK         0.1400 
     19 N          -3.1172  -22.1762  -43.3030 N.am      11 UNK        -0.5000 
     20 C          -3.7383  -22.7851  -42.2835 C.2       10 UNK         0.5000 
     21 O          -4.8207  -23.3601  -42.3984 O.2       10 UNK        -0.5000 
     22 CA         -3.0185  -22.7962  -40.9237 C.3       10 UNK         0.1400 
     23 CB         -2.1540  -24.0597  -40.8000 C.3       10 UNK        -0.1800 
     24 N          -2.1642  -21.6204  -40.7412 N.am      10 UNK        -0.5000 
     25 C          -2.2810  -20.7326  -39.7432 C.2       9 UNK         0.5000 
     26 O          -3.1007  -20.8323  -38.8292 O.2       9 UNK        -0.5000 
     27 CA         -1.3293  -19.5160  -39.7652 C.3       9 UNK         0.1400 
     28 CB         -0.0896  -19.7874  -38.8997 C.3       9 UNK        -0.1800 
     29 N          -0.8896  -19.1416  -41.1093 N.am      9 UNK        -0.5000 
     30 C          -1.6925  -18.7216  -42.0959 C.2       8 UNK         0.5000 
     31 O          -2.8928  -18.4918  -41.9477 O.2       8 UNK        -0.5000 
     32 CA         -1.0677  -18.5710  -43.4959 C.3       8 UNK         0.1400 
     33 CB         -0.8613  -17.0865  -43.8326 C.3       8 UNK        -0.1800 
     34 N           0.1967  -19.2902  -43.6984 N.am      8 UNK        -0.5000 
     35 C           0.3899  -20.6122  -43.5751 C.2       7 UNK         0.5000 
     36 O          -0.4888  -21.4004  -43.2274 O.2       7 UNK        -0.5000 
     37 CA          1.8089  -21.1381  -43.8387 C.3       7 UNK         0.1400 
     38 CB          2.0270  -21.3960  -45.3359 C.3       7 UNK        -0.1800 
     39 N           2.8235  -20.2103  -43.3425 N.am      7 UNK        -0.5000 
     40 C           3.2168  -20.1451  -42.0625 C.2       6 UNK         0.5000 
     41 O           2.7878  -20.8855  -41.1773 O.2       6 UNK        -0.5000 
     42 CA          4.2547  -19.0643  -41.7063 C.3       6 UNK         0.1400 
     43 CB          5.6805  -19.6004  -41.9056 C.3       6 UNK        -0.1800 
     44 N           4.0891  -17.8387  -42.4878 N.am      6 UNK        -0.5000 
     45 C           3.0655  -16.9848  -42.3508 C.2       5 UNK         0.5000 
     46 O           2.1684  -17.1180  -41.5180 O.2       5 UNK        -0.5000 
     47 CA          3.0228  -15.7974  -43.3326 C.3       5 UNK         0.1400 
     48 CB          3.7748  -14.5916  -42.7495 C.3       5 UNK        -0.1800 
     49 N           3.5544  -16.0979  -44.6676 N.am      5 UNK        -0.5000 
     50 C           3.0632  -17.0319  -45.4920 C.2       4 UNK         0.5000 
     51 O           2.1651  -17.8161  -45.1774 O.2       4 UNK        -0.5000 
     52 CA          3.6834  -17.1235  -46.8939 C.3       4 UNK         0.1400 
     53 CB          4.4589  -18.4395  -47.0603 C.3       4 UNK        -0.1800 
     54 N           2.6078  -17.0785  -47.8753 N.am      4 UNK        -0.5000 
     55 C           2.0616  -15.9598  -48.3598 C.2       3 UNK         0.5000 
     56 O           2.5120  -14.8282  -48.1629 O.2       3 UNK        -0.5000 
     57 CA          0.7382  -16.1492  -49.1233 C.3       3 UNK         0.1400 
     58 CB         -0.4304  -16.0945  -48.1267 C.3       3 UNK        -0.1800 
     59 N           0.5005  -15.1555  -50.1672 N.am      3 UNK        -0.5000 
     60 C           1.2736  -14.9222  -51.2364 C.2       2 UNK         0.5000 
     61 O           2.3074  -15.5449  -51.4807 O.2       2 UNK        -0.5000 
     62 CA          0.8002  -13.8295  -52.2221 C.3       2 UNK         0.1400 
     63 CB          0.4975  -14.4304  -53.6053 C.3       2 UNK        -0.1800 
     64 N          -0.3903  -13.1077  -51.7630 N.am      2 UNK        -0.5000 
     65 C          -0.3928  -12.1304  -50.8483 C.2       1 UNK         0.5000 
     66 O           0.6295  -11.6760  -50.3289 O.2       1 UNK        -0.5000 
     67 C          -3.3343  -23.4315  -45.4534 C.2       11 UNK         0.5000 
     68 O          -2.6887  -23.4552  -46.5017 O.2       11 UNK        -0.5000 
     69 N          -3.8321  -24.5271  -44.8662 N.am      12 UNK        -0.5000 
     70 CA         -3.7244  -25.9029  -45.3608 C.3       12 UNK         0.1400 
     71 CB         -4.7151  -26.7775  -44.5762 C.3       12 UNK        -0.1800 
     72 C          -2.3001  -26.4959  -45.2887 C.2       12 UNK         0.5000 
     73 O          -2.0713  -27.5830  -45.8199 O.2       12 UNK        -0.5000 
     74 N          -1.3670  -25.7805  -44.6441 N.am      13 UNK        -0.5000 
     75 CA          0.0572  -26.1148  -44.5551 C.3       13 UNK         0.1400 
     76 CB          0.7093  -25.2031  -43.5032 C.3       13 UNK        -0.1800 
     77 C           0.8119  -26.0106  -45.8981 C.2       13 UNK         0.5000 
     78 O           1.9211  -26.5348  -46.0072 O.2       13 UNK        -0.5000 
     79 N           0.2104  -25.3428  -46.8877 N.am      14 UNK        -0.5000 
     80 CA          0.7135  -25.1883  -48.2465 C.3       14 UNK         0.1400 
     81 CB          1.6328  -23.9543  -48.3079 C.3       14 UNK        -0.1800 
     82 C          -0.4837  -25.0898  -49.2079 C.2       14 UNK         0.5000 
     83 O          -1.6294  -25.2690  -48.7859 O.2       14 UNK        -0.5000 
     84 N          -0.2103  -24.8055  -50.4875 N.am      15 UNK        -0.5000 
     85 CA         -1.2112  -24.5817  -51.5330 C.3       15 UNK         0.1400 
     86 CB         -0.5181  -24.6524  -52.9055 C.3       15 UNK        -0.1800 
     87 C          -1.9309  -23.2360  -51.3200 C.2       15 UNK         0.5000 
     88 O          -1.5328  -22.2320  -51.9125 O.2       15 UNK        -0.5000 
     89 N          -2.9200  -23.2301  -50.4145 N.am      16 UNK        -0.5000 
     90 CA         -3.6825  -22.0697  -49.9381 C.3       16 UNK         0.1400 
     91 CB         -4.6158  -21.5415  -51.0452 C.3       16 UNK        -0.1800 
     92 C          -2.7387  -20.9893  -49.3791 C.2       16 UNK         0.5000 
     93 O          -2.6069  -19.9122  -49.9585 O.2       16 UNK        -0.5000 
     94 N          -1.9983  -21.3616  -48.3249 N.am      17 UNK        -0.5000 
     95 CA         -0.9355  -20.5829  -47.6778 C.3       17 UNK         0.1400 
     96 CB         -1.5146  -19.3183  -47.0222 C.3       17 UNK        -0.1800 
     97 C           0.2543  -20.2490  -48.6040 C.2       17 UNK         0.5000 
     98 O           1.0218  -19.3384  -48.2997 O.2       17 UNK        -0.5000 
     99 N           0.3796  -20.9907  -49.7128 N.am      18 UNK        -0.5000 
    100 CA         1.3094  -20.8027  -50.8290 C.3       18 UNK         0.1400 
    101 CB         2.7785  -20.7276  -50.3581 C.3       18 UNK        -0.1800 
    102 C          0.9224  -19.6351  -51.7622 C.2       18 UNK         0.5000 
    103 O          1.7218  -19.2777  -52.6285 O.2       18 UNK        -0.5000 
    104 N         -0.2917  -19.0802  -51.6145 N.am      19 UNK        -0.5000 
    105 CA        -0.8351  -18.0677  -52.5213 C.3       19 UNK         0.1400 
    106 CB        -1.9487  -17.2787  -51.8172 C.3       19 UNK        -0.1800 
    107 C         -1.3621  -18.6817  -53.8312 C.2       19 UNK         0.5000 
    108 O         -1.3669  -17.9936  -54.8522 O.2       19 UNK        -0.5000 
    109 N         -1.7852  -19.9552  -53.7807 N.am      20 UNK        -0.5000 
    110 CA        -2.3026  -20.8139  -54.8542 C.3       20 UNK         0.1400 
    111 CB        -1.2368  -21.0491  -55.9404 C.3       20 UNK        -0.1800 
    112 C         -3.6429  -20.3670  -55.4723 C.2       20 UNK         0.5000 
    113 O         -4.5415  -21.1961  -55.6193 O.2       20 UNK        -0.5000 
    114 N         -3.7602  -19.0851  -55.8248 N.am      21 UNK        -0.5000 
    115 CA        -4.9367  -18.4575  -56.4098 C.3       21 UNK         0.1400 
    116 CB        -4.7814  -18.4115  -57.9399 C.3       21 UNK        -0.1800 
    117 C         -5.0554  -17.0448  -55.8093 C.2       21 UNK         0.5000 
    118 O         -4.1761  -16.2262  -56.0772 O.2       21 UNK        -0.5000 
    119 N         -6.0781  -16.7090  -55.0093 N.am      22 UNK        -0.5000 
    120 CA        -7.2158  -17.5153  -54.5176 C.3       22 UNK         0.1400 
    121 C         -8.2628  -17.9141  -55.6019 C.2       22 UNK         0.5000 
    122 N         -8.2667  -17.2864  -56.7713 N.am      22 UNK        -0.7600 
    123 O         -9.0909  -18.7929  -55.3812 O.2       22 UNK        -0.5000 
    124 C124       -6.8187  -18.7016  -53.5881 C.3       23 UNK        -0.0398 
    125 S125       -5.6264  -18.2424  -52.2873 S.3       23 UNK        -0.2404 
    126 C126       -6.7446  -17.8659  -50.9040 C.3       23 UNK        -0.0205 
    127 H127       -2.2782   -7.1643  -50.7973 H         1 UNK         0.0600 
    128 H128       -1.5321   -7.7680  -49.3152 H         1 UNK         0.0600 
    129 H129       -0.5228   -7.3417  -50.7000 H         1 UNK         0.0600 
    130 H130       -1.7165   -9.9742  -49.0813 H         1 UNK         0.3000 
    131 H131       -2.4694  -11.7189  -51.2486 H         1 UNK         0.0600 
    132 H132       -3.1842  -11.9232  -48.7775 H         1 UNK         0.0800 
    133 H133       -1.5992  -12.5600  -48.4279 H         1 UNK         0.0800 
    134 H134       -4.7390  -13.7948  -48.1571 H         1 UNK         0.0800 
    135 H135       -3.3284  -14.4961  -47.3943 H         1 UNK         0.0800 
    136 H136       -5.3791  -15.5754  -50.3873 H         1 UNK         0.1150 
    137 H137       -6.4416  -19.3265  -48.6252 H         1 UNK         0.1150 
    138 H138       -4.0275  -16.5395  -46.4352 H         1 UNK         0.1150 
    139 H139       -4.3782  -18.7136  -45.5226 H         1 UNK         0.0800 
    140 H140       -6.1227  -18.7743  -45.6019 H         1 UNK         0.0800 
    141 H141       -5.7215  -22.2333  -44.7713 H         1 UNK         0.0800 
    142 H142       -5.1266  -20.7151  -44.1691 H         1 UNK         0.0800 
    143 H143       -2.8060  -21.4038  -45.1411 H         1 UNK         0.0600 
    144 H144       -2.1803  -21.8140  -43.1376 H         1 UNK         0.3000 
    145 H145       -3.7933  -22.8353  -40.1555 H         1 UNK         0.0600 
    146 H146       -1.7056  -24.1329  -39.8092 H         1 UNK         0.0600 
    147 H147       -2.7466  -24.9621  -40.9572 H         1 UNK         0.0600 
    148 H148       -1.3472  -24.0609  -41.5324 H         1 UNK         0.0600 
    149 H149       -1.4598  -21.4558  -41.4513 H         1 UNK         0.3000 
    150 H150       -1.8681  -18.6669  -39.3400 H         1 UNK         0.0600 
    151 H151       -0.3733  -20.0396  -37.8772 H         1 UNK         0.0600 
    152 H152        0.5573  -18.9110  -38.8508 H         1 UNK         0.0600 
    153 H153        0.5002  -20.6171  -39.2921 H         1 UNK         0.0600 
    154 H154        0.0889  -19.2760  -41.3207 H         1 UNK         0.3000 
    155 H155       -1.7928  -18.9840  -44.1967 H         1 UNK         0.0600 
    156 H156       -0.1622  -16.6168  -43.1408 H         1 UNK         0.0600 
    157 H157       -1.8014  -16.5366  -43.7736 H         1 UNK         0.0600 
    158 H158       -0.4730  -16.9551  -44.8420 H         1 UNK         0.0600 
    159 H159        0.9715  -18.7292  -44.0444 H         1 UNK         0.3000 
    160 H160        1.9157  -22.0917  -43.3173 H         1 UNK         0.0600 
    161 H161        3.0337  -21.7656  -45.5314 H         1 UNK         0.0600 
    162 H162        1.8817  -20.4915  -45.9267 H         1 UNK         0.0600 
    163 H163        1.3304  -22.1505  -45.7020 H         1 UNK         0.0600 
    164 H164        3.1690  -19.5223  -43.9971 H         1 UNK         0.3000 
    165 H165        4.1276  -18.8167  -40.6502 H         1 UNK         0.0600 
    166 H166        6.4246  -18.8698  -41.5877 H         1 UNK         0.0600 
    167 H167        5.8429  -20.5047  -41.3176 H         1 UNK         0.0600 
    168 H168        5.8765  -19.8480  -42.9496 H         1 UNK         0.0600 
    169 H169        4.7837  -17.6470  -43.1945 H         1 UNK         0.3000 
    170 H170        1.9757  -15.5147  -43.4554 H         1 UNK         0.0600 
    171 H171        3.3864  -14.3274  -41.7649 H         1 UNK         0.0600 
    172 H172        4.8402  -14.7970  -42.6379 H         1 UNK         0.0600 
    173 H173        3.6662  -13.7130  -43.3857 H         1 UNK         0.0600 
    174 H174        4.2961  -15.4974  -44.9978 H         1 UNK         0.3000 
    175 H175        4.3701  -16.2895  -47.0525 H         1 UNK         0.0600 
    176 H176        3.8120  -19.3089  -46.9371 H         1 UNK         0.0600 
    177 H177        4.9135  -18.5036  -48.0490 H         1 UNK         0.0600 
    178 H178        5.2615  -18.5176  -46.3260 H         1 UNK         0.0600 
    179 H179        2.1034  -17.9547  -48.0151 H         1 UNK         0.3000 
    180 H180        0.7512  -17.1268  -49.6069 H         1 UNK         0.0600 
    181 H181       -0.5761  -15.0883  -47.7323 H         1 UNK         0.0600 
    182 H182       -0.2474  -16.7475  -47.2747 H         1 UNK         0.0600 
    183 H183       -1.3642  -16.4160  -48.5861 H         1 UNK         0.0600 
    184 H184       -0.3266  -14.5894  -50.0561 H         1 UNK         0.3000 
    185 H185        1.6228  -13.1200  -52.3335 H         1 UNK         0.0600 
    186 H186        1.3507  -14.9910  -53.9894 H         1 UNK         0.0600 
    187 H187       -0.3548  -15.1093  -53.5738 H         1 UNK         0.0600 
    188 H188        0.2732  -13.6488  -54.3314 H         1 UNK         0.0600 
    189 H189       -1.2743  -13.4315  -52.1298 H         1 UNK         0.3000 
    190 H190       -4.3297  -24.3974  -43.9902 H         1 UNK         0.3000 
    191 H191       -4.0184  -25.9065  -46.4124 H         1 UNK         0.0600 
    192 H192       -4.4756  -26.7983  -43.5122 H         1 UNK         0.0600 
    193 H193       -4.7032  -27.8069  -44.9367 H         1 UNK         0.0600 
    194 H194       -5.7359  -26.4101  -44.6833 H         1 UNK         0.0600 
    195 H195       -1.6493  -24.9014  -44.2391 H         1 UNK         0.3000 
    196 H196        0.1451  -27.1489  -44.2160 H         1 UNK         0.0600 
    197 H197        0.5524  -24.1485  -43.7321 H         1 UNK         0.0600 
    198 H198        1.7857  -25.3707  -43.4463 H         1 UNK         0.0600 
    199 H199        0.3047  -25.3995  -42.5109 H         1 UNK         0.0600 
    200 H200       -0.7369  -25.0081  -46.7534 H         1 UNK         0.3000 
    201 H201        1.2803  -26.0771  -48.5310 H         1 UNK         0.0600 
    202 H202        2.0359  -23.7970  -49.3082 H         1 UNK         0.0600 
    203 H203        2.4843  -24.0656  -47.6364 H         1 UNK         0.0600 
    204 H204        1.1008  -23.0512  -48.0143 H         1 UNK         0.0600 
    205 H205        0.7525  -24.6808  -50.7637 H         1 UNK         0.3000 
    206 H206       -1.9566  -25.3789  -51.4905 H         1 UNK         0.0600 
    207 H207       -0.0785  -25.6354  -53.0745 H         1 UNK         0.0600 
    208 H208       -1.2308  -24.4726  -53.7115 H         1 UNK         0.0600 
    209 H209        0.2757  -23.9100  -52.9994 H         1 UNK         0.0600 
    210 H210       -3.0684  -24.0893  -49.8974 H         1 UNK         0.3000 
    211 H211       -4.3042  -22.4133  -49.1100 H         1 UNK         0.0600 
    212 H212       -4.0615  -21.1433  -51.8959 H         1 UNK         0.0600 
    213 H213       -5.2453  -20.7389  -50.6607 H         1 UNK         0.0600 
    214 H214       -5.2769  -22.3256  -51.4134 H         1 UNK         0.0600 
    215 H215       -2.1900  -22.2665  -47.9001 H         1 UNK         0.3000 
    216 H216       -0.5409  -21.2164  -46.8839 H         1 UNK         0.0600 
    217 H217       -0.7597  -18.8189  -46.4168 H         1 UNK         0.0600 
    218 H218       -2.3496  -19.5582  -46.3714 H         1 UNK         0.0600 
    219 H219       -1.8743  -18.6057  -47.7636 H         1 UNK         0.0600 
    220 H220       -0.3482  -21.6696  -49.8852 H         1 UNK         0.3000 
    221 H221        1.2140  -21.7048  -51.4349 H         1 UNK         0.0600 
    222 H222        3.0078  -19.7714  -49.8872 H         1 UNK         0.0600 
    223 H223        3.0114  -21.5176  -49.6447 H         1 UNK         0.0600 
    224 H224        3.4610  -20.8403  -51.2009 H         1 UNK         0.0600 
    225 H225       -0.9289  -19.4374  -50.9079 H         1 UNK         0.3000 
    226 H226       -0.0376  -17.3677  -52.7768 H         1 UNK         0.0600 
    227 H227       -2.8036  -17.9112  -51.5829 H         1 UNK         0.0600 
    228 H228       -1.6008  -16.8408  -50.8847 H         1 UNK         0.0600 
    229 H229       -2.3112  -16.4645  -52.4456 H         1 UNK         0.0600 
    230 H230       -1.7265  -20.4261  -52.8831 H         1 UNK         0.3000 
    231 H231       -2.4940  -21.7784  -54.3818 H         1 UNK         0.0600 
    232 H232       -0.3217  -21.4559  -55.5099 H         1 UNK         0.0600 
    233 H233       -0.9806  -20.1299  -56.4677 H         1 UNK         0.0600 
    234 H234       -1.5917  -21.7630  -56.6846 H         1 UNK         0.0600 
    235 H235       -2.9767  -18.4639  -55.6291 H         1 UNK         0.3000 
    236 H236       -5.8237  -19.0488  -56.1998 H         1 UNK         0.0600 
    237 H237       -4.7163  -19.4161  -58.3581 H         1 UNK         0.0600 
    238 H238       -5.6383  -17.9213  -58.4033 H         1 UNK         0.0600 
    239 H239       -3.8856  -17.8670  -58.2414 H         1 UNK         0.0600 
    240 H240       -6.0822  -15.7620  -54.6614 H         1 UNK         0.3000 
    241 H241       -7.7688  -16.8207  -53.8845 H         1 UNK         0.0600 
    242 H242       -7.6304  -16.5263  -56.9538 H         1 UNK         0.3800 
    243 H243       -8.9520  -17.5409  -57.4658 H         1 UNK         0.3800 
    244 H244       -7.7077  -19.1166  -53.1105 H         1 UNK         0.0800 
    245 H245       -6.3896  -19.5286  -54.1510 H         1 UNK         0.0800 
    246 H246       -7.3900  -18.7254  -50.7165 H         1 UNK         0.0800 
    247 H247       -7.3989  -17.0381  -51.1808 H         1 UNK         0.0800 
@<TRIPOS>BOND
     1    1    2 1    
     2    1  127 1    
     3    1  128 1    
     4    1  129 1    
     5    2    3 2    
     6    2    4 am   BACKBONE|DICT|INTERRES
     7    4    5 1    
     8    4  130 1    
     9    5    6 1    
    10    5   65 1    
    11    5  131 1    
    12    6    7 1    
    13    6  132 1    
    14    6  133 1    
    15    7    8 1    
    16    8    9 1    
    17    8  134 1    
    18    8  135 1    
    19    9   10 ar   
    20    9   14 ar   
    21   10   11 ar   
    22   10  136 1    
    23   11   12 ar   
    24   11  126 1    
    25   12   13 ar   
    26   12  137 1    
    27   13   14 ar   
    28   13   15 1    
    29   14  138 1    
    30   15   16 1    
    31   15  139 1    
    32   15  140 1    
    33   16   17 1    
    34   17   18 1    
    35   17  141 1    
    36   17  142 1    
    37   18   19 1    
    38   18   67 1    
    39   18  143 1    
    40   19   20 am   BACKBONE|DICT|INTERRES
    41   19  144 1    
    42   20   21 2    
    43   20   22 1    
    44   22   23 1    
    45   22   24 1    
    46   22  145 1    
    47   23  146 1    
    48   23  147 1    
    49   23  148 1    
    50   24   25 am   BACKBONE|DICT|INTERRES
    51   24  149 1    
    52   25   26 2    
    53   25   27 1    
    54   27   28 1    
    55   27   29 1    
    56   27  150 1    
    57   28  151 1    
    58   28  152 1    
    59   28  153 1    
    60   29   30 am   BACKBONE|DICT|INTERRES
    61   29  154 1    
    62   30   31 2    
    63   30   32 1    
    64   32   33 1    
    65   32   34 1    
    66   32  155 1    
    67   33  156 1    
    68   33  157 1    
    69   33  158 1    
    70   34   35 am   BACKBONE|DICT|INTERRES
    71   34  159 1    
    72   35   36 2    
    73   35   37 1    
    74   37   38 1    
    75   37   39 1    
    76   37  160 1    
    77   38  161 1    
    78   38  162 1    
    79   38  163 1    
    80   39   40 am   BACKBONE|DICT|INTERRES
    81   39  164 1    
    82   40   41 2    
    83   40   42 1    
    84   42   43 1    
    85   42   44 1    
    86   42  165 1    
    87   43  166 1    
    88   43  167 1    
    89   43  168 1    
    90   44   45 am   BACKBONE|DICT|INTERRES
    91   44  169 1    
    92   45   46 2    
    93   45   47 1    
    94   47   48 1    
    95   47   49 1    
    96   47  170 1    
    97   48  171 1    
    98   48  172 1    
    99   48  173 1    
   100   49   50 am   BACKBONE|DICT|INTERRES
   101   49  174 1    
   102   50   51 2    
   103   50   52 1    
   104   52   53 1    
   105   52   54 1    
   106   52  175 1    
   107   53  176 1    
   108   53  177 1    
   109   53  178 1    
   110   54   55 am   BACKBONE|DICT|INTERRES
   111   54  179 1    
   112   55   56 2    
   113   55   57 1    
   114   57   58 1    
   115   57   59 1    
   116   57  180 1    
   117   58  181 1    
   118   58  182 1    
   119   58  183 1    
   120   59   60 am   BACKBONE|DICT|INTERRES
   121   59  184 1    
   122   60   61 2    
   123   60   62 1    
   124   62   63 1    
   125   62   64 1    
   126   62  185 1    
   127   63  186 1    
   128   63  187 1    
   129   63  188 1    
   130   64   65 am   BACKBONE|DICT|INTERRES
   131   64  189 1    
   132   65   66 2    
   133   67   68 2    
   134   67   69 am   BACKBONE|DICT|INTERRES
   135   69   70 1    
   136   69  190 1    
   137   70   71 1    
   138   70   72 1    
   139   70  191 1    
   140   71  192 1    
   141   71  193 1    
   142   71  194 1    
   143   72   73 2    
   144   72   74 am   BACKBONE|DICT|INTERRES
   145   74   75 1    
   146   74  195 1    
   147   75   76 1    
   148   75   77 1    
   149   75  196 1    
   150   76  197 1    
   151   76  198 1    
   152   76  199 1    
   153   77   78 2    
   154   77   79 am   BACKBONE|DICT|INTERRES
   155   79   80 1    
   156   79  200 1    
   157   80   81 1    
   158   80   82 1    
   159   80  201 1    
   160   81  202 1    
   161   81  203 1    
   162   81  204 1    
   163   82   83 2    
   164   82   84 am   BACKBONE|DICT|INTERRES
   165   84   85 1    
   166   84  205 1    
   167   85   86 1    
   168   85   87 1    
   169   85  206 1    
   170   86  207 1    
   171   86  208 1    
   172   86  209 1    
   173   87   88 2    
   174   87   89 am   BACKBONE|DICT|INTERRES
   175   89   90 1    
   176   89  210 1    
   177   90   91 1    
   178   90   92 1    
   179   90  211 1    
   180   91  212 1    
   181   91  213 1    
   182   91  214 1    
   183   92   93 2    
   184   92   94 am   BACKBONE|DICT|INTERRES
   185   94   95 1    
   186   94  215 1    
   187   95   96 1    
   188   95   97 1    
   189   95  216 1    
   190   96  217 1    
   191   96  218 1    
   192   96  219 1    
   193   97   98 2    
   194   97   99 am   BACKBONE|DICT|INTERRES
   195   99  100 1    
   196   99  220 1    
   197  100  101 1    
   198  100  102 1    
   199  100  221 1    
   200  101  222 1    
   201  101  223 1    
   202  101  224 1    
   203  102  103 2    
   204  102  104 am   BACKBONE|DICT|INTERRES
   205  104  105 1    
   206  104  225 1    
   207  105  106 1    
   208  105  107 1    
   209  105  226 1    
   210  106  227 1    
   211  106  228 1    
   212  106  229 1    
   213  107  108 2    
   214  107  109 am   BACKBONE|DICT|INTERRES
   215  109  110 1    
   216  109  230 1    
   217  110  111 1    
   218  110  112 1    
   219  110  231 1    
   220  111  232 1    
   221  111  233 1    
   222  111  234 1    
   223  112  113 2    
   224  112  114 am   BACKBONE|DICT|INTERRES
   225  114  115 1    
   226  114  235 1    
   227  115  116 1    
   228  115  117 1    
   229  115  236 1    
   230  116  237 1    
   231  116  238 1    
   232  116  239 1    
   233  117  118 2    
   234  117  119 am   BACKBONE|DICT|INTERRES
   235  119  120 1    
   236  119  240 1    
   237  120  121 1    
   238  120  124 1    
   239  120  241 1    
   240  121  122 am   BACKBONE|DICT|INTERRES
   241  121  123 2    
   242  122  242 1    
   243  122  243 1    
   244  124  125 1    
   245  124  244 1    
   246  124  245 1    
   247  125  126 1    
   248  126  246 1    
   249  126  247 1    
@<TRIPOS>SUBSTRUCTURE
     1 UNK         1 GROUP             0       ****    0 ROOT    
