@<TRIPOS>MOLECULE
3R540
247   249    1
SMALL
USER_CHARGES


@<TRIPOS>ATOM
      1 CA          0.5805  -16.7276  -51.1081 C.3       0 UNK        -0.1800 
      2 C           0.5780  -15.9199  -49.8183 C.2       0 UNK         0.5000 
      3 O           1.6052  -15.3523  -49.4482 O.2       0 UNK        -0.5000 
      4 N          -0.5758  -15.8760  -49.1396 N.am      1 UNK        -0.5000 
      5 CA         -0.8309  -15.1472  -47.8895 C.3       1 UNK         0.1400 
      6 C6         -0.8097  -13.5962  -48.0263 C.3       23 UNK        -0.0398 
      7 S7         -1.7099  -12.9250  -49.4729 S.3       23 UNK        -0.2404 
      8 C8         -3.4627  -13.0332  -48.9732 C.3       23 UNK        -0.0205 
      9 C9         -3.9485  -14.4745  -48.9402 C.ar      23 UNK        -0.0193 
     10 C10        -3.9424  -15.2448  -50.1082 C.ar      23 UNK        -0.1150 
     11 C11        -4.2729  -16.6016  -50.0649 C.ar      23 UNK        -0.0193 
     12 C12        -4.6207  -17.1847  -48.8444 C.ar      23 UNK        -0.1150 
     13 C13        -4.6628  -16.4167  -47.6780 C.ar      23 UNK        -0.0193 
     14 C14        -4.3468  -15.0571  -47.7331 C.ar      23 UNK        -0.1150 
     15 C15        -5.0298  -17.0664  -46.3580 C.3       23 UNK        -0.0205 
     16 S16        -3.5491  -17.6650  -45.4803 S.3       23 UNK        -0.2404 
     17 C17        -4.2971  -19.0344  -44.5382 C.3       23 UNK        -0.0398 
     18 CA         -3.9862  -20.3918  -45.2147 C.3       11 UNK         0.1400 
     19 N          -2.6849  -20.9279  -44.7889 N.am      11 UNK        -0.5000 
     20 C          -2.0956  -22.0376  -45.2561 C.2       10 UNK         0.5000 
     21 O          -2.5668  -22.6959  -46.1832 O.2       10 UNK        -0.5000 
     22 CA         -0.7907  -22.5118  -44.5820 C.3       10 UNK         0.1400 
     23 CB          0.2965  -22.8272  -45.6229 C.3       10 UNK        -0.1800 
     24 N          -0.2564  -21.5851  -43.5782 N.am      10 UNK        -0.5000 
     25 C          -0.7570  -21.4051  -42.3472 C.2       9 UNK         0.5000 
     26 O          -1.7786  -21.9659  -41.9482 O.2       9 UNK        -0.5000 
     27 CA         -0.0195  -20.3982  -41.4391 C.3       9 UNK         0.1400 
     28 CB         -0.2451  -20.6635  -39.9368 C.3       9 UNK        -0.1800 
     29 N           1.4099  -20.2638  -41.7407 N.am      9 UNK        -0.5000 
     30 C           2.3551  -21.2095  -41.6306 C.2       8 UNK         0.5000 
     31 O           2.1373  -22.3721  -41.2887 O.2       8 UNK        -0.5000 
     32 CA          3.7958  -20.7756  -41.9559 C.3       8 UNK         0.1400 
     33 CB          4.0809  -20.9319  -43.4578 C.3       8 UNK        -0.1800 
     34 N           4.0948  -19.3989  -41.5560 N.am      8 UNK        -0.5000 
     35 C           4.1412  -18.9468  -40.2934 C.2       7 UNK         0.5000 
     36 O           3.9100  -19.6550  -39.3124 O.2       7 UNK        -0.5000 
     37 CA          4.5422  -17.4703  -40.0829 C.3       7 UNK         0.1400 
     38 CB          5.6603  -17.3435  -39.0332 C.3       7 UNK        -0.1800 
     39 N           5.0015  -16.8425  -41.3249 N.am      7 UNK        -0.5000 
     40 C           4.2559  -16.0584  -42.1097 C.2       6 UNK         0.5000 
     41 O           3.1043  -15.7066  -41.8415 O.2       6 UNK        -0.5000 
     42 CA          4.9118  -15.6141  -43.4253 C.3       6 UNK         0.1400 
     43 CB          5.1268  -16.8037  -44.3803 C.3       6 UNK        -0.1800 
     44 N           4.0509  -14.6307  -44.0649 N.am      6 UNK        -0.5000 
     45 C           4.4445  -13.6222  -44.8485 C.2       5 UNK         0.5000 
     46 O           5.6186  -13.4214  -45.1626 O.2       5 UNK        -0.5000 
     47 CA          3.3463  -12.6788  -45.3770 C.3       5 UNK         0.1400 
     48 CB          3.1696  -12.8540  -46.8942 C.3       5 UNK        -0.1800 
     49 N           2.0530  -12.9052  -44.7296 N.am      5 UNK        -0.5000 
     50 C           1.6673  -12.3674  -43.5660 C.2       4 UNK         0.5000 
     51 O           2.3596  -11.5868  -42.9122 O.2       4 UNK        -0.5000 
     52 CA          0.2857  -12.7822  -43.0379 C.3       4 UNK         0.1400 
     53 CB         -0.8294  -12.0490  -43.8012 C.3       4 UNK        -0.1800 
     54 N           0.0761  -14.2282  -43.1527 N.am      4 UNK        -0.5000 
     55 C          -0.2252  -15.0375  -42.1268 C.2       3 UNK         0.5000 
     56 O          -0.3248  -14.6477  -40.9622 O.2       3 UNK        -0.5000 
     57 CA         -0.4990  -16.5255  -42.4298 C.3       3 UNK         0.1400 
     58 CB         -1.9683  -16.8674  -42.1311 C.3       3 UNK        -0.1800 
     59 N          -0.2153  -16.8917  -43.8190 N.am      3 UNK        -0.5000 
     60 C           0.8853  -17.5292  -44.2345 C.2       2 UNK         0.5000 
     61 O           1.7384  -17.9821  -43.4706 O.2       2 UNK        -0.5000 
     62 CA          1.0702  -17.7368  -45.7529 C.3       2 UNK         0.1400 
     63 CB          0.9436  -19.2261  -46.1000 C.3       2 UNK        -0.1800 
     64 N           0.1673  -16.9940  -46.6373 N.am      2 UNK        -0.5000 
     65 C           0.0350  -15.6641  -46.7227 C.2       1 UNK         0.5000 
     66 O           0.5496  -14.8766  -45.9290 O.2       1 UNK        -0.5000 
     67 C          -5.1516  -21.3896  -45.0312 C.2       11 UNK         0.5000 
     68 O          -6.1141  -21.3280  -45.7962 O.2       11 UNK        -0.5000 
     69 N          -5.0153  -22.3396  -44.0938 N.am      12 UNK        -0.5000 
     70 CA         -5.9116  -23.4892  -43.9262 C.3       12 UNK         0.1400 
     71 CB         -5.5019  -24.2527  -42.6577 C.3       12 UNK        -0.1800 
     72 C          -5.9374  -24.4423  -45.1438 C.2       12 UNK         0.5000 
     73 O          -6.9220  -25.1577  -45.3296 O.2       12 UNK        -0.5000 
     74 N          -4.8722  -24.4163  -45.9556 N.am      13 UNK        -0.5000 
     75 CA         -4.7195  -25.1417  -47.2151 C.3       13 UNK         0.1400 
     76 CB         -3.4624  -26.0262  -47.1169 C.3       13 UNK        -0.1800 
     77 C          -4.6362  -24.1616  -48.4053 C.2       13 UNK         0.5000 
     78 O          -4.0359  -24.5005  -49.4249 O.2       13 UNK        -0.5000 
     79 N          -5.2052  -22.9537  -48.2490 N.am      14 UNK        -0.5000 
     80 CA         -5.2470  -21.8546  -49.2243 C.3       14 UNK         0.1400 
     81 CB         -6.1679  -22.2127  -50.4086 C.3       14 UNK        -0.1800 
     82 C          -3.8502  -21.3672  -49.6683 C.2       14 UNK         0.5000 
     83 O          -3.6547  -21.0254  -50.8338 O.2       14 UNK        -0.5000 
     84 N          -2.9067  -21.3497  -48.7157 N.am      15 UNK        -0.5000 
     85 CA         -1.4927  -20.9967  -48.8702 C.3       15 UNK         0.1400 
     86 CB         -1.3092  -19.5386  -49.3400 C.3       15 UNK        -0.1800 
     87 C          -0.6948  -22.0426  -49.6781 C.2       15 UNK         0.5000 
     88 O           0.2813  -21.6974  -50.3467 O.2       15 UNK        -0.5000 
     89 N          -1.1068  -23.3141  -49.5528 N.am      16 UNK        -0.5000 
     90 CA         -0.4605  -24.5276  -50.0575 C.3       16 UNK         0.1400 
     91 CB          0.8159  -24.8286  -49.2413 C.3       16 UNK        -0.1800 
     92 C          -0.2303  -24.4842  -51.5802 C.2       16 UNK         0.5000 
     93 O          -1.1911  -24.6093  -52.3374 O.2       16 UNK        -0.5000 
     94 N           1.0236  -24.2921  -52.0116 N.am      17 UNK        -0.5000 
     95 CA          1.4271  -24.2063  -53.4177 C.3       17 UNK         0.1400 
     96 CB          2.9591  -24.1230  -53.4923 C.3       17 UNK        -0.1800 
     97 C           0.7851  -23.0321  -54.1843 C.2       17 UNK         0.5000 
     98 O           0.6321  -23.1190  -55.4033 O.2       17 UNK        -0.5000 
     99 N           0.3996  -21.9697  -53.4641 N.am      18 UNK        -0.5000 
    100 CA        -0.2772  -20.7992  -54.0192 C.3       18 UNK         0.1400 
    101 CB         0.0010  -19.5861  -53.1216 C.3       18 UNK        -0.1800 
    102 C         -1.7917  -20.9988  -54.2269 C.2       18 UNK         0.5000 
    103 O         -2.4250  -20.1101  -54.7974 O.2       18 UNK        -0.5000 
    104 N         -2.3603  -22.1406  -53.8041 N.am      19 UNK        -0.5000 
    105 CA        -3.7932  -22.4508  -53.9047 C.3       19 UNK         0.1400 
    106 CB        -4.0796  -23.8125  -53.2587 C.3       19 UNK        -0.1800 
    107 C         -4.3514  -22.4151  -55.3404 C.2       19 UNK         0.5000 
    108 O         -5.5163  -22.0626  -55.5283 O.2       19 UNK        -0.5000 
    109 N         -3.5001  -22.7299  -56.3269 N.am      20 UNK        -0.5000 
    110 CA        -3.8041  -22.6445  -57.7563 C.3       20 UNK         0.1400 
    111 CB        -2.6604  -23.2950  -58.5489 C.3       20 UNK        -0.1800 
    112 C         -4.0498  -21.2025  -58.2465 C.2       20 UNK         0.5000 
    113 O         -4.8299  -21.0098  -59.1799 O.2       20 UNK        -0.5000 
    114 N         -3.3961  -20.2221  -57.6080 N.am      21 UNK        -0.5000 
    115 CA        -3.6112  -18.7948  -57.8441 C.3       21 UNK         0.1400 
    116 CB        -2.2965  -18.0350  -57.6057 C.3       21 UNK        -0.1800 
    117 C         -4.7297  -18.2456  -56.9409 C.2       21 UNK         0.5000 
    118 O         -5.4999  -17.3924  -57.3831 O.2       21 UNK        -0.5000 
    119 N         -4.7951  -18.7442  -55.6986 N.am      22 UNK        -0.5000 
    120 CA        -5.8101  -18.3990  -54.6922 C.3       22 UNK         0.1400 
    121 C         -7.2607  -18.7843  -55.1009 C.2       22 UNK         0.5000 
    122 N         -7.4791  -19.9673  -55.6626 N.am      22 UNK        -0.7600 
    123 O         -8.1903  -18.0035  -54.9170 O.2       22 UNK        -0.5000 
    124 C124       -5.4464  -18.9888  -53.3028 C.3       23 UNK        -0.0398 
    125 S125       -5.8774  -17.8772  -51.9241 S.3       23 UNK        -0.2404 
    126 C126       -4.2149  -17.4509  -51.3229 C.3       23 UNK        -0.0205 
    127 H127        1.2492  -17.5831  -51.0131 H         1 UNK         0.0600 
    128 H128        0.9273  -16.1117  -51.9377 H         1 UNK         0.0600 
    129 H129       -0.4147  -17.0984  -51.3550 H         1 UNK         0.0600 
    130 H130       -1.3837  -16.3422  -49.5262 H         1 UNK         0.3000 
    131 H131       -1.8317  -15.4375  -47.5913 H         1 UNK         0.0600 
    132 H132       -1.2145  -13.1325  -47.1260 H         1 UNK         0.0800 
    133 H133        0.2209  -13.2472  -48.1067 H         1 UNK         0.0800 
    134 H134       -3.5957  -12.5469  -48.0055 H         1 UNK         0.0800 
    135 H135       -4.0688  -12.4733  -49.6865 H         1 UNK         0.0800 
    136 H136       -3.6410  -14.7931  -51.0430 H         1 UNK         0.1150 
    137 H137       -4.8579  -18.2387  -48.8053 H         1 UNK         0.1150 
    138 H138       -4.3560  -14.4695  -46.8256 H         1 UNK         0.1150 
    139 H139       -5.5678  -16.3614  -45.7223 H         1 UNK         0.0800 
    140 H140       -5.7159  -17.8933  -46.5492 H         1 UNK         0.0800 
    141 H141       -5.3707  -18.8524  -44.4551 H         1 UNK         0.0800 
    142 H142       -3.9265  -19.0138  -43.5131 H         1 UNK         0.0800 
    143 H143       -3.9219  -20.2329  -46.2930 H         1 UNK         0.0600 
    144 H144       -2.2345  -20.4477  -44.0254 H         1 UNK         0.3000 
    145 H145       -1.0341  -23.4475  -44.0744 H         1 UNK         0.0600 
    146 H146        1.2040  -23.1979  -45.1459 H         1 UNK         0.0600 
    147 H147       -0.0405  -23.6006  -46.3138 H         1 UNK         0.0600 
    148 H148        0.5627  -21.9570  -46.2195 H         1 UNK         0.0600 
    149 H149        0.5860  -21.0869  -43.8225 H         1 UNK         0.3000 
    150 H150       -0.4597  -19.4283  -41.6631 H         1 UNK         0.0600 
    151 H151       -1.3036  -20.6010  -39.6818 H         1 UNK         0.0600 
    152 H152        0.2785  -19.9289  -39.3247 H         1 UNK         0.0600 
    153 H153        0.1032  -21.6540  -39.6429 H         1 UNK         0.0600 
    154 H154        1.6962  -19.3574  -42.1029 H         1 UNK         0.3000 
    155 H155        4.4697  -21.4383  -41.4090 H         1 UNK         0.0600 
    156 H156        3.4901  -20.2362  -44.0537 H         1 UNK         0.0600 
    157 H157        3.8474  -21.9412  -43.7998 H         1 UNK         0.0600 
    158 H158        5.1327  -20.7500  -43.6791 H         1 UNK         0.0600 
    159 H159        4.2543  -18.7378  -42.3008 H         1 UNK         0.3000 
    160 H160        3.6608  -16.9516  -39.7005 H         1 UNK         0.0600 
    161 H161        6.5584  -17.8843  -39.3341 H         1 UNK         0.0600 
    162 H162        5.3435  -17.7425  -38.0688 H         1 UNK         0.0600 
    163 H163        5.9340  -16.3002  -38.8746 H         1 UNK         0.0600 
    164 H164        5.9400  -17.0778  -41.6167 H         1 UNK         0.3000 
    165 H165        5.8736  -15.1568  -43.1835 H         1 UNK         0.0600 
    166 H166        5.5630  -16.4772  -45.3245 H         1 UNK         0.0600 
    167 H167        5.8067  -17.5408  -43.9521 H         1 UNK         0.0600 
    168 H168        4.1895  -17.3125  -44.6060 H         1 UNK         0.0600 
    169 H169        3.0806  -14.6829  -43.7828 H         1 UNK         0.3000 
    170 H170        3.6711  -11.6537  -45.1871 H         1 UNK         0.0600 
    171 H171        2.8612  -13.8687  -47.1500 H         1 UNK         0.0600 
    172 H172        2.4192  -12.1671  -47.2856 H         1 UNK         0.0600 
    173 H173        4.1014  -12.6517  -47.4237 H         1 UNK         0.0600 
    174 H174        1.4358  -13.5622  -45.2038 H         1 UNK         0.3000 
    175 H175        0.2381  -12.4666  -41.9937 H         1 UNK         0.0600 
    176 H176       -0.8429  -12.3213  -44.8567 H         1 UNK         0.0600 
    177 H177       -1.8090  -12.2824  -43.3838 H         1 UNK         0.0600 
    178 H178       -0.6992  -10.9678  -43.7414 H         1 UNK         0.0600 
    179 H179        0.1800  -14.6268  -44.0799 H         1 UNK         0.3000 
    180 H180        0.1306  -17.1026  -41.7498 H         1 UNK         0.0600 
    181 H181       -2.1740  -17.9212  -42.3119 H         1 UNK         0.0600 
    182 H182       -2.6504  -16.2830  -42.7498 H         1 UNK         0.0600 
    183 H183       -2.2155  -16.6648  -41.0883 H         1 UNK         0.0600 
    184 H184       -0.8813  -16.5858  -44.5134 H         1 UNK         0.3000 
    185 H185        2.0863  -17.4152  -45.9885 H         1 UNK         0.0600 
    186 H186        1.1927  -19.4118  -47.1450 H         1 UNK         0.0600 
    187 H187        1.6216  -19.8316  -45.4987 H         1 UNK         0.0600 
    188 H188       -0.0708  -19.5867  -45.9259 H         1 UNK         0.0600 
    189 H189       -0.3147  -17.5466  -47.3295 H         1 UNK         0.3000 
    190 H190       -4.1970  -22.3180  -43.5011 H         1 UNK         0.3000 
    191 H191       -6.9253  -23.1079  -43.7871 H         1 UNK         0.0600 
    192 H192       -6.1627  -25.1026  -42.4815 H         1 UNK         0.0600 
    193 H193       -5.5559  -23.6128  -41.7768 H         1 UNK         0.0600 
    194 H194       -4.4838  -24.6375  -42.7316 H         1 UNK         0.0600 
    195 H195       -4.1108  -23.7791  -45.7451 H         1 UNK         0.3000 
    196 H196       -5.5815  -25.7867  -47.3944 H         1 UNK         0.0600 
    197 H197       -2.5578  -25.4271  -47.0031 H         1 UNK         0.0600 
    198 H198       -3.5242  -26.7037  -46.2653 H         1 UNK         0.0600 
    199 H199       -3.3408  -26.6410  -48.0095 H         1 UNK         0.0600 
    200 H200       -5.6591  -22.7567  -47.3650 H         1 UNK         0.3000 
    201 H201       -5.7011  -21.0086  -48.7063 H         1 UNK         0.0600 
    202 H202       -6.2844  -21.3662  -51.0860 H         1 UNK         0.0600 
    203 H203       -7.1639  -22.4877  -50.0622 H         1 UNK         0.0600 
    204 H204       -5.7744  -23.0464  -50.9889 H         1 UNK         0.0600 
    205 H205       -3.1435  -21.7379  -47.8091 H         1 UNK         0.3000 
    206 H206       -1.0699  -21.0447  -47.8676 H         1 UNK         0.0600 
    207 H207       -1.8222  -18.8468  -48.6719 H         1 UNK         0.0600 
    208 H208       -0.2552  -19.2595  -49.3537 H         1 UNK         0.0600 
    209 H209       -1.7010  -19.3816  -50.3423 H         1 UNK         0.0600 
    210 H210       -1.9808  -23.4725  -49.0691 H         1 UNK         0.3000 
    211 H211       -1.1625  -25.3443  -49.8819 H         1 UNK         0.0600 
    212 H212        1.3134  -25.7290  -49.6043 H         1 UNK         0.0600 
    213 H213        0.5715  -25.0035  -48.1939 H         1 UNK         0.0600 
    214 H214        1.5354  -24.0100  -49.2782 H         1 UNK         0.0600 
    215 H215        1.7512  -24.1628  -51.3238 H         1 UNK         0.3000 
    216 H216        1.1096  -25.1277  -53.9102 H         1 UNK         0.0600 
    217 H217        3.3376  -23.2318  -52.9899 H         1 UNK         0.0600 
    218 H218        3.2989  -24.0853  -54.5282 H         1 UNK         0.0600 
    219 H219        3.4253  -24.9936  -53.0307 H         1 UNK         0.0600 
    220 H220        0.5316  -21.9826  -52.4579 H         1 UNK         0.3000 
    221 H221        0.1468  -20.5818  -55.0018 H         1 UNK         0.0600 
    222 H222        1.0700  -19.3854  -53.0504 H         1 UNK         0.0600 
    223 H223       -0.3758  -19.7447  -52.1139 H         1 UNK         0.0600 
    224 H224       -0.4732  -18.6855  -53.5138 H         1 UNK         0.0600 
    225 H225       -1.7863  -22.8353  -53.3400 H         1 UNK         0.3000 
    226 H226       -4.3280  -21.6939  -53.3318 H         1 UNK         0.0600 
    227 H227       -3.5473  -24.6183  -53.7653 H         1 UNK         0.0600 
    228 H228       -3.7816  -23.8186  -52.2099 H         1 UNK         0.0600 
    229 H229       -5.1440  -24.0476  -53.2935 H         1 UNK         0.0600 
    230 H230       -2.5605  -23.0029  -56.0766 H         1 UNK         0.3000 
    231 H231       -4.7170  -23.2149  -57.9401 H         1 UNK         0.0600 
    232 H232       -1.7119  -22.7833  -58.3801 H         1 UNK         0.0600 
    233 H233       -2.8625  -23.2679  -59.6205 H         1 UNK         0.0600 
    234 H234       -2.5320  -24.3411  -58.2701 H         1 UNK         0.0600 
    235 H235       -2.8129  -20.4597  -56.8152 H         1 UNK         0.3000 
    236 H236       -3.9067  -18.6338  -58.8832 H         1 UNK         0.0600 
    237 H237       -1.9473  -18.1370  -56.5777 H         1 UNK         0.0600 
    238 H238       -1.5076  -18.3978  -58.2647 H         1 UNK         0.0600 
    239 H239       -2.4219  -16.9699  -57.8043 H         1 UNK         0.0600 
    240 H240       -4.0707  -19.3918  -55.4054 H         1 UNK         0.3000 
    241 H241       -5.7828  -17.3099  -54.6180 H         1 UNK         0.0600 
    242 H242       -8.4147  -20.2198  -55.9374 H         1 UNK         0.3800 
    243 H243       -6.7289  -20.6481  -55.7563 H         1 UNK         0.3800 
    244 H244       -4.3776  -19.1956  -53.2444 H         1 UNK         0.0800 
    245 H245       -5.9284  -19.9535  -53.1362 H         1 UNK         0.0800 
    246 H246       -3.6639  -18.3660  -51.1083 H         1 UNK         0.0800 
    247 H247       -3.6662  -16.9364  -52.1135 H         1 UNK         0.0800 
@<TRIPOS>BOND
     1    1    2 1    
     2    1  127 1    
     3    1  128 1    
     4    1  129 1    
     5    2    3 2    
     6    2    4 am   BACKBONE|DICT|INTERRES
     7    4    5 1    
     8    4  130 1    
     9    5    6 1    
    10    5   65 1    
    11    5  131 1    
    12    6    7 1    
    13    6  132 1    
    14    6  133 1    
    15    7    8 1    
    16    8    9 1    
    17    8  134 1    
    18    8  135 1    
    19    9   10 ar   
    20    9   14 ar   
    21   10   11 ar   
    22   10  136 1    
    23   11   12 ar   
    24   11  126 1    
    25   12   13 ar   
    26   12  137 1    
    27   13   14 ar   
    28   13   15 1    
    29   14  138 1    
    30   15   16 1    
    31   15  139 1    
    32   15  140 1    
    33   16   17 1    
    34   17   18 1    
    35   17  141 1    
    36   17  142 1    
    37   18   19 1    
    38   18   67 1    
    39   18  143 1    
    40   19   20 am   BACKBONE|DICT|INTERRES
    41   19  144 1    
    42   20   21 2    
    43   20   22 1    
    44   22   23 1    
    45   22   24 1    
    46   22  145 1    
    47   23  146 1    
    48   23  147 1    
    49   23  148 1    
    50   24   25 am   BACKBONE|DICT|INTERRES
    51   24  149 1    
    52   25   26 2    
    53   25   27 1    
    54   27   28 1    
    55   27   29 1    
    56   27  150 1    
    57   28  151 1    
    58   28  152 1    
    59   28  153 1    
    60   29   30 am   BACKBONE|DICT|INTERRES
    61   29  154 1    
    62   30   31 2    
    63   30   32 1    
    64   32   33 1    
    65   32   34 1    
    66   32  155 1    
    67   33  156 1    
    68   33  157 1    
    69   33  158 1    
    70   34   35 am   BACKBONE|DICT|INTERRES
    71   34  159 1    
    72   35   36 2    
    73   35   37 1    
    74   37   38 1    
    75   37   39 1    
    76   37  160 1    
    77   38  161 1    
    78   38  162 1    
    79   38  163 1    
    80   39   40 am   BACKBONE|DICT|INTERRES
    81   39  164 1    
    82   40   41 2    
    83   40   42 1    
    84   42   43 1    
    85   42   44 1    
    86   42  165 1    
    87   43  166 1    
    88   43  167 1    
    89   43  168 1    
    90   44   45 am   BACKBONE|DICT|INTERRES
    91   44  169 1    
    92   45   46 2    
    93   45   47 1    
    94   47   48 1    
    95   47   49 1    
    96   47  170 1    
    97   48  171 1    
    98   48  172 1    
    99   48  173 1    
   100   49   50 am   BACKBONE|DICT|INTERRES
   101   49  174 1    
   102   50   51 2    
   103   50   52 1    
   104   52   53 1    
   105   52   54 1    
   106   52  175 1    
   107   53  176 1    
   108   53  177 1    
   109   53  178 1    
   110   54   55 am   BACKBONE|DICT|INTERRES
   111   54  179 1    
   112   55   56 2    
   113   55   57 1    
   114   57   58 1    
   115   57   59 1    
   116   57  180 1    
   117   58  181 1    
   118   58  182 1    
   119   58  183 1    
   120   59   60 am   BACKBONE|DICT|INTERRES
   121   59  184 1    
   122   60   61 2    
   123   60   62 1    
   124   62   63 1    
   125   62   64 1    
   126   62  185 1    
   127   63  186 1    
   128   63  187 1    
   129   63  188 1    
   130   64   65 am   BACKBONE|DICT|INTERRES
   131   64  189 1    
   132   65   66 2    
   133   67   68 2    
   134   67   69 am   BACKBONE|DICT|INTERRES
   135   69   70 1    
   136   69  190 1    
   137   70   71 1    
   138   70   72 1    
   139   70  191 1    
   140   71  192 1    
   141   71  193 1    
   142   71  194 1    
   143   72   73 2    
   144   72   74 am   BACKBONE|DICT|INTERRES
   145   74   75 1    
   146   74  195 1    
   147   75   76 1    
   148   75   77 1    
   149   75  196 1    
   150   76  197 1    
   151   76  198 1    
   152   76  199 1    
   153   77   78 2    
   154   77   79 am   BACKBONE|DICT|INTERRES
   155   79   80 1    
   156   79  200 1    
   157   80   81 1    
   158   80   82 1    
   159   80  201 1    
   160   81  202 1    
   161   81  203 1    
   162   81  204 1    
   163   82   83 2    
   164   82   84 am   BACKBONE|DICT|INTERRES
   165   84   85 1    
   166   84  205 1    
   167   85   86 1    
   168   85   87 1    
   169   85  206 1    
   170   86  207 1    
   171   86  208 1    
   172   86  209 1    
   173   87   88 2    
   174   87   89 am   BACKBONE|DICT|INTERRES
   175   89   90 1    
   176   89  210 1    
   177   90   91 1    
   178   90   92 1    
   179   90  211 1    
   180   91  212 1    
   181   91  213 1    
   182   91  214 1    
   183   92   93 2    
   184   92   94 am   BACKBONE|DICT|INTERRES
   185   94   95 1    
   186   94  215 1    
   187   95   96 1    
   188   95   97 1    
   189   95  216 1    
   190   96  217 1    
   191   96  218 1    
   192   96  219 1    
   193   97   98 2    
   194   97   99 am   BACKBONE|DICT|INTERRES
   195   99  100 1    
   196   99  220 1    
   197  100  101 1    
   198  100  102 1    
   199  100  221 1    
   200  101  222 1    
   201  101  223 1    
   202  101  224 1    
   203  102  103 2    
   204  102  104 am   BACKBONE|DICT|INTERRES
   205  104  105 1    
   206  104  225 1    
   207  105  106 1    
   208  105  107 1    
   209  105  226 1    
   210  106  227 1    
   211  106  228 1    
   212  106  229 1    
   213  107  108 2    
   214  107  109 am   BACKBONE|DICT|INTERRES
   215  109  110 1    
   216  109  230 1    
   217  110  111 1    
   218  110  112 1    
   219  110  231 1    
   220  111  232 1    
   221  111  233 1    
   222  111  234 1    
   223  112  113 2    
   224  112  114 am   BACKBONE|DICT|INTERRES
   225  114  115 1    
   226  114  235 1    
   227  115  116 1    
   228  115  117 1    
   229  115  236 1    
   230  116  237 1    
   231  116  238 1    
   232  116  239 1    
   233  117  118 2    
   234  117  119 am   BACKBONE|DICT|INTERRES
   235  119  120 1    
   236  119  240 1    
   237  120  121 1    
   238  120  124 1    
   239  120  241 1    
   240  121  122 am   BACKBONE|DICT|INTERRES
   241  121  123 2    
   242  122  242 1    
   243  122  243 1    
   244  124  125 1    
   245  124  244 1    
   246  124  245 1    
   247  125  126 1    
   248  126  246 1    
   249  126  247 1    
@<TRIPOS>SUBSTRUCTURE
     1 UNK         1 GROUP             0       ****    0 ROOT    
