@<TRIPOS>MOLECULE
3R540
247   249    1
SMALL
USER_CHARGES


@<TRIPOS>ATOM
      1 CA         -2.5838  -12.1924  -51.4172 C.3       0 UNK        -0.1800 
      2 C          -2.0243  -12.6751  -50.0863 C.2       0 UNK         0.5000 
      3 O          -1.9151  -11.8892  -49.1447 O.2       0 UNK        -0.5000 
      4 N          -1.6596  -13.9600  -50.0118 N.am      1 UNK        -0.5000 
      5 CA         -1.1855  -14.6416  -48.8043 C.3       1 UNK         0.1400 
      6 C6         -0.4997  -15.9978  -49.1254 C.3       23 UNK        -0.0398 
      7 S7         -1.3707  -17.0307  -50.3636 S.3       23 UNK        -0.2404 
      8 C8         -0.2459  -16.9622  -51.8014 C.3       23 UNK        -0.0205 
      9 C9          0.7700  -18.0983  -51.7887 C.ar      23 UNK        -0.0193 
     10 C10         0.6298  -19.1850  -52.6592 C.ar      23 UNK        -0.1150 
     11 C11         1.5304  -20.2542  -52.6137 C.ar      23 UNK        -0.0193 
     12 C12         2.5889  -20.2238  -51.7008 C.ar      23 UNK        -0.1150 
     13 C13         2.7516  -19.1361  -50.8397 C.ar      23 UNK        -0.0193 
     14 C14         1.8497  -18.0707  -50.9021 C.ar      23 UNK        -0.1150 
     15 C15         3.8951  -19.1096  -49.8342 C.3       23 UNK        -0.0205 
     16 S16         3.6446  -20.2661  -48.4450 S.3       23 UNK        -0.2404 
     17 C17         2.0677  -19.6959  -47.7234 C.3       23 UNK        -0.0398 
     18 CA          1.0928  -20.8781  -47.4747 C.3       11 UNK         0.1400 
     19 N           1.1426  -21.3434  -46.0860 N.am      11 UNK        -0.5000 
     20 C           0.4975  -22.4147  -45.6036 C.2       10 UNK         0.5000 
     21 O          -0.1533  -23.1975  -46.2965 O.2       10 UNK        -0.5000 
     22 CA          0.5314  -22.6022  -44.0752 C.3       10 UNK         0.1400 
     23 CB          1.8492  -23.2488  -43.6235 C.3       10 UNK        -0.1800 
     24 N           0.3246  -21.3423  -43.3573 N.am      10 UNK        -0.5000 
     25 C          -0.7986  -20.6122  -43.4262 C.2       9 UNK         0.5000 
     26 O          -1.7995  -20.9556  -44.0523 O.2       9 UNK        -0.5000 
     27 CA         -0.7920  -19.2509  -42.7134 C.3       9 UNK         0.1400 
     28 CB         -1.0325  -19.4352  -41.2064 C.3       9 UNK        -0.1800 
     29 N           0.4518  -18.5133  -42.9305 N.am      9 UNK        -0.5000 
     30 C           0.8978  -18.0701  -44.1151 C.2       8 UNK         0.5000 
     31 O           0.2766  -18.1898  -45.1692 O.2       8 UNK        -0.5000 
     32 CA          2.3089  -17.4538  -44.1382 C.3       8 UNK         0.1400 
     33 CB          2.2887  -15.9697  -43.7470 C.3       8 UNK        -0.1800 
     34 N           3.2317  -18.1777  -43.2656 N.am      8 UNK        -0.5000 
     35 C           3.6669  -19.4247  -43.4934 C.2       7 UNK         0.5000 
     36 O           3.3517  -20.0896  -44.4802 O.2       7 UNK        -0.5000 
     37 CA          4.5724  -20.0409  -42.4119 C.3       7 UNK         0.1400 
     38 CB          6.0318  -19.6081  -42.6154 C.3       7 UNK        -0.1800 
     39 N           4.1421  -19.6824  -41.0586 N.am      7 UNK        -0.5000 
     40 C           3.0125  -20.1254  -40.4894 C.2       6 UNK         0.5000 
     41 O           2.2377  -20.9121  -41.0347 O.2       6 UNK        -0.5000 
     42 CA          2.6690  -19.5518  -39.0999 C.3       6 UNK         0.1400 
     43 CB          3.4137  -20.3197  -37.9978 C.3       6 UNK        -0.1800 
     44 N           2.9473  -18.1154  -38.9698 N.am      6 UNK        -0.5000 
     45 C           2.3654  -17.1669  -39.7144 C.2       5 UNK         0.5000 
     46 O           1.5610  -17.4145  -40.6165 O.2       5 UNK        -0.5000 
     47 CA          2.7572  -15.7070  -39.4406 C.3       5 UNK         0.1400 
     48 CB          4.1927  -15.4192  -39.9167 C.3       5 UNK        -0.1800 
     49 N           1.8154  -14.8713  -40.1736 N.am      5 UNK        -0.5000 
     50 C           1.5267  -13.5821  -39.9783 C.2       4 UNK         0.5000 
     51 O           2.0651  -12.8813  -39.1207 O.2       4 UNK        -0.5000 
     52 CA          0.4518  -12.9732  -40.9050 C.3       4 UNK         0.1400 
     53 CB          1.1131  -12.1519  -42.0225 C.3       4 UNK        -0.1800 
     54 N          -0.4130  -13.9842  -41.5218 N.am      4 UNK        -0.5000 
     55 C          -1.3913  -14.6517  -40.8998 C.2       3 UNK         0.5000 
     56 O          -1.7365  -14.4174  -39.7406 O.2       3 UNK        -0.5000 
     57 CA         -2.0791  -15.7747  -41.7096 C.3       3 UNK         0.1400 
     58 CB         -3.1640  -16.5117  -40.9035 C.3       3 UNK        -0.1800 
     59 N          -2.6654  -15.3282  -42.9765 N.am      3 UNK        -0.5000 
     60 C          -1.9880  -15.0019  -44.0830 C.2       2 UNK         0.5000 
     61 O          -0.7565  -14.9742  -44.1450 O.2       2 UNK        -0.5000 
     62 CA         -2.8222  -14.6304  -45.3170 C.3       2 UNK         0.1400 
     63 CB         -3.5012  -13.2601  -45.1401 C.3       2 UNK        -0.1800 
     64 N          -1.9401  -14.5946  -46.4784 N.am      2 UNK        -0.5000 
     65 C          -2.3074  -14.7756  -47.7504 C.2       1 UNK         0.5000 
     66 O          -3.4621  -15.0318  -48.0986 O.2       1 UNK        -0.5000 
     67 C          -0.3477  -20.5347  -47.9060 C.2       11 UNK         0.5000 
     68 O          -0.8060  -21.0501  -48.9221 O.2       11 UNK        -0.5000 
     69 N          -1.0522  -19.7203  -47.1077 N.am      12 UNK        -0.5000 
     70 CA         -2.4418  -19.3205  -47.3394 C.3       12 UNK         0.1400 
     71 CB         -2.8631  -18.2907  -46.2826 C.3       12 UNK        -0.1800 
     72 C          -3.4259  -20.5037  -47.3683 C.2       12 UNK         0.5000 
     73 O          -4.3357  -20.5093  -48.1981 O.2       12 UNK        -0.5000 
     74 N          -3.2145  -21.4902  -46.4865 N.am      13 UNK        -0.5000 
     75 CA         -3.9724  -22.7388  -46.4351 C.3       13 UNK         0.1400 
     76 CB         -3.6251  -23.5077  -45.1514 C.3       13 UNK        -0.1800 
     77 C          -3.7439  -23.6108  -47.6816 C.2       13 UNK         0.5000 
     78 O          -4.7173  -24.0646  -48.2843 O.2       13 UNK        -0.5000 
     79 N          -2.4737  -23.7905  -48.0759 N.am      14 UNK        -0.5000 
     80 CA         -2.0738  -24.5078  -49.2921 C.3       14 UNK         0.1400 
     81 CB         -0.5437  -24.6420  -49.3318 C.3       14 UNK        -0.1800 
     82 C          -2.5913  -23.8365  -50.5785 C.2       14 UNK         0.5000 
     83 O          -2.9901  -24.5293  -51.5146 O.2       14 UNK        -0.5000 
     84 N          -2.6111  -22.4994  -50.5722 N.am      15 UNK        -0.5000 
     85 CA         -3.1235  -21.6436  -51.6363 C.3       15 UNK         0.1400 
     86 CB         -2.4974  -20.2523  -51.4739 C.3       15 UNK        -0.1800 
     87 C          -4.6555  -21.5166  -51.6500 C.2       15 UNK         0.5000 
     88 O          -5.1651  -20.7939  -52.5040 O.2       15 UNK        -0.5000 
     89 N          -5.3585  -22.1528  -50.7008 N.am      16 UNK        -0.5000 
     90 CA         -6.8143  -22.1392  -50.5261 C.3       16 UNK         0.1400 
     91 CB         -7.4903  -22.9642  -51.6404 C.3       16 UNK        -0.1800 
     92 C          -7.3886  -20.7112  -50.3955 C.2       16 UNK         0.5000 
     93 O          -8.3460  -20.3614  -51.0879 O.2       16 UNK        -0.5000 
     94 N          -6.7632  -19.9124  -49.5182 N.am      17 UNK        -0.5000 
     95 CA         -7.0376  -18.4976  -49.2510 C.3       17 UNK         0.1400 
     96 CB         -8.4641  -18.2898  -48.6986 C.3       17 UNK        -0.1800 
     97 C          -6.7066  -17.6058  -50.4650 C.2       17 UNK         0.5000 
     98 O          -7.5432  -16.8198  -50.9133 O.2       17 UNK        -0.5000 
     99 N          -5.4683  -17.7521  -50.9576 N.am      18 UNK        -0.5000 
    100 CA        -4.8385  -16.9687  -52.0272 C.3       18 UNK         0.1400 
    101 CB        -4.7117  -15.4828  -51.6300 C.3       18 UNK        -0.1800 
    102 C         -5.4614  -17.1661  -53.4255 C.2       18 UNK         0.5000 
    103 O         -5.3596  -16.2764  -54.2721 O.2       18 UNK        -0.5000 
    104 N         -6.0392  -18.3488  -53.6729 N.am      19 UNK        -0.5000 
    105 CA        -6.3849  -18.8290  -55.0139 C.3       19 UNK         0.1400 
    106 CB        -7.4596  -19.9207  -54.8978 C.3       19 UNK        -0.1800 
    107 C         -5.1424  -19.3597  -55.7635 C.2       19 UNK         0.5000 
    108 O         -5.1450  -19.3902  -56.9947 O.2       19 UNK        -0.5000 
    109 N         -4.1082  -19.7419  -54.9987 N.am      20 UNK        -0.5000 
    110 CA        -2.8234  -20.3056  -55.4142 C.3       20 UNK         0.1400 
    111 CB        -2.0533  -19.3438  -56.3465 C.3       20 UNK        -0.1800 
    112 C         -2.9778  -21.7422  -55.9504 C.2       20 UNK         0.5000 
    113 O         -3.8632  -22.4647  -55.4879 O.2       20 UNK        -0.5000 
    114 N         -2.0850  -22.1460  -56.8675 N.am      21 UNK        -0.5000 
    115 CA        -1.9486  -23.4982  -57.4257 C.3       21 UNK         0.1400 
    116 CB        -3.1706  -23.8634  -58.2955 C.3       21 UNK        -0.1800 
    117 C         -1.6332  -24.5489  -56.3376 C.2       21 UNK         0.5000 
    118 O         -2.2491  -25.6161  -56.3025 O.2       21 UNK        -0.5000 
    119 N         -0.6872  -24.1971  -55.4556 N.am      22 UNK        -0.5000 
    120 CA        -0.2026  -25.0109  -54.3299 C.3       22 UNK         0.1400 
    121 C          0.3484  -26.3990  -54.7654 C.2       22 UNK         0.5000 
    122 N          0.0464  -27.4559  -54.0235 N.am      22 UNK        -0.7600 
    123 O          1.0860  -26.5157  -55.7419 O.2       22 UNK        -0.5000 
    124 C124        0.8795  -24.2567  -53.5157 C.3       23 UNK        -0.0398 
    125 S125        0.2781  -22.7030  -52.7686 S.3       23 UNK        -0.2404 
    126 C126        1.3581  -21.4531  -53.5332 C.3       23 UNK        -0.0205 
    127 H127       -2.0522  -11.3002  -51.7480 H         1 UNK         0.0600 
    128 H128       -3.6395  -11.9429  -51.3109 H         1 UNK         0.0600 
    129 H129       -2.4889  -12.9502  -52.1952 H         1 UNK         0.0600 
    130 H130       -1.8077  -14.5667  -50.8049 H         1 UNK         0.3000 
    131 H131       -0.4192  -13.9976  -48.3662 H         1 UNK         0.0600 
    132 H132       -0.3540  -16.5911  -48.2203 H         1 UNK         0.0800 
    133 H133        0.5038  -15.7845  -49.4892 H         1 UNK         0.0800 
    134 H134        0.2673  -16.0005  -51.8403 H         1 UNK         0.0800 
    135 H135       -0.8505  -17.0155  -52.7081 H         1 UNK         0.0800 
    136 H136       -0.1974  -19.2143  -53.3538 H         1 UNK         0.1150 
    137 H137        3.2804  -21.0532  -51.6499 H         1 UNK         0.1150 
    138 H138        1.9798  -17.2304  -50.2382 H         1 UNK         0.1150 
    139 H139        4.8249  -19.3675  -50.3431 H         1 UNK         0.0800 
    140 H140        4.0364  -18.1035  -49.4365 H         1 UNK         0.0800 
    141 H141        1.6272  -18.9398  -48.3721 H         1 UNK         0.0800 
    142 H142        2.2887  -19.1675  -46.7975 H         1 UNK         0.0800 
    143 H143        1.3920  -21.7229  -48.0993 H         1 UNK         0.0600 
    144 H144        1.6975  -20.7864  -45.4448 H         1 UNK         0.3000 
    145 H145       -0.2850  -23.2755  -43.8059 H         1 UNK         0.0600 
    146 H146        1.8483  -23.4347  -42.5493 H         1 UNK         0.0600 
    147 H147        2.7093  -22.6198  -43.8520 H         1 UNK         0.0600 
    148 H148        2.0026  -24.2075  -44.1205 H         1 UNK         0.0600 
    149 H149        1.0873  -21.0143  -42.7748 H         1 UNK         0.3000 
    150 H150       -1.6079  -18.6520  -43.1223 H         1 UNK         0.0600 
    151 H151       -2.0134  -19.8746  -41.0216 H         1 UNK         0.0600 
    152 H152       -0.9940  -18.4874  -40.6719 H         1 UNK         0.0600 
    153 H153       -0.2903  -20.0932  -40.7553 H         1 UNK         0.0600 
    154 H154        1.0080  -18.3165  -42.1019 H         1 UNK         0.3000 
    155 H155        2.6927  -17.5216  -45.1576 H         1 UNK         0.0600 
    156 H156        1.7842  -15.3801  -44.5123 H         1 UNK         0.0600 
    157 H157        3.2969  -15.5676  -43.6474 H         1 UNK         0.0600 
    158 H158        1.7647  -15.8045  -42.8073 H         1 UNK         0.0600 
    159 H159        3.5009  -17.7214  -42.4078 H         1 UNK         0.3000 
    160 H160        4.5208  -21.1272  -42.5131 H         1 UNK         0.0600 
    161 H161        6.1539  -18.5300  -42.5039 H         1 UNK         0.0600 
    162 H162        6.3823  -19.8770  -43.6129 H         1 UNK         0.0600 
    163 H163        6.6912  -20.0969  -41.8979 H         1 UNK         0.0600 
    164 H164        4.7251  -19.0393  -40.5437 H         1 UNK         0.3000 
    165 H165        1.5972  -19.6948  -38.9461 H         1 UNK         0.0600 
    166 H166        3.1004  -19.9901  -37.0070 H         1 UNK         0.0600 
    167 H167        3.2105  -21.3896  -38.0618 H         1 UNK         0.0600 
    168 H168        4.4936  -20.1856  -38.0709 H         1 UNK         0.0600 
    169 H169        3.6031  -17.8451  -38.2509 H         1 UNK         0.3000 
    170 H170        2.6643  -15.5111  -38.3707 H         1 UNK         0.0600 
    171 H171        4.3082  -15.6120  -40.9840 H         1 UNK         0.0600 
    172 H172        4.4684  -14.3802  -39.7354 H         1 UNK         0.0600 
    173 H173        4.9171  -16.0398  -39.3883 H         1 UNK         0.0600 
    174 H174        1.2786  -15.3910  -40.8560 H         1 UNK         0.3000 
    175 H175       -0.1656  -12.3032  -40.3031 H         1 UNK         0.0600 
    176 H176        1.7361  -12.7763  -42.6645 H         1 UNK         0.0600 
    177 H177        0.3654  -11.6669  -42.6503 H         1 UNK         0.0600 
    178 H178        1.7484  -11.3676  -41.6090 H         1 UNK         0.0600 
    179 H179       -0.2337  -14.2185  -42.4951 H         1 UNK         0.3000 
    180 H180       -1.2944  -16.4947  -41.9419 H         1 UNK         0.0600 
    181 H181       -4.0002  -15.8549  -40.6610 H         1 UNK         0.0600 
    182 H182       -2.7655  -16.8958  -39.9636 H         1 UNK         0.0600 
    183 H183       -3.5559  -17.3646  -41.4581 H         1 UNK         0.0600 
    184 H184       -3.6738  -15.2800  -42.9974 H         1 UNK         0.3000 
    185 H185       -3.5815  -15.4021  -45.4586 H         1 UNK         0.0600 
    186 H186       -2.7681  -12.4677  -44.9837 H         1 UNK         0.0600 
    187 H187       -4.0940  -12.9970  -46.0164 H         1 UNK         0.0600 
    188 H188       -4.1758  -13.2589  -44.2834 H         1 UNK         0.0600 
    189 H189       -0.9660  -14.4567  -46.2377 H         1 UNK         0.3000 
    190 H190       -0.5923  -19.3054  -46.2994 H         1 UNK         0.3000 
    191 H191       -2.4827  -18.8368  -48.3158 H         1 UNK         0.0600 
    192 H192       -2.1726  -17.4490  -46.2631 H         1 UNK         0.0600 
    193 H193       -2.8872  -18.7237  -45.2826 H         1 UNK         0.0600 
    194 H194       -3.8566  -17.8952  -46.4972 H         1 UNK         0.0600 
    195 H195       -2.4877  -21.3696  -45.7861 H         1 UNK         0.3000 
    196 H196       -5.0335  -22.4835  -46.3979 H         1 UNK         0.0600 
    197 H197       -3.8672  -22.9213  -44.2649 H         1 UNK         0.0600 
    198 H198       -2.5655  -23.7596  -45.1044 H         1 UNK         0.0600 
    199 H199       -4.1884  -24.4396  -45.0893 H         1 UNK         0.0600 
    200 H200       -1.7235  -23.3938  -47.5170 H         1 UNK         0.3000 
    201 H201       -2.5040  -25.5102  -49.2444 H         1 UNK         0.0600 
    202 H202       -0.1716  -25.1802  -48.4600 H         1 UNK         0.0600 
    203 H203       -0.0551  -23.6672  -49.3565 H         1 UNK         0.0600 
    204 H204       -0.2222  -25.1910  -50.2178 H         1 UNK         0.0600 
    205 H205       -2.1708  -22.0178  -49.7916 H         1 UNK         0.3000 
    206 H206       -2.8149  -22.0584  -52.5978 H         1 UNK         0.0600 
    207 H207       -1.4139  -20.3236  -51.4131 H         1 UNK         0.0600 
    208 H208       -2.8429  -19.7640  -50.5630 H         1 UNK         0.0600 
    209 H209       -2.7366  -19.5966  -52.3099 H         1 UNK         0.0600 
    210 H210       -4.8446  -22.6868  -50.0108 H         1 UNK         0.3000 
    211 H211       -7.0145  -22.6385  -49.5771 H         1 UNK         0.0600 
    212 H212       -7.3454  -22.5138  -52.6225 H         1 UNK         0.0600 
    213 H213       -8.5647  -23.0446  -51.4714 H         1 UNK         0.0600 
    214 H214       -7.0908  -23.9778  -51.6757 H         1 UNK         0.0600 
    215 H215       -5.9479  -20.2869  -49.0341 H         1 UNK         0.3000 
    216 H216       -6.3437  -18.2027  -48.4621 H         1 UNK         0.0600 
    217 H217       -8.6075  -17.2575  -48.3775 H         1 UNK         0.0600 
    218 H218       -8.6483  -18.9270  -47.8337 H         1 UNK         0.0600 
    219 H219       -9.2296  -18.5054  -49.4441 H         1 UNK         0.0600 
    220 H220       -4.8798  -18.4522  -50.5299 H         1 UNK         0.3000 
    221 H221       -3.8246  -17.3596  -52.1130 H         1 UNK         0.0600 
    222 H222       -4.2472  -15.3766  -50.6506 H         1 UNK         0.0600 
    223 H223       -4.0907  -14.9386  -52.3419 H         1 UNK         0.0600 
    224 H224       -5.6816  -14.9862  -51.5968 H         1 UNK         0.0600 
    225 H225       -6.0465  -19.0507  -52.9398 H         1 UNK         0.3000 
    226 H226       -6.8014  -18.0028  -55.5939 H         1 UNK         0.0600 
    227 H227       -8.3373  -19.5567  -54.3632 H         1 UNK         0.0600 
    228 H228       -7.7893  -20.2483  -55.8844 H         1 UNK         0.0600 
    229 H229       -7.0872  -20.7988  -54.3700 H         1 UNK         0.0600 
    230 H230       -4.3081  -19.8156  -54.0076 H         1 UNK         0.3000 
    231 H231       -2.2342  -20.4012  -54.5022 H         1 UNK         0.0600 
    232 H232       -1.0137  -19.6514  -56.4633 H         1 UNK         0.0600 
    233 H233       -2.0385  -18.3332  -55.9377 H         1 UNK         0.0600 
    234 H234       -2.4986  -19.2930  -57.3406 H         1 UNK         0.0600 
    235 H235       -1.4031  -21.4733  -57.1889 H         1 UNK         0.3000 
    236 H236       -1.0785  -23.4736  -58.0833 H         1 UNK         0.0600 
    237 H237       -4.0796  -23.9619  -57.7017 H         1 UNK         0.0600 
    238 H238       -3.3501  -23.1072  -59.0596 H         1 UNK         0.0600 
    239 H239       -3.0129  -24.8124  -58.8093 H         1 UNK         0.0600 
    240 H240       -0.2456  -23.2976  -55.5636 H         1 UNK         0.3000 
    241 H241       -1.0613  -25.1798  -53.6769 H         1 UNK         0.0600 
    242 H242        0.4106  -28.3588  -54.2865 H         1 UNK         0.3800 
    243 H243       -0.5548  -27.3828  -53.2172 H         1 UNK         0.3800 
    244 H244        1.7524  -24.0606  -54.1403 H         1 UNK         0.0800 
    245 H245        1.2354  -24.8815  -52.6944 H         1 UNK         0.0800 
    246 H246        2.3377  -21.8809  -53.7507 H         1 UNK         0.0800 
    247 H247        0.9359  -21.1424  -54.4898 H         1 UNK         0.0800 
@<TRIPOS>BOND
     1    1    2 1    
     2    1  127 1    
     3    1  128 1    
     4    1  129 1    
     5    2    3 2    
     6    2    4 am   BACKBONE|DICT|INTERRES
     7    4    5 1    
     8    4  130 1    
     9    5    6 1    
    10    5   65 1    
    11    5  131 1    
    12    6    7 1    
    13    6  132 1    
    14    6  133 1    
    15    7    8 1    
    16    8    9 1    
    17    8  134 1    
    18    8  135 1    
    19    9   10 ar   
    20    9   14 ar   
    21   10   11 ar   
    22   10  136 1    
    23   11   12 ar   
    24   11  126 1    
    25   12   13 ar   
    26   12  137 1    
    27   13   14 ar   
    28   13   15 1    
    29   14  138 1    
    30   15   16 1    
    31   15  139 1    
    32   15  140 1    
    33   16   17 1    
    34   17   18 1    
    35   17  141 1    
    36   17  142 1    
    37   18   19 1    
    38   18   67 1    
    39   18  143 1    
    40   19   20 am   BACKBONE|DICT|INTERRES
    41   19  144 1    
    42   20   21 2    
    43   20   22 1    
    44   22   23 1    
    45   22   24 1    
    46   22  145 1    
    47   23  146 1    
    48   23  147 1    
    49   23  148 1    
    50   24   25 am   BACKBONE|DICT|INTERRES
    51   24  149 1    
    52   25   26 2    
    53   25   27 1    
    54   27   28 1    
    55   27   29 1    
    56   27  150 1    
    57   28  151 1    
    58   28  152 1    
    59   28  153 1    
    60   29   30 am   BACKBONE|DICT|INTERRES
    61   29  154 1    
    62   30   31 2    
    63   30   32 1    
    64   32   33 1    
    65   32   34 1    
    66   32  155 1    
    67   33  156 1    
    68   33  157 1    
    69   33  158 1    
    70   34   35 am   BACKBONE|DICT|INTERRES
    71   34  159 1    
    72   35   36 2    
    73   35   37 1    
    74   37   38 1    
    75   37   39 1    
    76   37  160 1    
    77   38  161 1    
    78   38  162 1    
    79   38  163 1    
    80   39   40 am   BACKBONE|DICT|INTERRES
    81   39  164 1    
    82   40   41 2    
    83   40   42 1    
    84   42   43 1    
    85   42   44 1    
    86   42  165 1    
    87   43  166 1    
    88   43  167 1    
    89   43  168 1    
    90   44   45 am   BACKBONE|DICT|INTERRES
    91   44  169 1    
    92   45   46 2    
    93   45   47 1    
    94   47   48 1    
    95   47   49 1    
    96   47  170 1    
    97   48  171 1    
    98   48  172 1    
    99   48  173 1    
   100   49   50 am   BACKBONE|DICT|INTERRES
   101   49  174 1    
   102   50   51 2    
   103   50   52 1    
   104   52   53 1    
   105   52   54 1    
   106   52  175 1    
   107   53  176 1    
   108   53  177 1    
   109   53  178 1    
   110   54   55 am   BACKBONE|DICT|INTERRES
   111   54  179 1    
   112   55   56 2    
   113   55   57 1    
   114   57   58 1    
   115   57   59 1    
   116   57  180 1    
   117   58  181 1    
   118   58  182 1    
   119   58  183 1    
   120   59   60 am   BACKBONE|DICT|INTERRES
   121   59  184 1    
   122   60   61 2    
   123   60   62 1    
   124   62   63 1    
   125   62   64 1    
   126   62  185 1    
   127   63  186 1    
   128   63  187 1    
   129   63  188 1    
   130   64   65 am   BACKBONE|DICT|INTERRES
   131   64  189 1    
   132   65   66 2    
   133   67   68 2    
   134   67   69 am   BACKBONE|DICT|INTERRES
   135   69   70 1    
   136   69  190 1    
   137   70   71 1    
   138   70   72 1    
   139   70  191 1    
   140   71  192 1    
   141   71  193 1    
   142   71  194 1    
   143   72   73 2    
   144   72   74 am   BACKBONE|DICT|INTERRES
   145   74   75 1    
   146   74  195 1    
   147   75   76 1    
   148   75   77 1    
   149   75  196 1    
   150   76  197 1    
   151   76  198 1    
   152   76  199 1    
   153   77   78 2    
   154   77   79 am   BACKBONE|DICT|INTERRES
   155   79   80 1    
   156   79  200 1    
   157   80   81 1    
   158   80   82 1    
   159   80  201 1    
   160   81  202 1    
   161   81  203 1    
   162   81  204 1    
   163   82   83 2    
   164   82   84 am   BACKBONE|DICT|INTERRES
   165   84   85 1    
   166   84  205 1    
   167   85   86 1    
   168   85   87 1    
   169   85  206 1    
   170   86  207 1    
   171   86  208 1    
   172   86  209 1    
   173   87   88 2    
   174   87   89 am   BACKBONE|DICT|INTERRES
   175   89   90 1    
   176   89  210 1    
   177   90   91 1    
   178   90   92 1    
   179   90  211 1    
   180   91  212 1    
   181   91  213 1    
   182   91  214 1    
   183   92   93 2    
   184   92   94 am   BACKBONE|DICT|INTERRES
   185   94   95 1    
   186   94  215 1    
   187   95   96 1    
   188   95   97 1    
   189   95  216 1    
   190   96  217 1    
   191   96  218 1    
   192   96  219 1    
   193   97   98 2    
   194   97   99 am   BACKBONE|DICT|INTERRES
   195   99  100 1    
   196   99  220 1    
   197  100  101 1    
   198  100  102 1    
   199  100  221 1    
   200  101  222 1    
   201  101  223 1    
   202  101  224 1    
   203  102  103 2    
   204  102  104 am   BACKBONE|DICT|INTERRES
   205  104  105 1    
   206  104  225 1    
   207  105  106 1    
   208  105  107 1    
   209  105  226 1    
   210  106  227 1    
   211  106  228 1    
   212  106  229 1    
   213  107  108 2    
   214  107  109 am   BACKBONE|DICT|INTERRES
   215  109  110 1    
   216  109  230 1    
   217  110  111 1    
   218  110  112 1    
   219  110  231 1    
   220  111  232 1    
   221  111  233 1    
   222  111  234 1    
   223  112  113 2    
   224  112  114 am   BACKBONE|DICT|INTERRES
   225  114  115 1    
   226  114  235 1    
   227  115  116 1    
   228  115  117 1    
   229  115  236 1    
   230  116  237 1    
   231  116  238 1    
   232  116  239 1    
   233  117  118 2    
   234  117  119 am   BACKBONE|DICT|INTERRES
   235  119  120 1    
   236  119  240 1    
   237  120  121 1    
   238  120  124 1    
   239  120  241 1    
   240  121  122 am   BACKBONE|DICT|INTERRES
   241  121  123 2    
   242  122  242 1    
   243  122  243 1    
   244  124  125 1    
   245  124  244 1    
   246  124  245 1    
   247  125  126 1    
   248  126  246 1    
   249  126  247 1    
@<TRIPOS>SUBSTRUCTURE
     1 UNK         1 GROUP             0       ****    0 ROOT    
