@<TRIPOS>MOLECULE
3R540
247   249    1
SMALL
USER_CHARGES


@<TRIPOS>ATOM
      1 CA          1.1928  -15.8567  -51.9744 C.3       0 UNK        -0.1800 
      2 C           0.1321  -14.7582  -51.9562 C.2       0 UNK         0.5000 
      3 O          -0.3370  -14.3517  -53.0182 O.2       0 UNK        -0.5000 
      4 N          -0.3016  -14.2641  -50.7902 N.am      1 UNK        -0.5000 
      5 CA          0.1430  -14.6590  -49.4496 C.3       1 UNK         0.1400 
      6 C6         -0.9651  -14.4458  -48.3878 C.3       23 UNK        -0.0398 
      7 S7         -2.4634  -15.4269  -48.7261 S.3       23 UNK        -0.2404 
      8 C8         -2.1136  -16.9644  -47.8134 C.3       23 UNK        -0.0205 
      9 C9         -1.1154  -17.8491  -48.5483 C.ar      23 UNK        -0.0193 
     10 C10        -1.5077  -18.5095  -49.7131 C.ar      23 UNK        -0.1150 
     11 C11        -0.5931  -19.2699  -50.4463 C.ar      23 UNK        -0.0193 
     12 C12         0.7146  -19.4119  -49.9749 C.ar      23 UNK        -0.1150 
     13 C13         1.1135  -18.7852  -48.7908 C.ar      23 UNK        -0.0193 
     14 C14         0.1943  -18.0027  -48.0831 C.ar      23 UNK        -0.1150 
     15 C15         2.5510  -18.9069  -48.3068 C.3       23 UNK        -0.0205 
     16 S16         2.6997  -19.8679  -46.7684 S.3       23 UNK        -0.2404 
     17 C17         2.5577  -21.5964  -47.3254 C.3       23 UNK        -0.0398 
     18 CA          1.4128  -22.4186  -46.6777 C.3       11 UNK         0.1400 
     19 N           1.3091  -22.2941  -45.2171 N.am      11 UNK        -0.5000 
     20 C           0.6847  -23.1987  -44.4451 C.2       10 UNK         0.5000 
     21 O           0.1685  -24.2264  -44.8869 O.2       10 UNK        -0.5000 
     22 CA          0.5764  -22.8961  -42.9388 C.3       10 UNK         0.1400 
     23 CB          1.9349  -23.0531  -42.2394 C.3       10 UNK        -0.1800 
     24 N           0.0293  -21.5688  -42.6654 N.am      10 UNK        -0.5000 
     25 C          -1.1991  -21.1612  -43.0157 C.2       9 UNK         0.5000 
     26 O          -2.0275  -21.8851  -43.5678 O.2       9 UNK        -0.5000 
     27 CA         -1.5475  -19.6838  -42.7433 C.3       9 UNK         0.1400 
     28 CB         -2.1666  -19.5159  -41.3486 C.3       9 UNK        -0.1800 
     29 N          -0.3957  -18.7897  -42.8823 N.am      9 UNK        -0.5000 
     30 C           0.2930  -18.6204  -44.0197 C.2       8 UNK         0.5000 
     31 O          -0.0076  -19.1680  -45.0773 O.2       8 UNK        -0.5000 
     32 CA          1.5459  -17.7320  -43.9514 C.3       8 UNK         0.1400 
     33 CB          1.1831  -16.2522  -44.1310 C.3       8 UNK        -0.1800 
     34 N           2.2643  -17.9254  -42.6925 N.am      8 UNK        -0.5000 
     35 C           3.0622  -18.9736  -42.4384 C.2       7 UNK         0.5000 
     36 O           3.3263  -19.8468  -43.2638 O.2       7 UNK        -0.5000 
     37 CA          3.6437  -19.0829  -41.0150 C.3       7 UNK         0.1400 
     38 CB          4.9831  -18.3364  -40.9239 C.3       7 UNK        -0.1800 
     39 N           2.7385  -18.5693  -39.9862 N.am      7 UNK        -0.5000 
     40 C           1.5623  -19.1232  -39.6587 C.2       6 UNK         0.5000 
     41 O           1.1458  -20.1743  -40.1453 O.2       6 UNK        -0.5000 
     42 CA          0.6801  -18.3355  -38.6657 C.3       6 UNK         0.1400 
     43 CB          0.9716  -18.7742  -37.2232 C.3       6 UNK        -0.1800 
     44 N           0.8311  -16.8774  -38.7696 N.am      6 UNK        -0.5000 
     45 C           0.6019  -16.1649  -39.8816 C.2       5 UNK         0.5000 
     46 O           0.2077  -16.6770  -40.9320 O.2       5 UNK        -0.5000 
     47 CA          0.9313  -14.6588  -39.8265 C.3       5 UNK         0.1400 
     48 CB          2.3958  -14.4261  -39.4115 C.3       5 UNK        -0.1800 
     49 N           0.7355  -14.0330  -41.1331 N.am      5 UNK        -0.5000 
     50 C          -0.4175  -13.5505  -41.6129 C.2       4 UNK         0.5000 
     51 O          -1.4570  -13.4933  -40.9537 O.2       4 UNK        -0.5000 
     52 CA         -0.4102  -13.0800  -43.0877 C.3       4 UNK         0.1400 
     53 CB         -1.3140  -11.8524  -43.3269 C.3       4 UNK        -0.1800 
     54 N           0.9386  -12.8727  -43.6428 N.am      4 UNK        -0.5000 
     55 C           1.8290  -11.9294  -43.2981 C.2       3 UNK         0.5000 
     56 O           1.6052  -11.0499  -42.4661 O.2       3 UNK        -0.5000 
     57 CA          3.2275  -11.9973  -43.9501 C.3       3 UNK         0.1400 
     58 CB          4.2893  -12.3302  -42.8880 C.3       3 UNK        -0.1800 
     59 N           3.3654  -12.9621  -45.0481 N.am      3 UNK        -0.5000 
     60 C           2.8539  -12.8251  -46.2791 C.2       2 UNK         0.5000 
     61 O           2.0992  -11.9036  -46.5917 O.2       2 UNK        -0.5000 
     62 CA          3.2571  -13.8817  -47.3359 C.3       2 UNK         0.1400 
     63 CB          4.1074  -15.0423  -46.7769 C.3       2 UNK        -0.1800 
     64 N           2.0761  -14.4489  -47.9827 N.am      2 UNK        -0.5000 
     65 C           1.4318  -13.9226  -49.0326 C.2       1 UNK         0.5000 
     66 O           1.8063  -12.9188  -49.6441 O.2       1 UNK        -0.5000 
     67 C           0.0554  -22.2315  -47.3823 C.2       11 UNK         0.5000 
     68 O          -0.1917  -22.9220  -48.3711 O.2       11 UNK        -0.5000 
     69 N          -0.8261  -21.3813  -46.8326 N.am      12 UNK        -0.5000 
     70 CA         -2.2086  -21.2182  -47.2888 C.3       12 UNK         0.1400 
     71 CB         -2.9150  -20.1287  -46.4681 C.3       12 UNK        -0.1800 
     72 C          -3.0087  -22.5278  -47.2095 C.2       12 UNK         0.5000 
     73 O          -3.6503  -22.9064  -48.1902 O.2       12 UNK        -0.5000 
     74 N          -2.9285  -23.2014  -46.0535 N.am      13 UNK        -0.5000 
     75 CA         -3.5681  -24.4881  -45.7927 C.3       13 UNK         0.1400 
     76 CB         -3.4673  -24.8177  -44.2958 C.3       13 UNK        -0.1800 
     77 C          -2.9776  -25.6243  -46.6437 C.2       13 UNK         0.5000 
     78 O          -3.7390  -26.4201  -47.1937 O.2       13 UNK        -0.5000 
     79 N          -1.6419  -25.6666  -46.7576 N.am      14 UNK        -0.5000 
     80 CA         -0.9098  -26.6675  -47.5367 C.3       14 UNK         0.1400 
     81 CB          0.5952  -26.5405  -47.2594 C.3       14 UNK        -0.1800 
     82 C          -1.1906  -26.5814  -49.0479 C.2       14 UNK         0.5000 
     83 O          -1.3687  -27.6165  -49.6910 O.2       14 UNK        -0.5000 
     84 N          -1.2423  -25.3544  -49.5834 N.am      15 UNK        -0.5000 
     85 CA         -1.5401  -25.0865  -50.9903 C.3       15 UNK         0.1400 
     86 CB         -0.9734  -23.7069  -51.3650 C.3       15 UNK        -0.1800 
     87 C          -3.0443  -25.1330  -51.3143 C.2       15 UNK         0.5000 
     88 O          -3.3923  -25.1628  -52.4941 O.2       15 UNK        -0.5000 
     89 N          -3.9058  -25.0613  -50.2872 N.am      16 UNK        -0.5000 
     90 CA         -5.3583  -24.8487  -50.3648 C.3       16 UNK         0.1400 
     91 CB         -6.0668  -26.0774  -50.9704 C.3       16 UNK        -0.1800 
     92 C          -5.6835  -23.5312  -51.1017 C.2       16 UNK         0.5000 
     93 O          -6.4578  -23.5163  -52.0617 O.2       16 UNK        -0.5000 
     94 N          -4.9800  -22.4636  -50.6919 N.am      17 UNK        -0.5000 
     95 CA         -4.9273  -21.1278  -51.3027 C.3       17 UNK         0.1400 
     96 CB         -6.2795  -20.4052  -51.1418 C.3       17 UNK        -0.1800 
     97 C          -4.4375  -21.1240  -52.7711 C.2       17 UNK         0.5000 
     98 O          -4.6679  -20.1478  -53.4863 O.2       17 UNK        -0.5000 
     99 N          -3.7947  -22.2212  -53.2026 N.am      18 UNK        -0.5000 
    100 CA        -3.4024  -22.5427  -54.5782 C.3       18 UNK         0.1400 
    101 CB        -2.2774  -21.6066  -55.0619 C.3       18 UNK        -0.1800 
    102 C         -4.6179  -22.5920  -55.5278 C.2       18 UNK         0.5000 
    103 O         -4.5322  -22.1214  -56.6609 O.2       18 UNK        -0.5000 
    104 N         -5.7478  -23.1146  -55.0219 N.am      19 UNK        -0.5000 
    105 CA        -7.0766  -23.1045  -55.6476 C.3       19 UNK         0.1400 
    106 CB        -7.1018  -23.9651  -56.9283 C.3       19 UNK        -0.1800 
    107 C         -7.6020  -21.6671  -55.8614 C.2       19 UNK         0.5000 
    108 O         -8.1919  -21.3625  -56.8990 O.2       19 UNK        -0.5000 
    109 N         -7.3484  -20.8134  -54.8587 N.am      20 UNK        -0.5000 
    110 CA        -7.6496  -19.3803  -54.7835 C.3       20 UNK         0.1400 
    111 CB        -9.1684  -19.1213  -54.8727 C.3       20 UNK        -0.1800 
    112 C         -6.8285  -18.5099  -55.7604 C.2       20 UNK         0.5000 
    113 O         -7.2407  -17.3886  -56.0633 O.2       20 UNK        -0.5000 
    114 N         -5.6752  -19.0149  -56.2233 N.am      21 UNK        -0.5000 
    115 CA        -4.7248  -18.2599  -57.0422 C.3       21 UNK         0.1400 
    116 CB        -3.8709  -19.2227  -57.8792 C.3       21 UNK        -0.1800 
    117 C         -3.8303  -17.3324  -56.1983 C.2       21 UNK         0.5000 
    118 O         -3.3931  -16.3007  -56.7109 O.2       21 UNK        -0.5000 
    119 N         -3.5774  -17.6949  -54.9324 N.am      22 UNK        -0.5000 
    120 CA        -2.8884  -16.8346  -53.9580 C.3       22 UNK         0.1400 
    121 C         -3.7906  -15.6590  -53.4874 C.2       22 UNK         0.5000 
    122 N         -3.2073  -14.5067  -53.1894 N.am      22 UNK        -0.7600 
    123 O         -5.0051  -15.7912  -53.3512 O.2       22 UNK        -0.5000 
    124 C124       -2.3731  -17.6365  -52.7392 C.3       23 UNK        -0.0398 
    125 S125       -1.0051  -18.7710  -53.1569 S.3       23 UNK        -0.2404 
    126 C126       -1.0175  -19.9305  -51.7486 C.3       23 UNK        -0.0205 
    127 H127        2.0948  -15.5426  -51.4501 H         1 UNK         0.0600 
    128 H128        1.4711  -16.1012  -52.9997 H         1 UNK         0.0600 
    129 H129        0.8129  -16.7666  -51.5102 H         1 UNK         0.0600 
    130 H130       -0.9846  -13.5216  -50.8066 H         1 UNK         0.3000 
    131 H131        0.3842  -15.7196  -49.4706 H         1 UNK         0.0600 
    132 H132       -0.6127  -14.6953  -47.3857 H         1 UNK         0.0800 
    133 H133       -1.2536  -13.3938  -48.3477 H         1 UNK         0.0800 
    134 H134       -3.0543  -17.5039  -47.7021 H         1 UNK         0.0800 
    135 H135       -1.7699  -16.7368  -46.8031 H         1 UNK         0.0800 
    136 H136       -2.5247  -18.4027  -50.0598 H         1 UNK         0.1150 
    137 H137        1.4249  -20.0007  -50.5378 H         1 UNK         0.1150 
    138 H138        0.5037  -17.5107  -47.1730 H         1 UNK         0.1150 
    139 H139        3.1905  -19.3453  -49.0744 H         1 UNK         0.0800 
    140 H140        2.9427  -17.9053  -48.1259 H         1 UNK         0.0800 
    141 H141        2.4899  -21.6316  -48.4143 H         1 UNK         0.0800 
    142 H142        3.5075  -22.0751  -47.0842 H         1 UNK         0.0800 
    143 H143        1.6811  -23.4596  -46.8674 H         1 UNK         0.0600 
    144 H144        1.6835  -21.4490  -44.8062 H         1 UNK         0.3000 
    145 H145       -0.1091  -23.6272  -42.5051 H         1 UNK         0.0600 
    146 H146        1.8449  -22.8965  -41.1642 H         1 UNK         0.0600 
    147 H147        2.6713  -22.3452  -42.6190 H         1 UNK         0.0600 
    148 H148        2.3364  -24.0558  -42.3902 H         1 UNK         0.0600 
    149 H149        0.6229  -20.9226  -42.1604 H         1 UNK         0.3000 
    150 H150       -2.2900  -19.3755  -43.4814 H         1 UNK         0.0600 
    151 H151       -3.0940  -20.0839  -41.2665 H         1 UNK         0.0600 
    152 H152       -2.4032  -18.4719  -41.1417 H         1 UNK         0.0600 
    153 H153       -1.4979  -19.8719  -40.5658 H         1 UNK         0.0600 
    154 H154       -0.1230  -18.2519  -42.0660 H         1 UNK         0.3000 
    155 H155        2.2104  -18.0021  -44.7707 H         1 UNK         0.0600 
    156 H156        0.7660  -16.0725  -45.1222 H         1 UNK         0.0600 
    157 H157        2.0610  -15.6165  -44.0205 H         1 UNK         0.0600 
    158 H158        0.4386  -15.9342  -43.4037 H         1 UNK         0.0600 
    159 H159        2.0228  -17.2997  -41.9366 H         1 UNK         0.3000 
    160 H160        3.8249  -20.1405  -40.8112 H         1 UNK         0.0600 
    161 H161        4.8614  -17.2664  -41.0973 H         1 UNK         0.0600 
    162 H162        5.6896  -18.7110  -41.6659 H         1 UNK         0.0600 
    163 H163        5.4426  -18.4684  -39.9441 H         1 UNK         0.0600 
    164 H164        3.0085  -17.7117  -39.5282 H         1 UNK         0.3000 
    165 H165       -0.3608  -18.5745  -38.8898 H         1 UNK         0.0600 
    166 H166        0.2923  -18.2932  -36.5192 H         1 UNK         0.0600 
    167 H167        0.8448  -19.8518  -37.1098 H         1 UNK         0.0600 
    168 H168        1.9924  -18.5306  -36.9262 H         1 UNK         0.0600 
    169 H169        1.1533  -16.4005  -37.9397 H         1 UNK         0.3000 
    170 H170        0.2737  -14.1899  -39.0918 H         1 UNK         0.0600 
    171 H171        3.0916  -14.9389  -40.0773 H         1 UNK         0.0600 
    172 H172        2.6433  -13.3643  -39.4282 H         1 UNK         0.0600 
    173 H173        2.5873  -14.7793  -38.3978 H         1 UNK         0.0600 
    174 H174        1.5239  -14.0581  -41.7598 H         1 UNK         0.3000 
    175 H175       -0.8412  -13.9030  -43.6589 H         1 UNK         0.0600 
    176 H176       -1.0189  -11.0020  -42.7120 H         1 UNK         0.0600 
    177 H177       -1.2858  -11.5393  -44.3706 H         1 UNK         0.0600 
    178 H178       -2.3530  -12.0800  -43.0861 H         1 UNK         0.0600 
    179 H179        1.2253  -13.5299  -44.3522 H         1 UNK         0.3000 
    180 H180        3.4421  -11.0022  -44.3453 H         1 UNK         0.0600 
    181 H181        4.1356  -13.3223  -42.4615 H         1 UNK         0.0600 
    182 H182        4.2644  -11.6133  -42.0661 H         1 UNK         0.0600 
    183 H183        5.2940  -12.2977  -43.3101 H         1 UNK         0.0600 
    184 H184        3.9786  -13.7451  -44.8735 H         1 UNK         0.3000 
    185 H185        3.8608  -13.3625  -48.0832 H         1 UNK         0.0600 
    186 H186        3.5747  -15.6164  -46.0181 H         1 UNK         0.0600 
    187 H187        4.3864  -15.7340  -47.5722 H         1 UNK         0.0600 
    188 H188        5.0383  -14.6807  -46.3380 H         1 UNK         0.0600 
    189 H189        1.6969  -15.2745  -47.5460 H         1 UNK         0.3000 
    190 H190       -0.5242  -20.7888  -46.0644 H         1 UNK         0.3000 
    191 H191       -2.1718  -20.9021  -48.3323 H         1 UNK         0.0600 
    192 H192       -2.2846  -19.2527  -46.3405 H         1 UNK         0.0600 
    193 H193       -3.1881  -20.4747  -45.4722 H         1 UNK         0.0600 
    194 H194       -3.8335  -19.8099  -46.9617 H         1 UNK         0.0600 
    195 H195       -2.4041  -22.7930  -45.2849 H         1 UNK         0.3000 
    196 H196       -4.6254  -24.3946  -46.0494 H         1 UNK         0.0600 
    197 H197       -3.9627  -24.0570  -43.6921 H         1 UNK         0.0600 
    198 H198       -2.4296  -24.8802  -43.9658 H         1 UNK         0.0600 
    199 H199       -3.9435  -25.7729  -44.0717 H         1 UNK         0.0600 
    200 H200       -1.0840  -24.9971  -46.2357 H         1 UNK         0.3000 
    201 H201       -1.2332  -27.6530  -47.1952 H         1 UNK         0.0600 
    202 H202        0.8129  -26.6508  -46.1970 H         1 UNK         0.0600 
    203 H203        0.9820  -25.5749  -47.5841 H         1 UNK         0.0600 
    204 H204        1.1556  -27.3123  -47.7883 H         1 UNK         0.0600 
    205 H205       -1.0331  -24.5456  -49.0031 H         1 UNK         0.3000 
    206 H206       -1.0438  -25.8371  -51.6089 H         1 UNK         0.0600 
    207 H207        0.0959  -23.6499  -51.1608 H         1 UNK         0.0600 
    208 H208       -1.4627  -22.9077  -50.8063 H         1 UNK         0.0600 
    209 H209       -1.1110  -23.4985  -52.4267 H         1 UNK         0.0600 
    210 H210       -3.5134  -25.0065  -49.3565 H         1 UNK         0.3000 
    211 H211       -5.7120  -24.7301  -49.3396 H         1 UNK         0.0600 
    212 H212       -5.7929  -26.2354  -52.0139 H         1 UNK         0.0600 
    213 H213       -7.1501  -25.9583  -50.9327 H         1 UNK         0.0600 
    214 H214       -5.8196  -26.9840  -50.4182 H         1 UNK         0.0600 
    215 H215       -4.3888  -22.5951  -49.8725 H         1 UNK         0.3000 
    216 H216       -4.1875  -20.5650  -50.7328 H         1 UNK         0.0600 
    217 H217       -6.2110  -19.3659  -51.4656 H         1 UNK         0.0600 
    218 H218       -6.5972  -20.3959  -50.0993 H         1 UNK         0.0600 
    219 H219       -7.0674  -20.8802  -51.7266 H         1 UNK         0.0600 
    220 H220       -3.6972  -22.9910  -52.5540 H         1 UNK         0.3000 
    221 H221       -2.9962  -23.5542  -54.5622 H         1 UNK         0.0600 
    222 H222       -2.6026  -20.5679  -55.1054 H         1 UNK         0.0600 
    223 H223       -1.4151  -21.6573  -54.3976 H         1 UNK         0.0600 
    224 H224       -1.9333  -21.8856  -56.0582 H         1 UNK         0.0600 
    225 H225       -5.7310  -23.4482  -54.0637 H         1 UNK         0.3000 
    226 H226       -7.7525  -23.5694  -54.9283 H         1 UNK         0.0600 
    227 H227       -6.7207  -24.9680  -56.7364 H         1 UNK         0.0600 
    228 H228       -8.1198  -24.0717  -57.3045 H         1 UNK         0.0600 
    229 H229       -6.5049  -23.5261  -57.7280 H         1 UNK         0.0600 
    230 H230       -6.8157  -21.1715  -54.0790 H         1 UNK         0.3000 
    231 H231       -7.3313  -19.0686  -53.7880 H         1 UNK         0.0600 
    232 H232       -9.4025  -18.0832  -54.6345 H         1 UNK         0.0600 
    233 H233       -9.7173  -19.7449  -54.1671 H         1 UNK         0.0600 
    234 H234       -9.5568  -19.3203  -55.8716 H         1 UNK         0.0600 
    235 H235       -5.3952  -19.9414  -55.9308 H         1 UNK         0.3000 
    236 H236       -5.2855  -17.6328  -57.7387 H         1 UNK         0.0600 
    237 H237       -3.2255  -19.8390  -57.2550 H         1 UNK         0.0600 
    238 H238       -4.4946  -19.8869  -58.4777 H         1 UNK         0.0600 
    239 H239       -3.2275  -18.6725  -58.5668 H         1 UNK         0.0600 
    240 H240       -3.9954  -18.5426  -54.5640 H         1 UNK         0.3000 
    241 H241       -2.0204  -16.3975  -54.4564 H         1 UNK         0.0600 
    242 H242       -3.7750  -13.7367  -52.8732 H         1 UNK         0.3800 
    243 H243       -2.1986  -14.3911  -53.2580 H         1 UNK         0.3800 
    244 H244       -3.1917  -18.1978  -52.2875 H         1 UNK         0.0800 
    245 H245       -2.0012  -16.9559  -51.9715 H         1 UNK         0.0800 
    246 H246       -0.3492  -20.7609  -51.9805 H         1 UNK         0.0800 
    247 H247       -2.0053  -20.3673  -51.6328 H         1 UNK         0.0800 
@<TRIPOS>BOND
     1    1    2 1    
     2    1  127 1    
     3    1  128 1    
     4    1  129 1    
     5    2    3 2    
     6    2    4 am   BACKBONE|DICT|INTERRES
     7    4    5 1    
     8    4  130 1    
     9    5    6 1    
    10    5   65 1    
    11    5  131 1    
    12    6    7 1    
    13    6  132 1    
    14    6  133 1    
    15    7    8 1    
    16    8    9 1    
    17    8  134 1    
    18    8  135 1    
    19    9   10 ar   
    20    9   14 ar   
    21   10   11 ar   
    22   10  136 1    
    23   11   12 ar   
    24   11  126 1    
    25   12   13 ar   
    26   12  137 1    
    27   13   14 ar   
    28   13   15 1    
    29   14  138 1    
    30   15   16 1    
    31   15  139 1    
    32   15  140 1    
    33   16   17 1    
    34   17   18 1    
    35   17  141 1    
    36   17  142 1    
    37   18   19 1    
    38   18   67 1    
    39   18  143 1    
    40   19   20 am   BACKBONE|DICT|INTERRES
    41   19  144 1    
    42   20   21 2    
    43   20   22 1    
    44   22   23 1    
    45   22   24 1    
    46   22  145 1    
    47   23  146 1    
    48   23  147 1    
    49   23  148 1    
    50   24   25 am   BACKBONE|DICT|INTERRES
    51   24  149 1    
    52   25   26 2    
    53   25   27 1    
    54   27   28 1    
    55   27   29 1    
    56   27  150 1    
    57   28  151 1    
    58   28  152 1    
    59   28  153 1    
    60   29   30 am   BACKBONE|DICT|INTERRES
    61   29  154 1    
    62   30   31 2    
    63   30   32 1    
    64   32   33 1    
    65   32   34 1    
    66   32  155 1    
    67   33  156 1    
    68   33  157 1    
    69   33  158 1    
    70   34   35 am   BACKBONE|DICT|INTERRES
    71   34  159 1    
    72   35   36 2    
    73   35   37 1    
    74   37   38 1    
    75   37   39 1    
    76   37  160 1    
    77   38  161 1    
    78   38  162 1    
    79   38  163 1    
    80   39   40 am   BACKBONE|DICT|INTERRES
    81   39  164 1    
    82   40   41 2    
    83   40   42 1    
    84   42   43 1    
    85   42   44 1    
    86   42  165 1    
    87   43  166 1    
    88   43  167 1    
    89   43  168 1    
    90   44   45 am   BACKBONE|DICT|INTERRES
    91   44  169 1    
    92   45   46 2    
    93   45   47 1    
    94   47   48 1    
    95   47   49 1    
    96   47  170 1    
    97   48  171 1    
    98   48  172 1    
    99   48  173 1    
   100   49   50 am   BACKBONE|DICT|INTERRES
   101   49  174 1    
   102   50   51 2    
   103   50   52 1    
   104   52   53 1    
   105   52   54 1    
   106   52  175 1    
   107   53  176 1    
   108   53  177 1    
   109   53  178 1    
   110   54   55 am   BACKBONE|DICT|INTERRES
   111   54  179 1    
   112   55   56 2    
   113   55   57 1    
   114   57   58 1    
   115   57   59 1    
   116   57  180 1    
   117   58  181 1    
   118   58  182 1    
   119   58  183 1    
   120   59   60 am   BACKBONE|DICT|INTERRES
   121   59  184 1    
   122   60   61 2    
   123   60   62 1    
   124   62   63 1    
   125   62   64 1    
   126   62  185 1    
   127   63  186 1    
   128   63  187 1    
   129   63  188 1    
   130   64   65 am   BACKBONE|DICT|INTERRES
   131   64  189 1    
   132   65   66 2    
   133   67   68 2    
   134   67   69 am   BACKBONE|DICT|INTERRES
   135   69   70 1    
   136   69  190 1    
   137   70   71 1    
   138   70   72 1    
   139   70  191 1    
   140   71  192 1    
   141   71  193 1    
   142   71  194 1    
   143   72   73 2    
   144   72   74 am   BACKBONE|DICT|INTERRES
   145   74   75 1    
   146   74  195 1    
   147   75   76 1    
   148   75   77 1    
   149   75  196 1    
   150   76  197 1    
   151   76  198 1    
   152   76  199 1    
   153   77   78 2    
   154   77   79 am   BACKBONE|DICT|INTERRES
   155   79   80 1    
   156   79  200 1    
   157   80   81 1    
   158   80   82 1    
   159   80  201 1    
   160   81  202 1    
   161   81  203 1    
   162   81  204 1    
   163   82   83 2    
   164   82   84 am   BACKBONE|DICT|INTERRES
   165   84   85 1    
   166   84  205 1    
   167   85   86 1    
   168   85   87 1    
   169   85  206 1    
   170   86  207 1    
   171   86  208 1    
   172   86  209 1    
   173   87   88 2    
   174   87   89 am   BACKBONE|DICT|INTERRES
   175   89   90 1    
   176   89  210 1    
   177   90   91 1    
   178   90   92 1    
   179   90  211 1    
   180   91  212 1    
   181   91  213 1    
   182   91  214 1    
   183   92   93 2    
   184   92   94 am   BACKBONE|DICT|INTERRES
   185   94   95 1    
   186   94  215 1    
   187   95   96 1    
   188   95   97 1    
   189   95  216 1    
   190   96  217 1    
   191   96  218 1    
   192   96  219 1    
   193   97   98 2    
   194   97   99 am   BACKBONE|DICT|INTERRES
   195   99  100 1    
   196   99  220 1    
   197  100  101 1    
   198  100  102 1    
   199  100  221 1    
   200  101  222 1    
   201  101  223 1    
   202  101  224 1    
   203  102  103 2    
   204  102  104 am   BACKBONE|DICT|INTERRES
   205  104  105 1    
   206  104  225 1    
   207  105  106 1    
   208  105  107 1    
   209  105  226 1    
   210  106  227 1    
   211  106  228 1    
   212  106  229 1    
   213  107  108 2    
   214  107  109 am   BACKBONE|DICT|INTERRES
   215  109  110 1    
   216  109  230 1    
   217  110  111 1    
   218  110  112 1    
   219  110  231 1    
   220  111  232 1    
   221  111  233 1    
   222  111  234 1    
   223  112  113 2    
   224  112  114 am   BACKBONE|DICT|INTERRES
   225  114  115 1    
   226  114  235 1    
   227  115  116 1    
   228  115  117 1    
   229  115  236 1    
   230  116  237 1    
   231  116  238 1    
   232  116  239 1    
   233  117  118 2    
   234  117  119 am   BACKBONE|DICT|INTERRES
   235  119  120 1    
   236  119  240 1    
   237  120  121 1    
   238  120  124 1    
   239  120  241 1    
   240  121  122 am   BACKBONE|DICT|INTERRES
   241  121  123 2    
   242  122  242 1    
   243  122  243 1    
   244  124  125 1    
   245  124  244 1    
   246  124  245 1    
   247  125  126 1    
   248  126  246 1    
   249  126  247 1    
@<TRIPOS>SUBSTRUCTURE
     1 UNK         1 GROUP             0       ****    0 ROOT    
