@<TRIPOS>MOLECULE
3R540
247   249    1
SMALL
USER_CHARGES


@<TRIPOS>ATOM
      1 CA         -4.1676  -13.6779  -46.3120 C.3       0 UNK        -0.1800 
      2 C          -2.7723  -13.0748  -46.3651 C.2       0 UNK         0.5000 
      3 O          -1.9830  -13.2804  -45.4439 O.2       0 UNK        -0.5000 
      4 N          -2.4670  -12.3250  -47.4348 N.am      1 UNK        -0.5000 
      5 CA         -1.1586  -11.7129  -47.7348 C.3       1 UNK         0.1400 
      6 C6         -0.0650  -12.7552  -48.0967 C.3       23 UNK        -0.0398 
      7 S7         -0.5338  -13.8650  -49.4703 S.3       23 UNK        -0.2404 
      8 C8         -0.8301  -15.3991  -48.5425 C.3       23 UNK        -0.0205 
      9 C9         -1.2344  -16.5553  -49.4388 C.ar      23 UNK        -0.0193 
     10 C10        -2.5212  -16.6124  -49.9845 C.ar      23 UNK        -0.1150 
     11 C11        -2.9157  -17.7093  -50.7575 C.ar      23 UNK        -0.0193 
     12 C12        -2.0162  -18.7594  -50.9623 C.ar      23 UNK        -0.1150 
     13 C13        -0.7258  -18.7055  -50.4324 C.ar      23 UNK        -0.0193 
     14 C14        -0.3358  -17.5973  -49.6787 C.ar      23 UNK        -0.1150 
     15 C15         0.2323  -19.8646  -50.6468 C.3       23 UNK        -0.0205 
     16 S16         0.5027  -20.8213  -49.1209 S.3       23 UNK        -0.2404 
     17 C17        -1.1994  -21.0340  -48.4924 C.3       23 UNK        -0.0398 
     18 CA         -1.3586  -22.2958  -47.6214 C.3       11 UNK         0.1400 
     19 N          -0.4705  -22.3042  -46.4577 N.am      11 UNK        -0.5000 
     20 C          -0.2537  -23.3782  -45.6878 C.2       10 UNK         0.5000 
     21 O          -0.7482  -24.4840  -45.9056 O.2       10 UNK        -0.5000 
     22 CA          0.6144  -23.1664  -44.4371 C.3       10 UNK         0.1400 
     23 CB          2.1098  -23.2285  -44.7833 C.3       10 UNK        -0.1800 
     24 N           0.3087  -21.8966  -43.7778 N.am      10 UNK        -0.5000 
     25 C          -0.8267  -21.6511  -43.1094 C.2       9 UNK         0.5000 
     26 O          -1.7180  -22.4857  -42.9505 O.2       9 UNK        -0.5000 
     27 CA         -1.0118  -20.2255  -42.5572 C.3       9 UNK         0.1400 
     28 CB         -0.2989  -20.0710  -41.2058 C.3       9 UNK        -0.1800 
     29 N          -0.5327  -19.1929  -43.4770 N.am      9 UNK        -0.5000 
     30 C          -1.1027  -18.9082  -44.6577 C.2       8 UNK         0.5000 
     31 O          -2.0982  -19.4836  -45.0913 O.2       8 UNK        -0.5000 
     32 CA         -0.4216  -17.8318  -45.5239 C.3       8 UNK         0.1400 
     33 CB         -0.8926  -16.4357  -45.0868 C.3       8 UNK        -0.1800 
     34 N           1.0395  -17.8721  -45.4688 N.am      8 UNK        -0.5000 
     35 C           1.8150  -18.9473  -45.6726 C.2       7 UNK         0.5000 
     36 O           1.3817  -20.0558  -45.9831 O.2       7 UNK        -0.5000 
     37 CA          3.3255  -18.7687  -45.4323 C.3       7 UNK         0.1400 
     38 CB          4.0560  -18.5879  -46.7708 C.3       7 UNK        -0.1800 
     39 N           3.6586  -17.6440  -44.5528 N.am      7 UNK        -0.5000 
     40 C           3.2733  -17.4812  -43.2801 C.2       6 UNK         0.5000 
     41 O           2.5693  -18.2921  -42.6762 O.2       6 UNK        -0.5000 
     42 CA          3.6951  -16.1746  -42.5772 C.3       6 UNK         0.1400 
     43 CB          5.0832  -16.3176  -41.9261 C.3       6 UNK        -0.1800 
     44 N           3.6163  -14.9653  -43.4127 N.am      6 UNK        -0.5000 
     45 C           4.3443  -14.6233  -44.4898 C.2       5 UNK         0.5000 
     46 O           5.2101  -15.3435  -44.9877 O.2       5 UNK        -0.5000 
     47 CA          4.0409  -13.2614  -45.1490 C.3       5 UNK         0.1400 
     48 CB          3.1244  -13.4636  -46.3648 C.3       5 UNK        -0.1800 
     49 N           3.4134  -12.2973  -44.2449 N.am      5 UNK        -0.5000 
     50 C           3.9878  -11.7724  -43.1536 C.2       4 UNK         0.5000 
     51 O           5.1665  -11.9573  -42.8482 O.2       4 UNK        -0.5000 
     52 CA          3.0946  -10.9193  -42.2303 C.3       4 UNK         0.1400 
     53 CB          3.3985   -9.4256  -42.4225 C.3       4 UNK        -0.1800 
     54 N           1.6528  -11.1250  -42.3998 N.am      4 UNK        -0.5000 
     55 C           0.9686  -12.2666  -42.2528 C.2       3 UNK         0.5000 
     56 O           1.5013  -13.3482  -41.9990 O.2       3 UNK        -0.5000 
     57 CA         -0.5603  -12.2084  -42.4572 C.3       3 UNK         0.1400 
     58 CB         -1.2861  -11.9635  -41.1215 C.3       3 UNK        -0.1800 
     59 N          -1.0209  -11.2721  -43.4952 N.am      3 UNK        -0.5000 
     60 C          -0.9507   -9.9305  -43.5329 C.2       2 UNK         0.5000 
     61 O          -0.4537   -9.2552  -42.6304 O.2       2 UNK        -0.5000 
     62 CA         -1.5120   -9.2185  -44.7865 C.3       2 UNK         0.1400 
     63 CB         -0.7163   -7.9454  -45.1445 C.3       2 UNK        -0.1800 
     64 N          -1.6553  -10.0900  -45.9595 N.am      2 UNK        -0.5000 
     65 C          -0.6862  -10.7412  -46.6233 C.2       1 UNK         0.5000 
     66 O           0.5130  -10.6341  -46.3595 O.2       1 UNK        -0.5000 
     67 C          -2.8321  -22.4982  -47.2139 C.2       11 UNK         0.5000 
     68 O          -3.5420  -23.2355  -47.8951 O.2       11 UNK        -0.5000 
     69 N          -3.2607  -21.8916  -46.0966 N.am      12 UNK        -0.5000 
     70 CA         -4.5897  -22.0786  -45.5095 C.3       12 UNK         0.1400 
     71 CB         -4.8109  -21.0738  -44.3699 C.3       12 UNK        -0.1800 
     72 C          -4.8263  -23.5182  -45.0199 C.2       12 UNK         0.5000 
     73 O          -5.9128  -24.0543  -45.2358 O.2       12 UNK        -0.5000 
     74 N          -3.7974  -24.1449  -44.4298 N.am      13 UNK        -0.5000 
     75 CA         -3.8035  -25.5613  -44.0468 C.3       13 UNK         0.1400 
     76 CB         -2.5635  -25.8711  -43.1951 C.3       13 UNK        -0.1800 
     77 C          -3.8944  -26.5116  -45.2601 C.2       13 UNK         0.5000 
     78 O          -4.4960  -27.5802  -45.1527 O.2       13 UNK        -0.5000 
     79 N          -3.3441  -26.0802  -46.4029 N.am      14 UNK        -0.5000 
     80 CA         -3.4600  -26.7307  -47.7104 C.3       14 UNK         0.1400 
     81 CB         -2.2204  -26.3666  -48.5464 C.3       14 UNK        -0.1800 
     82 C          -4.7647  -26.3666  -48.4585 C.2       14 UNK         0.5000 
     83 O          -4.9331  -26.7794  -49.6064 O.2       14 UNK        -0.5000 
     84 N          -5.6545  -25.5897  -47.8195 N.am      15 UNK        -0.5000 
     85 CA         -6.9474  -25.1047  -48.3169 C.3       15 UNK         0.1400 
     86 CB         -7.9222  -26.2801  -48.5382 C.3       15 UNK        -0.1800 
     87 C          -6.8361  -24.1822  -49.5499 C.2       15 UNK         0.5000 
     88 O          -7.7784  -24.1053  -50.3405 O.2       15 UNK        -0.5000 
     89 N          -5.6861  -23.5067  -49.6970 N.am      16 UNK        -0.5000 
     90 CA         -5.2591  -22.5925  -50.7635 C.3       16 UNK         0.1400 
     91 CB         -6.1547  -21.3427  -50.8261 C.3       16 UNK        -0.1800 
     92 C          -5.1126  -23.2378  -52.1546 C.2       16 UNK         0.5000 
     93 O          -4.1106  -22.9936  -52.8261 O.2       16 UNK        -0.5000 
     94 N          -6.0917  -24.0523  -52.5617 N.am      17 UNK        -0.5000 
     95 CA         -6.2005  -24.6876  -53.8745 C.3       17 UNK         0.1400 
     96 CB         -7.5534  -25.4088  -53.9681 C.3       17 UNK        -0.1800 
     97 C          -5.0506  -25.6544  -54.2078 C.2       17 UNK         0.5000 
     98 O          -4.6579  -25.7375  -55.3716 O.2       17 UNK        -0.5000 
     99 N          -4.5237  -26.3567  -53.1944 N.am      18 UNK        -0.5000 
    100 CA        -3.3810  -27.2599  -53.3513 C.3       18 UNK         0.1400 
    101 CB        -3.4189  -28.3336  -52.2548 C.3       18 UNK        -0.1800 
    102 C         -2.0319  -26.5153  -53.3435 C.2       18 UNK         0.5000 
    103 O         -1.0531  -27.0474  -53.8685 O.2       18 UNK        -0.5000 
    104 N         -1.9963  -25.3095  -52.7575 N.am      19 UNK        -0.5000 
    105 CA        -0.8244  -24.4347  -52.7508 C.3       19 UNK         0.1400 
    106 CB        -0.8844  -23.4920  -51.5381 C.3       19 UNK        -0.1800 
    107 C         -0.7190  -23.6538  -54.0724 C.2       19 UNK         0.5000 
    108 O          0.3446  -23.6573  -54.6925 O.2       19 UNK        -0.5000 
    109 N         -1.8391  -23.0375  -54.4853 N.am      20 UNK        -0.5000 
    110 CA        -2.0628  -22.3315  -55.7529 C.3       20 UNK         0.1400 
    111 CB        -2.1452  -23.3461  -56.9120 C.3       20 UNK        -0.1800 
    112 C         -1.0486  -21.1976  -56.0209 C.2       20 UNK         0.5000 
    113 O         -0.5575  -21.0576  -57.1431 O.2       20 UNK        -0.5000 
    114 N         -0.7412  -20.4182  -54.9770 N.am      21 UNK        -0.5000 
    115 CA         0.2987  -19.3879  -54.9849 C.3       21 UNK         0.1400 
    116 CB         1.5920  -19.9695  -54.3823 C.3       21 UNK        -0.1800 
    117 C         -0.1765  -18.1019  -54.2856 C.2       21 UNK         0.5000 
    118 O          0.6103  -17.4497  -53.5984 O.2       21 UNK        -0.5000 
    119 N         -1.4567  -17.7550  -54.4765 N.am      22 UNK        -0.5000 
    120 CA        -2.0879  -16.5478  -53.9096 C.3       22 UNK         0.1400 
    121 C         -1.6504  -15.2045  -54.5681 C.2       22 UNK         0.5000 
    122 N         -0.9477  -15.2080  -55.6946 N.am      22 UNK        -0.7600 
    123 O         -1.9563  -14.1357  -54.0470 O.2       22 UNK        -0.5000 
    124 C124       -3.6382  -16.6454  -53.8736 C.3       23 UNK        -0.0398 
    125 S125       -4.2927  -18.1844  -53.1384 S.3       23 UNK        -0.2404 
    126 C126       -4.3131  -17.7681  -51.3610 C.3       23 UNK        -0.0205 
    127 H127       -4.6933  -13.3287  -45.4234 H         1 UNK         0.0600 
    128 H128       -4.7595  -13.4094  -47.1873 H         1 UNK         0.0600 
    129 H129       -4.1019  -14.7649  -46.2660 H         1 UNK         0.0600 
    130 H130       -3.1691  -12.1921  -48.1493 H         1 UNK         0.3000 
    131 H131       -1.3158  -11.0893  -48.6160 H         1 UNK         0.0600 
    132 H132        0.8539  -12.2498  -48.3984 H         1 UNK         0.0800 
    133 H133        0.1918  -13.3480  -47.2184 H         1 UNK         0.0800 
    134 H134        0.0735  -15.6540  -47.9870 H         1 UNK         0.0800 
    135 H135       -1.6148  -15.2373  -47.8049 H         1 UNK         0.0800 
    136 H136       -3.2138  -15.8030  -49.8006 H         1 UNK         0.1150 
    137 H137       -2.3230  -19.6187  -51.5416 H         1 UNK         0.1150 
    138 H138        0.6577  -17.5662  -49.2535 H         1 UNK         0.1150 
    139 H139        1.1898  -19.4810  -51.0014 H         1 UNK         0.0800 
    140 H140       -0.1410  -20.5286  -51.4265 H         1 UNK         0.0800 
    141 H141       -1.8778  -21.0922  -49.3451 H         1 UNK         0.0800 
    142 H142       -1.4751  -20.1384  -47.9323 H         1 UNK         0.0800 
    143 H143       -1.0826  -23.1527  -48.2394 H         1 UNK         0.0600 
    144 H144        0.0278  -21.4424  -46.2523 H         1 UNK         0.3000 
    145 H145        0.3961  -23.9763  -43.7376 H         1 UNK         0.0600 
    146 H146        2.7263  -23.1103  -43.8921 H         1 UNK         0.0600 
    147 H147        2.3640  -24.1908  -45.2293 H         1 UNK         0.0600 
    148 H148        2.3966  -22.4542  -45.4950 H         1 UNK         0.0600 
    149 H149        0.9565  -21.1370  -43.9322 H         1 UNK         0.3000 
    150 H150       -2.0804  -20.0675  -42.3975 H         1 UNK         0.0600 
    151 H151        0.7812  -20.1880  -41.3041 H         1 UNK         0.0600 
    152 H152       -0.6478  -20.8186  -40.4921 H         1 UNK         0.0600 
    153 H153       -0.4905  -19.0907  -40.7692 H         1 UNK         0.0600 
    154 H154        0.3129  -18.7037  -43.2124 H         1 UNK         0.3000 
    155 H155       -0.7160  -17.9958  -46.5623 H         1 UNK         0.0600 
    156 H156       -0.6815  -16.2499  -44.0327 H         1 UNK         0.0600 
    157 H157       -1.9683  -16.3244  -45.2293 H         1 UNK         0.0600 
    158 H158       -0.4059  -15.6465  -45.6582 H         1 UNK         0.0600 
    159 H159        1.5012  -17.0162  -45.2022 H         1 UNK         0.3000 
    160 H160        3.6900  -19.6819  -44.9579 H         1 UNK         0.0600 
    161 H161        3.7509  -17.6691  -47.2736 H         1 UNK         0.0600 
    162 H162        3.8459  -19.4181  -47.4469 H         1 UNK         0.0600 
    163 H163        5.1362  -18.5499  -46.6288 H         1 UNK         0.0600 
    164 H164        4.2594  -16.9210  -44.9416 H         1 UNK         0.3000 
    165 H165        2.9757  -16.0134  -41.7726 H         1 UNK         0.0600 
    166 H166        5.3536  -15.4167  -41.3752 H         1 UNK         0.0600 
    167 H167        5.8638  -16.5072  -42.6633 H         1 UNK         0.0600 
    168 H168        5.0962  -17.1479  -41.2190 H         1 UNK         0.0600 
    169 H169        2.9166  -14.2993  -43.0990 H         1 UNK         0.3000 
    170 H170        4.9874  -12.8389  -45.4922 H         1 UNK         0.0600 
    171 H171        3.5837  -14.1296  -47.0965 H         1 UNK         0.0600 
    172 H172        2.1707  -13.9045  -46.0734 H         1 UNK         0.0600 
    173 H173        2.9209  -12.5183  -46.8684 H         1 UNK         0.0600 
    174 H174        2.4481  -12.0638  -44.4283 H         1 UNK         0.3000 
    175 H175        3.3432  -11.1921  -41.2029 H         1 UNK         0.0600 
    176 H176        3.1344   -9.0899  -43.4264 H         1 UNK         0.0600 
    177 H177        2.8447   -8.8151  -41.7089 H         1 UNK         0.0600 
    178 H178        4.4587   -9.2170  -42.2732 H         1 UNK         0.0600 
    179 H179        1.0979  -10.2913  -42.5729 H         1 UNK         0.3000 
    180 H180       -0.8567  -13.1972  -42.8111 H         1 UNK         0.0600 
    181 H181       -1.0261  -10.9987  -40.6854 H         1 UNK         0.0600 
    182 H182       -1.0240  -12.7304  -40.3915 H         1 UNK         0.0600 
    183 H183       -2.3680  -11.9940  -41.2500 H         1 UNK         0.0600 
    184 H184       -1.4124  -11.7385  -44.3082 H         1 UNK         0.3000 
    185 H185       -2.5229   -8.9071  -44.5202 H         1 UNK         0.0600 
    186 H186        0.3342   -8.1639  -45.3384 H         1 UNK         0.0600 
    187 H187       -1.1271   -7.4588  -46.0291 H         1 UNK         0.0600 
    188 H188       -0.7521   -7.2188  -44.3320 H         1 UNK         0.0600 
    189 H189       -2.6069  -10.2696  -46.2486 H         1 UNK         0.3000 
    190 H190       -2.6497  -21.2310  -45.6241 H         1 UNK         0.3000 
    191 H191       -5.3271  -21.8716  -46.2881 H         1 UNK         0.0600 
    192 H192       -5.7968  -21.2019  -43.9212 H         1 UNK         0.0600 
    193 H193       -4.7521  -20.0478  -44.7332 H         1 UNK         0.0600 
    194 H194       -4.0715  -21.1924  -43.5779 H         1 UNK         0.0600 
    195 H195       -2.9510  -23.6217  -44.2342 H         1 UNK         0.3000 
    196 H196       -4.6872  -25.7340  -43.4290 H         1 UNK         0.0600 
    197 H197       -1.6401  -25.7228  -43.7541 H         1 UNK         0.0600 
    198 H198       -2.5241  -25.2356  -42.3102 H         1 UNK         0.0600 
    199 H199       -2.5755  -26.9064  -42.8523 H         1 UNK         0.0600 
    200 H200       -2.8287  -25.2087  -46.3840 H         1 UNK         0.3000 
    201 H201       -3.4625  -27.8128  -47.5663 H         1 UNK         0.0600 
    202 H202       -2.2067  -25.3101  -48.8103 H         1 UNK         0.0600 
    203 H203       -2.1894  -26.9335  -49.4760 H         1 UNK         0.0600 
    204 H204       -1.2999  -26.5870  -48.0054 H         1 UNK         0.0600 
    205 H205       -5.4169  -25.2698  -46.8884 H         1 UNK         0.3000 
    206 H206       -7.3616  -24.4841  -47.5217 H         1 UNK         0.0600 
    207 H207       -7.9863  -26.9108  -47.6515 H         1 UNK         0.0600 
    208 H208       -8.9293  -25.9199  -48.7508 H         1 UNK         0.0600 
    209 H209       -7.6171  -26.9079  -49.3759 H         1 UNK         0.0600 
    210 H210       -4.9783  -23.6451  -48.9778 H         1 UNK         0.3000 
    211 H211       -4.2605  -22.2590  -50.4764 H         1 UNK         0.0600 
    212 H212       -5.7994  -20.6501  -51.5899 H         1 UNK         0.0600 
    213 H213       -6.1527  -20.8100  -49.8752 H         1 UNK         0.0600 
    214 H214       -7.1877  -21.5903  -51.0710 H         1 UNK         0.0600 
    215 H215       -6.8676  -24.1901  -51.9176 H         1 UNK         0.3000 
    216 H216       -6.1845  -23.8931  -54.6234 H         1 UNK         0.0600 
    217 H217       -7.6449  -26.1894  -53.2117 H         1 UNK         0.0600 
    218 H218       -7.6811  -25.8785  -54.9443 H         1 UNK         0.0600 
    219 H219       -8.3813  -24.7126  -53.8322 H         1 UNK         0.0600 
    220 H220       -4.9048  -26.2500  -52.2637 H         1 UNK         0.3000 
    221 H221       -3.4652  -27.7722  -54.3123 H         1 UNK         0.0600 
    222 H222       -4.3678  -28.8700  -52.2573 H         1 UNK         0.0600 
    223 H223       -3.2793  -27.9031  -51.2654 H         1 UNK         0.0600 
    224 H224       -2.6280  -29.0698  -52.4036 H         1 UNK         0.0600 
    225 H225       -2.8583  -24.9193  -52.4055 H         1 UNK         0.3000 
    226 H226        0.0743  -25.0468  -52.6465 H         1 UNK         0.0600 
    227 H227       -1.7266  -22.8019  -51.5885 H         1 UNK         0.0600 
    228 H228       -0.9674  -24.0537  -50.6081 H         1 UNK         0.0600 
    229 H229        0.0271  -22.8980  -51.4735 H         1 UNK         0.0600 
    230 H230       -2.6537  -23.0790  -53.8742 H         1 UNK         0.3000 
    231 H231       -3.0387  -21.8518  -55.6656 H         1 UNK         0.0600 
    232 H232       -1.1909  -23.8471  -57.0779 H         1 UNK         0.0600 
    233 H233       -2.4270  -22.8564  -57.8448 H         1 UNK         0.0600 
    234 H234       -2.8938  -24.1121  -56.7115 H         1 UNK         0.0600 
    235 H235       -1.2056  -20.5823  -54.0952 H         1 UNK         0.3000 
    236 H236        0.5187  -19.0885  -56.0115 H         1 UNK         0.0600 
    237 H237        1.9281  -20.8409  -54.9448 H         1 UNK         0.0600 
    238 H238        2.4029  -19.2405  -54.4030 H         1 UNK         0.0600 
    239 H239        1.4498  -20.2788  -53.3475 H         1 UNK         0.0600 
    240 H240       -2.0444  -18.3423  -55.0494 H         1 UNK         0.3000 
    241 H241       -1.7453  -16.4713  -52.8773 H         1 UNK         0.0600 
    242 H242       -0.6906  -16.0749  -56.1377 H         1 UNK         0.3800 
    243 H243       -0.6698  -14.3318  -56.1086 H         1 UNK         0.3800 
    244 H244       -4.0366  -16.5783  -54.8873 H         1 UNK         0.0800 
    245 H245       -4.0603  -15.7975  -53.3311 H         1 UNK         0.0800 
    246 H246       -4.8424  -16.8249  -51.2184 H         1 UNK         0.0800 
    247 H247       -4.8865  -18.5254  -50.8264 H         1 UNK         0.0800 
@<TRIPOS>BOND
     1    1    2 1    
     2    1  127 1    
     3    1  128 1    
     4    1  129 1    
     5    2    3 2    
     6    2    4 am   BACKBONE|DICT|INTERRES
     7    4    5 1    
     8    4  130 1    
     9    5    6 1    
    10    5   65 1    
    11    5  131 1    
    12    6    7 1    
    13    6  132 1    
    14    6  133 1    
    15    7    8 1    
    16    8    9 1    
    17    8  134 1    
    18    8  135 1    
    19    9   10 ar   
    20    9   14 ar   
    21   10   11 ar   
    22   10  136 1    
    23   11   12 ar   
    24   11  126 1    
    25   12   13 ar   
    26   12  137 1    
    27   13   14 ar   
    28   13   15 1    
    29   14  138 1    
    30   15   16 1    
    31   15  139 1    
    32   15  140 1    
    33   16   17 1    
    34   17   18 1    
    35   17  141 1    
    36   17  142 1    
    37   18   19 1    
    38   18   67 1    
    39   18  143 1    
    40   19   20 am   BACKBONE|DICT|INTERRES
    41   19  144 1    
    42   20   21 2    
    43   20   22 1    
    44   22   23 1    
    45   22   24 1    
    46   22  145 1    
    47   23  146 1    
    48   23  147 1    
    49   23  148 1    
    50   24   25 am   BACKBONE|DICT|INTERRES
    51   24  149 1    
    52   25   26 2    
    53   25   27 1    
    54   27   28 1    
    55   27   29 1    
    56   27  150 1    
    57   28  151 1    
    58   28  152 1    
    59   28  153 1    
    60   29   30 am   BACKBONE|DICT|INTERRES
    61   29  154 1    
    62   30   31 2    
    63   30   32 1    
    64   32   33 1    
    65   32   34 1    
    66   32  155 1    
    67   33  156 1    
    68   33  157 1    
    69   33  158 1    
    70   34   35 am   BACKBONE|DICT|INTERRES
    71   34  159 1    
    72   35   36 2    
    73   35   37 1    
    74   37   38 1    
    75   37   39 1    
    76   37  160 1    
    77   38  161 1    
    78   38  162 1    
    79   38  163 1    
    80   39   40 am   BACKBONE|DICT|INTERRES
    81   39  164 1    
    82   40   41 2    
    83   40   42 1    
    84   42   43 1    
    85   42   44 1    
    86   42  165 1    
    87   43  166 1    
    88   43  167 1    
    89   43  168 1    
    90   44   45 am   BACKBONE|DICT|INTERRES
    91   44  169 1    
    92   45   46 2    
    93   45   47 1    
    94   47   48 1    
    95   47   49 1    
    96   47  170 1    
    97   48  171 1    
    98   48  172 1    
    99   48  173 1    
   100   49   50 am   BACKBONE|DICT|INTERRES
   101   49  174 1    
   102   50   51 2    
   103   50   52 1    
   104   52   53 1    
   105   52   54 1    
   106   52  175 1    
   107   53  176 1    
   108   53  177 1    
   109   53  178 1    
   110   54   55 am   BACKBONE|DICT|INTERRES
   111   54  179 1    
   112   55   56 2    
   113   55   57 1    
   114   57   58 1    
   115   57   59 1    
   116   57  180 1    
   117   58  181 1    
   118   58  182 1    
   119   58  183 1    
   120   59   60 am   BACKBONE|DICT|INTERRES
   121   59  184 1    
   122   60   61 2    
   123   60   62 1    
   124   62   63 1    
   125   62   64 1    
   126   62  185 1    
   127   63  186 1    
   128   63  187 1    
   129   63  188 1    
   130   64   65 am   BACKBONE|DICT|INTERRES
   131   64  189 1    
   132   65   66 2    
   133   67   68 2    
   134   67   69 am   BACKBONE|DICT|INTERRES
   135   69   70 1    
   136   69  190 1    
   137   70   71 1    
   138   70   72 1    
   139   70  191 1    
   140   71  192 1    
   141   71  193 1    
   142   71  194 1    
   143   72   73 2    
   144   72   74 am   BACKBONE|DICT|INTERRES
   145   74   75 1    
   146   74  195 1    
   147   75   76 1    
   148   75   77 1    
   149   75  196 1    
   150   76  197 1    
   151   76  198 1    
   152   76  199 1    
   153   77   78 2    
   154   77   79 am   BACKBONE|DICT|INTERRES
   155   79   80 1    
   156   79  200 1    
   157   80   81 1    
   158   80   82 1    
   159   80  201 1    
   160   81  202 1    
   161   81  203 1    
   162   81  204 1    
   163   82   83 2    
   164   82   84 am   BACKBONE|DICT|INTERRES
   165   84   85 1    
   166   84  205 1    
   167   85   86 1    
   168   85   87 1    
   169   85  206 1    
   170   86  207 1    
   171   86  208 1    
   172   86  209 1    
   173   87   88 2    
   174   87   89 am   BACKBONE|DICT|INTERRES
   175   89   90 1    
   176   89  210 1    
   177   90   91 1    
   178   90   92 1    
   179   90  211 1    
   180   91  212 1    
   181   91  213 1    
   182   91  214 1    
   183   92   93 2    
   184   92   94 am   BACKBONE|DICT|INTERRES
   185   94   95 1    
   186   94  215 1    
   187   95   96 1    
   188   95   97 1    
   189   95  216 1    
   190   96  217 1    
   191   96  218 1    
   192   96  219 1    
   193   97   98 2    
   194   97   99 am   BACKBONE|DICT|INTERRES
   195   99  100 1    
   196   99  220 1    
   197  100  101 1    
   198  100  102 1    
   199  100  221 1    
   200  101  222 1    
   201  101  223 1    
   202  101  224 1    
   203  102  103 2    
   204  102  104 am   BACKBONE|DICT|INTERRES
   205  104  105 1    
   206  104  225 1    
   207  105  106 1    
   208  105  107 1    
   209  105  226 1    
   210  106  227 1    
   211  106  228 1    
   212  106  229 1    
   213  107  108 2    
   214  107  109 am   BACKBONE|DICT|INTERRES
   215  109  110 1    
   216  109  230 1    
   217  110  111 1    
   218  110  112 1    
   219  110  231 1    
   220  111  232 1    
   221  111  233 1    
   222  111  234 1    
   223  112  113 2    
   224  112  114 am   BACKBONE|DICT|INTERRES
   225  114  115 1    
   226  114  235 1    
   227  115  116 1    
   228  115  117 1    
   229  115  236 1    
   230  116  237 1    
   231  116  238 1    
   232  116  239 1    
   233  117  118 2    
   234  117  119 am   BACKBONE|DICT|INTERRES
   235  119  120 1    
   236  119  240 1    
   237  120  121 1    
   238  120  124 1    
   239  120  241 1    
   240  121  122 am   BACKBONE|DICT|INTERRES
   241  121  123 2    
   242  122  242 1    
   243  122  243 1    
   244  124  125 1    
   245  124  244 1    
   246  124  245 1    
   247  125  126 1    
   248  126  246 1    
   249  126  247 1    
@<TRIPOS>SUBSTRUCTURE
     1 UNK         1 GROUP             0       ****    0 ROOT    
