@<TRIPOS>MOLECULE
3R540
247   249    1
SMALL
USER_CHARGES


@<TRIPOS>ATOM
      1 CA          0.4532   -9.1065  -50.4052 C.3       0 UNK        -0.1800 
      2 C           0.1117  -10.4462  -51.0418 C.2       0 UNK         0.5000 
      3 O           0.4652  -10.6838  -52.1968 O.2       0 UNK        -0.5000 
      4 N          -0.5767  -11.3177  -50.2944 N.am      1 UNK        -0.5000 
      5 CA         -0.9576  -12.6762  -50.7028 C.3       1 UNK         0.1400 
      6 C6         -2.0333  -13.2848  -49.7651 C.3       23 UNK        -0.0398 
      7 S7         -1.6236  -13.1657  -47.9863 S.3       23 UNK        -0.2404 
      8 C8         -2.9030  -14.2406  -47.2548 C.3       23 UNK        -0.0205 
      9 C9         -2.7219  -15.7385  -47.5042 C.ar      23 UNK        -0.0193 
     10 C10        -3.8487  -16.5663  -47.4548 C.ar      23 UNK        -0.1150 
     11 C11        -3.7362  -17.9462  -47.6471 C.ar      23 UNK        -0.0193 
     12 C12        -2.4770  -18.4965  -47.8960 C.ar      23 UNK        -0.1150 
     13 C13        -1.3392  -17.6892  -47.9497 C.ar      23 UNK        -0.0193 
     14 C14        -1.4666  -16.3135  -47.7474 C.ar      23 UNK        -0.1150 
     15 C15         0.0144  -18.2975  -48.2862 C.3       23 UNK        -0.0205 
     16 S16         1.1940  -18.2948  -46.9015 S.3       23 UNK        -0.2404 
     17 C17         0.4100  -19.3987  -45.6836 C.3       23 UNK        -0.0398 
     18 CA          0.5078  -20.9070  -46.0509 C.3       11 UNK         0.1400 
     19 N           0.9408  -21.7285  -44.9173 N.am      11 UNK        -0.5000 
     20 C           1.2155  -23.0408  -44.9746 C.2       10 UNK         0.5000 
     21 O           1.1789  -23.7079  -46.0087 O.2       10 UNK        -0.5000 
     22 CA          1.5274  -23.7323  -43.6348 C.3       10 UNK         0.1400 
     23 CB          3.0248  -23.6304  -43.3106 C.3       10 UNK        -0.1800 
     24 N           0.7546  -23.1886  -42.5159 N.am      10 UNK        -0.5000 
     25 C          -0.5807  -23.1845  -42.4174 C.2       9 UNK         0.5000 
     26 O          -1.3256  -23.6499  -43.2795 O.2       9 UNK        -0.5000 
     27 CA         -1.1928  -22.5006  -41.1826 C.3       9 UNK         0.1400 
     28 CB         -1.1482  -23.4197  -39.9478 C.3       9 UNK        -0.1800 
     29 N          -0.6339  -21.1719  -40.8993 N.am      9 UNK        -0.5000 
     30 C           0.5918  -20.8349  -40.4645 C.2       8 UNK         0.5000 
     31 O           1.4851  -21.6542  -40.2458 O.2       8 UNK        -0.5000 
     32 CA          0.8956  -19.3331  -40.2737 C.3       8 UNK         0.1400 
     33 CB          1.9352  -18.8625  -41.3041 C.3       8 UNK        -0.1800 
     34 N          -0.2941  -18.4842  -40.3750 N.am      8 UNK        -0.5000 
     35 C          -1.2299  -18.3704  -39.4196 C.2       7 UNK         0.5000 
     36 O          -1.1336  -18.8999  -38.3120 O.2       7 UNK        -0.5000 
     37 CA         -2.5008  -17.5593  -39.7530 C.3       7 UNK         0.1400 
     38 CB         -2.4247  -16.1619  -39.1189 C.3       7 UNK        -0.1800 
     39 N          -2.7679  -17.4091  -41.1855 N.am      7 UNK        -0.5000 
     40 C          -2.9816  -18.4025  -42.0604 C.2       6 UNK         0.5000 
     41 O          -3.0145  -19.5935  -41.7512 O.2       6 UNK        -0.5000 
     42 CA         -3.1240  -17.9982  -43.5417 C.3       6 UNK         0.1400 
     43 CB         -4.6087  -17.8007  -43.8817 C.3       6 UNK        -0.1800 
     44 N          -2.3813  -16.7883  -43.9214 N.am      6 UNK        -0.5000 
     45 C          -1.0720  -16.5733  -43.7268 C.2       5 UNK         0.5000 
     46 O          -0.3270  -17.3713  -43.1516 O.2       5 UNK        -0.5000 
     47 CA         -0.5237  -15.2230  -44.2100 C.3       5 UNK         0.1400 
     48 CB         -1.0644  -14.0730  -43.3439 C.3       5 UNK        -0.1800 
     49 N           0.9343  -15.2281  -44.1241 N.am      5 UNK        -0.5000 
     50 C           1.7639  -14.9813  -45.1408 C.2       4 UNK         0.5000 
     51 O           1.3862  -14.6526  -46.2675 O.2       4 UNK        -0.5000 
     52 CA          3.2683  -15.1188  -44.8433 C.3       4 UNK         0.1400 
     53 CB          3.6391  -16.5451  -44.3971 C.3       4 UNK        -0.1800 
     54 N           4.0159  -14.7939  -46.0532 N.am      4 UNK        -0.5000 
     55 C           5.0155  -13.9128  -46.1620 C.2       3 UNK         0.5000 
     56 O           5.5295  -13.3379  -45.2014 O.2       3 UNK        -0.5000 
     57 CA          5.5309  -13.6183  -47.5889 C.3       3 UNK         0.1400 
     58 CB          6.8912  -14.2955  -47.8194 C.3       3 UNK        -0.1800 
     59 N           4.6054  -14.0486  -48.6439 N.am      3 UNK        -0.5000 
     60 C           3.4437  -13.4465  -48.9322 C.2       2 UNK         0.5000 
     61 O           3.0744  -12.3931  -48.4038 O.2       2 UNK        -0.5000 
     62 CA          2.5431  -14.1462  -49.9668 C.3       2 UNK         0.1400 
     63 CB          2.3249  -15.6364  -49.6235 C.3       2 UNK        -0.1800 
     64 N           1.2717  -13.4323  -50.0100 N.am      2 UNK        -0.5000 
     65 C           0.2601  -13.6135  -50.8658 C.2       1 UNK         0.5000 
     66 O           0.2645  -14.4487  -51.7711 O.2       1 UNK        -0.5000 
     67 C          -0.8270  -21.4196  -46.6255 C.2       11 UNK         0.5000 
     68 O          -0.9339  -21.6264  -47.8343 O.2       11 UNK        -0.5000 
     69 N          -1.8080  -21.6338  -45.7365 N.am      12 UNK        -0.5000 
     70 CA         -3.1476  -22.1136  -46.0718 C.3       12 UNK         0.1400 
     71 CB         -4.0842  -21.8915  -44.8753 C.3       12 UNK        -0.1800 
     72 C          -3.1585  -23.5858  -46.5140 C.2       12 UNK         0.5000 
     73 O          -3.9265  -23.9353  -47.4089 O.2       12 UNK        -0.5000 
     74 N          -2.2855  -24.4087  -45.9151 N.am      13 UNK        -0.5000 
     75 CA         -2.0715  -25.8096  -46.2844 C.3       13 UNK         0.1400 
     76 CB         -1.1610  -26.4826  -45.2467 C.3       13 UNK        -0.1800 
     77 C          -1.4930  -25.9637  -47.7039 C.2       13 UNK         0.5000 
     78 O          -1.9374  -26.8369  -48.4497 O.2       13 UNK        -0.5000 
     79 N          -0.5419  -25.0898  -48.0637 N.am      14 UNK        -0.5000 
     80 CA          0.0068  -24.9758  -49.4173 C.3       14 UNK         0.1400 
     81 CB          1.3541  -24.2405  -49.3439 C.3       14 UNK        -0.1800 
     82 C          -0.9387  -24.2414  -50.3887 C.2       14 UNK         0.5000 
     83 O          -0.7547  -24.3381  -51.6023 O.2       14 UNK        -0.5000 
     84 N          -1.8933  -23.4775  -49.8405 N.am      15 UNK        -0.5000 
     85 CA         -2.8444  -22.5913  -50.5162 C.3       15 UNK         0.1400 
     86 CB         -3.8714  -23.4157  -51.3142 C.3       15 UNK        -0.1800 
     87 C          -2.1506  -21.4926  -51.3501 C.2       15 UNK         0.5000 
     88 O          -2.6272  -21.1390  -52.4310 O.2       15 UNK        -0.5000 
     89 N          -1.0037  -21.0126  -50.8424 N.am      16 UNK        -0.5000 
     90 CA         -0.0397  -20.1245  -51.5072 C.3       16 UNK         0.1400 
     91 CB         -0.6461  -18.7247  -51.7360 C.3       16 UNK        -0.1800 
     92 C           0.5225  -20.7429  -52.8063 C.2       16 UNK         0.5000 
     93 O           0.6012  -20.0646  -53.8297 O.2       16 UNK        -0.5000 
     94 N           0.8536  -22.0422  -52.7514 N.am      17 UNK        -0.5000 
     95 CA          1.2213  -22.9049  -53.8831 C.3       17 UNK         0.1400 
     96 CB          2.5614  -22.4678  -54.5109 C.3       17 UNK        -0.1800 
     97 C           0.0687  -23.0165  -54.9050 C.2       17 UNK         0.5000 
     98 O           0.2839  -22.8970  -56.1120 O.2       17 UNK        -0.5000 
     99 N          -1.1462  -23.2028  -54.3692 N.am      18 UNK        -0.5000 
    100 CA        -2.4492  -23.2606  -55.0422 C.3       18 UNK         0.1400 
    101 CB        -2.5088  -24.4522  -56.0196 C.3       18 UNK        -0.1800 
    102 C         -2.9144  -21.9431  -55.7038 C.2       18 UNK         0.5000 
    103 O         -3.9599  -21.9460  -56.3556 O.2       18 UNK        -0.5000 
    104 N         -2.1726  -20.8400  -55.5290 N.am      19 UNK        -0.5000 
    105 CA        -2.4838  -19.5426  -56.1302 C.3       19 UNK         0.1400 
    106 CB        -1.2124  -18.6830  -56.1853 C.3       19 UNK        -0.1800 
    107 C         -3.6060  -18.7854  -55.3981 C.2       19 UNK         0.5000 
    108 O         -4.3558  -18.0561  -56.0489 O.2       19 UNK        -0.5000 
    109 N         -3.7002  -18.9518  -54.0715 N.am      20 UNK        -0.5000 
    110 CA        -4.6882  -18.2672  -53.2328 C.3       20 UNK         0.1400 
    111 CB        -4.0554  -17.9164  -51.8769 C.3       20 UNK        -0.1800 
    112 C         -5.9650  -19.0992  -53.0315 C.2       20 UNK         0.5000 
    113 O         -7.0022  -18.5271  -52.6931 O.2       20 UNK        -0.5000 
    114 N         -5.8682  -20.4241  -53.2226 N.am      21 UNK        -0.5000 
    115 CA        -6.8961  -21.4629  -53.0492 C.3       21 UNK         0.1400 
    116 CB        -8.1144  -21.2208  -53.9604 C.3       21 UNK        -0.1800 
    117 C         -7.3206  -21.6896  -51.5823 C.2       21 UNK         0.5000 
    118 O         -7.3569  -22.8384  -51.1403 O.2       21 UNK        -0.5000 
    119 N         -7.5815  -20.5986  -50.8536 N.am      22 UNK        -0.5000 
    120 CA        -7.8629  -20.5348  -49.4103 C.3       22 UNK         0.1400 
    121 C         -9.1761  -21.2700  -48.9917 C.2       22 UNK         0.5000 
    122 N         -9.3714  -21.5753  -47.7148 N.am      22 UNK        -0.7600 
    123 O        -10.0624  -21.5196  -49.8067 O.2       22 UNK        -0.5000 
    124 C124       -6.6191  -20.9176  -48.5533 C.3       23 UNK        -0.0398 
    125 S125       -5.1394  -19.9403  -48.9946 S.3       23 UNK        -0.2404 
    126 C126       -4.9666  -18.8422  -47.5532 C.3       23 UNK        -0.0205 
    127 H127        1.5345   -8.9743  -50.3680 H         1 UNK         0.0600 
    128 H128        0.0284   -8.2922  -50.9923 H         1 UNK         0.0600 
    129 H129        0.0666   -9.0303  -49.3885 H         1 UNK         0.0600 
    130 H130       -0.8362  -11.0684  -49.3499 H         1 UNK         0.3000 
    131 H131       -1.4107  -12.5939  -51.6932 H         1 UNK         0.0600 
    132 H132       -2.2270  -14.3274  -50.0256 H         1 UNK         0.0800 
    133 H133       -2.9787  -12.7633  -49.9200 H         1 UNK         0.0800 
    134 H134       -3.8759  -13.9161  -47.6274 H         1 UNK         0.0800 
    135 H135       -2.9169  -14.0710  -46.1781 H         1 UNK         0.0800 
    136 H136       -4.8191  -16.1338  -47.2552 H         1 UNK         0.1150 
    137 H137       -2.3937  -19.5572  -48.0712 H         1 UNK         0.1150 
    138 H138       -0.5791  -15.6981  -47.7845 H         1 UNK         0.1150 
    139 H139       -0.0999  -19.3152  -48.6531 H         1 UNK         0.0800 
    140 H140        0.4506  -17.7360  -49.1107 H         1 UNK         0.0800 
    141 H141        0.9307  -19.2061  -44.7451 H         1 UNK         0.0800 
    142 H142       -0.6143  -19.0667  -45.5061 H         1 UNK         0.0800 
    143 H143        1.2646  -21.0376  -46.8277 H         1 UNK         0.0600 
    144 H144        0.9977  -21.2749  -44.0183 H         1 UNK         0.3000 
    145 H145        1.2690  -24.7878  -43.7359 H         1 UNK         0.0600 
    146 H146        3.2704  -24.1875  -42.4063 H         1 UNK         0.0600 
    147 H147        3.6291  -24.0425  -44.1199 H         1 UNK         0.0600 
    148 H148        3.3352  -22.5955  -43.1609 H         1 UNK         0.0600 
    149 H149        1.2756  -22.7699  -41.7495 H         1 UNK         0.3000 
    150 H150       -2.2446  -22.3269  -41.4160 H         1 UNK         0.0600 
    151 H151       -1.6728  -24.3556  -40.1436 H         1 UNK         0.0600 
    152 H152       -1.6306  -22.9497  -39.0907 H         1 UNK         0.0600 
    153 H153       -0.1280  -23.6750  -39.6604 H         1 UNK         0.0600 
    154 H154       -1.2859  -20.4143  -41.0752 H         1 UNK         0.3000 
    155 H155        1.3266  -19.2108  -39.2779 H         1 UNK         0.0600 
    156 H156        2.8737  -19.4064  -41.1898 H         1 UNK         0.0600 
    157 H157        2.1588  -17.8024  -41.1846 H         1 UNK         0.0600 
    158 H158        1.5905  -19.0197  -42.3261 H         1 UNK         0.0600 
    159 H159       -0.4378  -18.0220  -41.2680 H         1 UNK         0.3000 
    160 H160       -3.3475  -18.0910  -39.3144 H         1 UNK         0.0600 
    161 H161       -1.6105  -15.5726  -39.5429 H         1 UNK         0.0600 
    162 H162       -3.3528  -15.6094  -39.2668 H         1 UNK         0.0600 
    163 H163       -2.2565  -16.2282  -38.0431 H         1 UNK         0.0600 
    164 H164       -2.7492  -16.4664  -41.5447 H         1 UNK         0.3000 
    165 H165       -2.7361  -18.8198  -44.1465 H         1 UNK         0.0600 
    166 H166       -5.1835  -18.7032  -43.6694 H         1 UNK         0.0600 
    167 H167       -5.0483  -16.9885  -43.3013 H         1 UNK         0.0600 
    168 H168       -4.7505  -17.5680  -44.9349 H         1 UNK         0.0600 
    169 H169       -2.9192  -16.0784  -44.3958 H         1 UNK         0.3000 
    170 H170       -0.8506  -15.0794  -45.2401 H         1 UNK         0.0600 
    171 H171       -2.1511  -14.0059  -43.4036 H         1 UNK         0.0600 
    172 H172       -0.6658  -13.1143  -43.6764 H         1 UNK         0.0600 
    173 H173       -0.7980  -14.1992  -42.2936 H         1 UNK         0.0600 
    174 H174        1.3087  -15.5814  -43.2548 H         1 UNK         0.3000 
    175 H175        3.5101  -14.4163  -44.0433 H         1 UNK         0.0600 
    176 H176        3.3984  -17.2819  -45.1634 H         1 UNK         0.0600 
    177 H177        4.7059  -16.6229  -44.1869 H         1 UNK         0.0600 
    178 H178        3.1109  -16.8320  -43.4876 H         1 UNK         0.0600 
    179 H179        3.5968  -15.1392  -46.9050 H         1 UNK         0.3000 
    180 H180        5.6692  -12.5380  -47.6700 H         1 UNK         0.0600 
    181 H181        7.6197  -13.9737  -47.0739 H         1 UNK         0.0600 
    182 H182        6.8157  -15.3818  -47.7564 H         1 UNK         0.0600 
    183 H183        7.2979  -14.0420  -48.7986 H         1 UNK         0.0600 
    184 H184        4.8503  -14.8983  -49.1315 H         1 UNK         0.3000 
    185 H185        3.0235  -14.0615  -50.9431 H         1 UNK         0.0600 
    186 H186        3.2647  -16.1866  -49.5794 H         1 UNK         0.0600 
    187 H187        1.8293  -15.7515  -48.6599 H         1 UNK         0.0600 
    188 H188        1.7128  -16.1348  -50.3741 H         1 UNK         0.0600 
    189 H189        1.2006  -12.7028  -49.3102 H         1 UNK         0.3000 
    190 H190       -1.6110  -21.5107  -44.7548 H         1 UNK         0.3000 
    191 H191       -3.5184  -21.5196  -46.9090 H         1 UNK         0.0600 
    192 H192       -5.0995  -22.2131  -45.1107 H         1 UNK         0.0600 
    193 H193       -4.1338  -20.8384  -44.6017 H         1 UNK         0.0600 
    194 H194       -3.7576  -22.4499  -43.9972 H         1 UNK         0.0600 
    195 H195       -1.7472  -24.0563  -45.1288 H         1 UNK         0.3000 
    196 H196       -3.0410  -26.3116  -46.2621 H         1 UNK         0.0600 
    197 H197       -1.0379  -27.5437  -45.4668 H         1 UNK         0.0600 
    198 H198       -1.5793  -26.4040  -44.2430 H         1 UNK         0.0600 
    199 H199       -0.1679  -26.0343  -45.2322 H         1 UNK         0.0600 
    200 H200       -0.1785  -24.4433  -47.3704 H         1 UNK         0.3000 
    201 H201        0.1817  -25.9771  -49.8159 H         1 UNK         0.0600 
    202 H202        2.0541  -24.7671  -48.6949 H         1 UNK         0.0600 
    203 H203        1.2388  -23.2275  -48.9552 H         1 UNK         0.0600 
    204 H204        1.8175  -24.1670  -50.3285 H         1 UNK         0.0600 
    205 H205       -1.9106  -23.4264  -48.8309 H         1 UNK         0.3000 
    206 H206       -3.3822  -22.0709  -49.7254 H         1 UNK         0.0600 
    207 H207       -4.4588  -24.0487  -50.6489 H         1 UNK         0.0600 
    208 H208       -4.5702  -22.7701  -51.8419 H         1 UNK         0.0600 
    209 H209       -3.3959  -24.0614  -52.0507 H         1 UNK         0.0600 
    210 H210       -0.7425  -21.3444  -49.9197 H         1 UNK         0.3000 
    211 H211        0.8040  -20.0167  -50.8246 H         1 UNK         0.0600 
    212 H212       -1.3514  -18.7239  -52.5654 H         1 UNK         0.0600 
    213 H213        0.1314  -17.9983  -51.9746 H         1 UNK         0.0600 
    214 H214       -1.1741  -18.3628  -50.8552 H         1 UNK         0.0600 
    215 H215        0.6919  -22.5305  -51.8822 H         1 UNK         0.3000 
    216 H216        1.3635  -23.9061  -53.4736 H         1 UNK         0.0600 
    217 H217        3.3460  -22.4010  -53.7574 H         1 UNK         0.0600 
    218 H218        2.4861  -21.4984  -55.0041 H         1 UNK         0.0600 
    219 H219        2.8916  -23.1879  -55.2603 H         1 UNK         0.0600 
    220 H220       -1.1824  -23.3164  -53.3617 H         1 UNK         0.3000 
    221 H221       -3.1771  -23.4547  -54.2556 H         1 UNK         0.0600 
    222 H222       -1.8594  -24.3028  -56.8824 H         1 UNK         0.0600 
    223 H223       -2.2103  -25.3791  -55.5298 H         1 UNK         0.0600 
    224 H224       -3.5212  -24.5995  -56.3975 H         1 UNK         0.0600 
    225 H225       -1.3364  -20.8946  -54.9625 H         1 UNK         0.3000 
    226 H226       -2.8123  -19.7118  -57.1581 H         1 UNK         0.0600 
    227 H227       -0.3926  -19.2150  -56.6685 H         1 UNK         0.0600 
    228 H228       -1.3875  -17.7681  -56.7524 H         1 UNK         0.0600 
    229 H229       -0.8822  -18.3879  -55.1890 H         1 UNK         0.0600 
    230 H230       -3.0846  -19.6127  -53.6059 H         1 UNK         0.3000 
    231 H231       -4.9881  -17.3287  -53.7036 H         1 UNK         0.0600 
    232 H232       -3.6745  -18.8011  -51.3675 H         1 UNK         0.0600 
    233 H233       -3.2304  -17.2148  -51.9977 H         1 UNK         0.0600 
    234 H234       -4.7809  -17.4463  -51.2115 H         1 UNK         0.0600 
    235 H235       -4.9494  -20.7709  -53.4610 H         1 UNK         0.3000 
    236 H236       -6.4284  -22.3895  -53.3855 H         1 UNK         0.0600 
    237 H237       -7.8115  -21.1122  -55.0018 H         1 UNK         0.0600 
    238 H238       -8.8077  -22.0611  -53.9086 H         1 UNK         0.0600 
    239 H239       -8.6697  -20.3268  -53.6764 H         1 UNK         0.0600 
    240 H240       -7.5267  -19.7056  -51.3349 H         1 UNK         0.3000 
    241 H241       -8.0729  -19.4826  -49.2169 H         1 UNK         0.0600 
    242 H242      -10.2330  -22.0298  -47.4537 H         1 UNK         0.3800 
    243 H243       -8.6949  -21.3603  -47.0004 H         1 UNK         0.3800 
    244 H244       -6.3790  -21.9744  -48.6816 H         1 UNK         0.0800 
    245 H245       -6.8178  -20.7801  -47.4904 H         1 UNK         0.0800 
    246 H246       -4.8919  -19.4428  -46.6466 H         1 UNK         0.0800 
    247 H247       -5.8734  -18.2428  -47.4597 H         1 UNK         0.0800 
@<TRIPOS>BOND
     1    1    2 1    
     2    1  127 1    
     3    1  128 1    
     4    1  129 1    
     5    2    3 2    
     6    2    4 am   BACKBONE|DICT|INTERRES
     7    4    5 1    
     8    4  130 1    
     9    5    6 1    
    10    5   65 1    
    11    5  131 1    
    12    6    7 1    
    13    6  132 1    
    14    6  133 1    
    15    7    8 1    
    16    8    9 1    
    17    8  134 1    
    18    8  135 1    
    19    9   10 ar   
    20    9   14 ar   
    21   10   11 ar   
    22   10  136 1    
    23   11   12 ar   
    24   11  126 1    
    25   12   13 ar   
    26   12  137 1    
    27   13   14 ar   
    28   13   15 1    
    29   14  138 1    
    30   15   16 1    
    31   15  139 1    
    32   15  140 1    
    33   16   17 1    
    34   17   18 1    
    35   17  141 1    
    36   17  142 1    
    37   18   19 1    
    38   18   67 1    
    39   18  143 1    
    40   19   20 am   BACKBONE|DICT|INTERRES
    41   19  144 1    
    42   20   21 2    
    43   20   22 1    
    44   22   23 1    
    45   22   24 1    
    46   22  145 1    
    47   23  146 1    
    48   23  147 1    
    49   23  148 1    
    50   24   25 am   BACKBONE|DICT|INTERRES
    51   24  149 1    
    52   25   26 2    
    53   25   27 1    
    54   27   28 1    
    55   27   29 1    
    56   27  150 1    
    57   28  151 1    
    58   28  152 1    
    59   28  153 1    
    60   29   30 am   BACKBONE|DICT|INTERRES
    61   29  154 1    
    62   30   31 2    
    63   30   32 1    
    64   32   33 1    
    65   32   34 1    
    66   32  155 1    
    67   33  156 1    
    68   33  157 1    
    69   33  158 1    
    70   34   35 am   BACKBONE|DICT|INTERRES
    71   34  159 1    
    72   35   36 2    
    73   35   37 1    
    74   37   38 1    
    75   37   39 1    
    76   37  160 1    
    77   38  161 1    
    78   38  162 1    
    79   38  163 1    
    80   39   40 am   BACKBONE|DICT|INTERRES
    81   39  164 1    
    82   40   41 2    
    83   40   42 1    
    84   42   43 1    
    85   42   44 1    
    86   42  165 1    
    87   43  166 1    
    88   43  167 1    
    89   43  168 1    
    90   44   45 am   BACKBONE|DICT|INTERRES
    91   44  169 1    
    92   45   46 2    
    93   45   47 1    
    94   47   48 1    
    95   47   49 1    
    96   47  170 1    
    97   48  171 1    
    98   48  172 1    
    99   48  173 1    
   100   49   50 am   BACKBONE|DICT|INTERRES
   101   49  174 1    
   102   50   51 2    
   103   50   52 1    
   104   52   53 1    
   105   52   54 1    
   106   52  175 1    
   107   53  176 1    
   108   53  177 1    
   109   53  178 1    
   110   54   55 am   BACKBONE|DICT|INTERRES
   111   54  179 1    
   112   55   56 2    
   113   55   57 1    
   114   57   58 1    
   115   57   59 1    
   116   57  180 1    
   117   58  181 1    
   118   58  182 1    
   119   58  183 1    
   120   59   60 am   BACKBONE|DICT|INTERRES
   121   59  184 1    
   122   60   61 2    
   123   60   62 1    
   124   62   63 1    
   125   62   64 1    
   126   62  185 1    
   127   63  186 1    
   128   63  187 1    
   129   63  188 1    
   130   64   65 am   BACKBONE|DICT|INTERRES
   131   64  189 1    
   132   65   66 2    
   133   67   68 2    
   134   67   69 am   BACKBONE|DICT|INTERRES
   135   69   70 1    
   136   69  190 1    
   137   70   71 1    
   138   70   72 1    
   139   70  191 1    
   140   71  192 1    
   141   71  193 1    
   142   71  194 1    
   143   72   73 2    
   144   72   74 am   BACKBONE|DICT|INTERRES
   145   74   75 1    
   146   74  195 1    
   147   75   76 1    
   148   75   77 1    
   149   75  196 1    
   150   76  197 1    
   151   76  198 1    
   152   76  199 1    
   153   77   78 2    
   154   77   79 am   BACKBONE|DICT|INTERRES
   155   79   80 1    
   156   79  200 1    
   157   80   81 1    
   158   80   82 1    
   159   80  201 1    
   160   81  202 1    
   161   81  203 1    
   162   81  204 1    
   163   82   83 2    
   164   82   84 am   BACKBONE|DICT|INTERRES
   165   84   85 1    
   166   84  205 1    
   167   85   86 1    
   168   85   87 1    
   169   85  206 1    
   170   86  207 1    
   171   86  208 1    
   172   86  209 1    
   173   87   88 2    
   174   87   89 am   BACKBONE|DICT|INTERRES
   175   89   90 1    
   176   89  210 1    
   177   90   91 1    
   178   90   92 1    
   179   90  211 1    
   180   91  212 1    
   181   91  213 1    
   182   91  214 1    
   183   92   93 2    
   184   92   94 am   BACKBONE|DICT|INTERRES
   185   94   95 1    
   186   94  215 1    
   187   95   96 1    
   188   95   97 1    
   189   95  216 1    
   190   96  217 1    
   191   96  218 1    
   192   96  219 1    
   193   97   98 2    
   194   97   99 am   BACKBONE|DICT|INTERRES
   195   99  100 1    
   196   99  220 1    
   197  100  101 1    
   198  100  102 1    
   199  100  221 1    
   200  101  222 1    
   201  101  223 1    
   202  101  224 1    
   203  102  103 2    
   204  102  104 am   BACKBONE|DICT|INTERRES
   205  104  105 1    
   206  104  225 1    
   207  105  106 1    
   208  105  107 1    
   209  105  226 1    
   210  106  227 1    
   211  106  228 1    
   212  106  229 1    
   213  107  108 2    
   214  107  109 am   BACKBONE|DICT|INTERRES
   215  109  110 1    
   216  109  230 1    
   217  110  111 1    
   218  110  112 1    
   219  110  231 1    
   220  111  232 1    
   221  111  233 1    
   222  111  234 1    
   223  112  113 2    
   224  112  114 am   BACKBONE|DICT|INTERRES
   225  114  115 1    
   226  114  235 1    
   227  115  116 1    
   228  115  117 1    
   229  115  236 1    
   230  116  237 1    
   231  116  238 1    
   232  116  239 1    
   233  117  118 2    
   234  117  119 am   BACKBONE|DICT|INTERRES
   235  119  120 1    
   236  119  240 1    
   237  120  121 1    
   238  120  124 1    
   239  120  241 1    
   240  121  122 am   BACKBONE|DICT|INTERRES
   241  121  123 2    
   242  122  242 1    
   243  122  243 1    
   244  124  125 1    
   245  124  244 1    
   246  124  245 1    
   247  125  126 1    
   248  126  246 1    
   249  126  247 1    
@<TRIPOS>SUBSTRUCTURE
     1 UNK         1 GROUP             0       ****    0 ROOT    
