@<TRIPOS>MOLECULE
3R540
247   249    1
SMALL
USER_CHARGES


@<TRIPOS>ATOM
      1 CA         -2.1712   -7.1550  -48.2014 C.3       0 UNK        -0.1800 
      2 C          -1.1737   -8.2810  -48.4358 C.2       0 UNK         0.5000 
      3 O          -0.0581   -8.0262  -48.8912 O.2       0 UNK        -0.5000 
      4 N          -1.5739   -9.5223  -48.1360 N.am      1 UNK        -0.5000 
      5 CA         -0.7443  -10.7273  -48.2473 C.3       1 UNK         0.1400 
      6 C6         -1.5880  -12.0204  -48.1384 C.3       23 UNK        -0.0398 
      7 S7         -2.8331  -12.1375  -49.4645 S.3       23 UNK        -0.2404 
      8 C8         -3.8951  -13.4840  -48.8368 C.3       23 UNK        -0.0205 
      9 C9         -3.2750  -14.8810  -48.8855 C.ar      23 UNK        -0.0193 
     10 C10        -2.3218  -15.2393  -49.8477 C.ar      23 UNK        -0.1150 
     11 C11        -1.8117  -16.5390  -49.9006 C.ar      23 UNK        -0.0193 
     12 C12        -2.2636  -17.4937  -48.9868 C.ar      23 UNK        -0.1150 
     13 C13        -3.2327  -17.1591  -48.0370 C.ar      23 UNK        -0.0193 
     14 C14        -3.7245  -15.8519  -47.9841 C.ar      23 UNK        -0.1150 
     15 C15        -3.7852  -18.2262  -47.1081 C.3       23 UNK        -0.0205 
     16 S16        -2.8856  -18.2830  -45.5370 S.3       23 UNK        -0.2404 
     17 C17        -3.4806  -19.8514  -44.8163 C.3       23 UNK        -0.0398 
     18 CA         -3.1086  -21.1230  -45.6276 C.3       11 UNK         0.1400 
     19 N          -1.7008  -21.1580  -46.0174 N.am      11 UNK        -0.5000 
     20 C          -1.2487  -21.6704  -47.1673 C.2       10 UNK         0.5000 
     21 O          -1.9759  -22.1493  -48.0351 O.2       10 UNK        -0.5000 
     22 CA          0.2789  -21.6867  -47.3627 C.3       10 UNK         0.1400 
     23 CB          0.7579  -20.3360  -47.9138 C.3       10 UNK        -0.1800 
     24 N           1.0034  -22.0121  -46.1323 N.am      10 UNK        -0.5000 
     25 C           0.8339  -23.1354  -45.4169 C.2       9 UNK         0.5000 
     26 O           0.0914  -24.0585  -45.7558 O.2       9 UNK        -0.5000 
     27 CA          1.5641  -23.2235  -44.0627 C.3       9 UNK         0.1400 
     28 CB          2.8901  -23.9805  -44.2211 C.3       9 UNK        -0.1800 
     29 N           1.8194  -21.9287  -43.4194 N.am      9 UNK        -0.5000 
     30 C           0.8921  -21.0104  -43.1111 C.2       8 UNK         0.5000 
     31 O          -0.3086  -21.1497  -43.3664 O.2       8 UNK        -0.5000 
     32 CA          1.3989  -19.7251  -42.4289 C.3       8 UNK         0.1400 
     33 CB          2.6272  -19.1356  -43.1473 C.3       8 UNK        -0.1800 
     34 N           0.3357  -18.7251  -42.4242 N.am      8 UNK        -0.5000 
     35 C          -0.4860  -18.4732  -41.3976 C.2       7 UNK         0.5000 
     36 O          -0.3599  -18.9902  -40.2859 O.2       7 UNK        -0.5000 
     37 CA         -1.6691  -17.5133  -41.6570 C.3       7 UNK         0.1400 
     38 CB         -1.9809  -16.6103  -40.4450 C.3       7 UNK        -0.1800 
     39 N          -1.5435  -16.7274  -42.8900 N.am      7 UNK        -0.5000 
     40 C          -0.6481  -15.7696  -43.1655 C.2       6 UNK         0.5000 
     41 O           0.1978  -15.3504  -42.3738 O.2       6 UNK        -0.5000 
     42 CA         -0.7014  -15.2055  -44.5955 C.3       6 UNK         0.1400 
     43 CB         -0.8642  -13.6781  -44.5849 C.3       6 UNK        -0.1800 
     44 N           0.4834  -15.5598  -45.3745 N.am      6 UNK        -0.5000 
     45 C           0.8819  -16.8054  -45.6709 C.2       5 UNK         0.5000 
     46 O           0.3391  -17.8229  -45.2423 O.2       5 UNK        -0.5000 
     47 CA          2.0971  -16.9413  -46.5985 C.3       5 UNK         0.1400 
     48 CB          1.7387  -16.5093  -48.0297 C.3       5 UNK        -0.1800 
     49 N           3.2092  -16.1341  -46.1067 N.am      5 UNK        -0.5000 
     50 C           4.3712  -16.6223  -45.6502 C.2       4 UNK         0.5000 
     51 O           4.6685  -17.8171  -45.6673 O.2       4 UNK        -0.5000 
     52 CA          5.3812  -15.6092  -45.0706 C.3       4 UNK         0.1400 
     53 CB          6.4368  -15.2411  -46.1245 C.3       4 UNK        -0.1800 
     54 N           4.7492  -14.3812  -44.5879 N.am      4 UNK        -0.5000 
     55 C           3.9226  -14.3051  -43.5359 C.2       3 UNK         0.5000 
     56 O           3.7221  -15.2418  -42.7632 O.2       3 UNK        -0.5000 
     57 CA          3.1793  -12.9695  -43.3217 C.3       3 UNK         0.1400 
     58 CB          3.7529  -12.2243  -42.1064 C.3       3 UNK        -0.1800 
     59 N           3.1894  -12.0619  -44.4780 N.am      3 UNK        -0.5000 
     60 C           2.6459  -12.3086  -45.6776 C.2       2 UNK         0.5000 
     61 O           2.1284  -13.3832  -45.9910 O.2       2 UNK        -0.5000 
     62 CA          2.7664  -11.1912  -46.7268 C.3       2 UNK         0.1400 
     63 CB          4.0081  -11.4231  -47.6016 C.3       2 UNK        -0.1800 
     64 N           1.5858  -11.1227  -47.5877 N.am      2 UNK        -0.5000 
     65 C           0.3754  -10.7151  -47.1855 C.2       1 UNK         0.5000 
     66 O           0.1241  -10.3421  -46.0363 O.2       1 UNK        -0.5000 
     67 C          -3.4687  -22.3888  -44.8316 C.2       11 UNK         0.5000 
     68 O          -4.4877  -23.0185  -45.1158 O.2       11 UNK        -0.5000 
     69 N          -2.6360  -22.7191  -43.8349 N.am      12 UNK        -0.5000 
     70 CA         -2.9297  -23.7167  -42.8077 C.3       12 UNK         0.1400 
     71 CB         -1.9694  -23.5128  -41.6256 C.3       12 UNK        -0.1800 
     72 C          -2.8824  -25.1753  -43.2932 C.2       12 UNK         0.5000 
     73 O          -3.6381  -25.9955  -42.7697 O.2       12 UNK        -0.5000 
     74 N          -1.9988  -25.4816  -44.2518 N.am      13 UNK        -0.5000 
     75 CA         -1.7698  -26.8397  -44.7471 C.3       13 UNK         0.1400 
     76 CB         -0.3166  -27.2519  -44.4563 C.3       13 UNK        -0.1800 
     77 C          -2.0813  -26.9530  -46.2448 C.2       13 UNK         0.5000 
     78 O          -2.7754  -27.8869  -46.6482 O.2       13 UNK        -0.5000 
     79 N          -1.5638  -26.0122  -47.0454 N.am      14 UNK        -0.5000 
     80 CA         -1.6603  -26.0423  -48.5070 C.3       14 UNK         0.1400 
     81 CB         -0.4632  -25.2917  -49.0981 C.3       14 UNK        -0.1800 
     82 C          -2.9975  -25.5137  -49.0661 C.2       14 UNK         0.5000 
     83 O          -3.2558  -25.7144  -50.2508 O.2       14 UNK        -0.5000 
     84 N          -3.8291  -24.8992  -48.2121 N.am      15 UNK        -0.5000 
     85 CA         -5.2164  -24.4881  -48.4627 C.3       15 UNK         0.1400 
     86 CB         -6.0997  -25.6988  -48.8357 C.3       15 UNK        -0.1800 
     87 C          -5.3929  -23.2862  -49.4183 C.2       15 UNK         0.5000 
     88 O          -6.4051  -23.2044  -50.1180 O.2       15 UNK        -0.5000 
     89 N          -4.4552  -22.3308  -49.3587 N.am      16 UNK        -0.5000 
     90 CA         -4.5350  -20.9761  -49.9163 C.3       16 UNK         0.1400 
     91 CB         -5.7044  -20.2053  -49.2585 C.3       16 UNK        -0.1800 
     92 C          -4.5857  -20.9053  -51.4574 C.2       16 UNK         0.5000 
     93 O          -4.3027  -21.8853  -52.1514 O.2       16 UNK        -0.5000 
     94 N          -4.9252  -19.7144  -51.9714 N.am      17 UNK        -0.5000 
     95 CA         -5.0130  -19.3813  -53.3956 C.3       17 UNK         0.1400 
     96 CB         -5.3490  -17.8894  -53.5394 C.3       17 UNK        -0.1800 
     97 C          -6.0306  -20.2346  -54.1755 C.2       17 UNK         0.5000 
     98 O          -5.8290  -20.4721  -55.3659 O.2       17 UNK        -0.5000 
     99 N          -7.0686  -20.7276  -53.4846 N.am      18 UNK        -0.5000 
    100 CA        -8.0700  -21.6596  -54.0101 C.3       18 UNK         0.1400 
    101 CB        -9.1681  -21.8553  -52.9539 C.3       18 UNK        -0.1800 
    102 C         -7.4801  -23.0217  -54.4311 C.2       18 UNK         0.5000 
    103 O         -8.0114  -23.6549  -55.3438 O.2       18 UNK        -0.5000 
    104 N         -6.3838  -23.4285  -53.7792 N.am      19 UNK        -0.5000 
    105 CA        -5.6050  -24.6276  -54.0861 C.3       19 UNK         0.1400 
    106 CB        -5.3511  -25.3731  -52.7696 C.3       19 UNK        -0.1800 
    107 C         -4.2779  -24.2844  -54.7959 C.2       19 UNK         0.5000 
    108 O         -3.4530  -25.1770  -54.9951 O.2       19 UNK        -0.5000 
    109 N         -4.0928  -23.0057  -55.1613 N.am      20 UNK        -0.5000 
    110 CA        -2.9150  -22.4123  -55.8014 C.3       20 UNK         0.1400 
    111 CB        -2.7185  -22.9779  -57.2234 C.3       20 UNK        -0.1800 
    112 C         -1.6347  -22.4851  -54.9405 C.2       20 UNK         0.5000 
    113 O         -0.5313  -22.5444  -55.4881 O.2       20 UNK        -0.5000 
    114 N         -1.7894  -22.4417  -53.6071 N.am      21 UNK        -0.5000 
    115 CA        -0.6925  -22.5122  -52.6329 C.3       21 UNK         0.1400 
    116 CB        -1.2755  -22.5686  -51.2166 C.3       21 UNK        -0.1800 
    117 C          0.3045  -21.3417  -52.7196 C.2       21 UNK         0.5000 
    118 O          1.4580  -21.4929  -52.3163 O.2       21 UNK        -0.5000 
    119 N         -0.1634  -20.2015  -53.2387 N.am      22 UNK        -0.5000 
    120 CA         0.6188  -18.9752  -53.4442 C.3       22 UNK         0.1400 
    121 C          1.6627  -19.0603  -54.5983 C.2       22 UNK         0.5000 
    122 N          1.6465  -20.0863  -55.4429 N.am      22 UNK        -0.7600 
    123 O          2.5055  -18.1769  -54.7281 O.2       22 UNK        -0.5000 
    124 C124       -0.2920  -17.7321  -53.6263 C.3       23 UNK        -0.0398 
    125 S125       -1.6557  -17.6182  -52.4173 S.3       23 UNK        -0.2404 
    126 C126       -0.8048  -16.9182  -50.9735 C.3       23 UNK        -0.0205 
    127 H127       -3.1176   -7.5269  -47.8079 H         1 UNK         0.0600 
    128 H128       -2.3738   -6.6323  -49.1362 H         1 UNK         0.0600 
    129 H129       -1.7655   -6.4369  -47.4887 H         1 UNK         0.0600 
    130 H130       -2.4990   -9.6659  -47.7580 H         1 UNK         0.3000 
    131 H131       -0.2755  -10.7134  -49.2340 H         1 UNK         0.0600 
    132 H132       -0.9514  -12.9059  -48.1923 H         1 UNK         0.0800 
    133 H133       -2.1002  -12.0594  -47.1758 H         1 UNK         0.0800 
    134 H134       -4.8086  -13.5018  -49.4323 H         1 UNK         0.0800 
    135 H135       -4.1993  -13.2425  -47.8171 H         1 UNK         0.0800 
    136 H136       -1.9865  -14.5162  -50.5767 H         1 UNK         0.1150 
    137 H137       -1.8826  -18.5041  -49.0352 H         1 UNK         0.1150 
    138 H138       -4.4799  -15.5983  -47.2535 H         1 UNK         0.1150 
    139 H139       -3.7000  -19.1913  -47.6008 H         1 UNK         0.0800 
    140 H140       -4.8466  -18.0590  -46.9196 H         1 UNK         0.0800 
    141 H141       -3.0624  -19.9055  -43.8093 H         1 UNK         0.0800 
    142 H142       -4.5628  -19.7855  -44.6912 H         1 UNK         0.0800 
    143 H143       -3.7306  -21.1375  -46.5238 H         1 UNK         0.0600 
    144 H144       -1.0366  -20.8193  -45.3319 H         1 UNK         0.3000 
    145 H145        0.5290  -22.4494  -48.0987 H         1 UNK         0.0600 
    146 H146        0.3013  -20.1289  -48.8828 H         1 UNK         0.0600 
    147 H147        1.8387  -20.3216  -48.0546 H         1 UNK         0.0600 
    148 H148        0.4907  -19.5166  -47.2480 H         1 UNK         0.0600 
    149 H149        1.6229  -21.3042  -45.7681 H         1 UNK         0.3000 
    150 H150        0.9250  -23.8008  -43.3929 H         1 UNK         0.0600 
    151 H151        3.5913  -23.4358  -44.8545 H         1 UNK         0.0600 
    152 H152        2.7296  -24.9597  -44.6748 H         1 UNK         0.0600 
    153 H153        3.3677  -24.1474  -43.2554 H         1 UNK         0.0600 
    154 H154        2.7819  -21.7368  -43.1823 H         1 UNK         0.3000 
    155 H155        1.6856  -19.9775  -41.4064 H         1 UNK         0.0600 
    156 H156        2.8625  -18.1375  -42.7760 H         1 UNK         0.0600 
    157 H157        2.4713  -19.0591  -44.2232 H         1 UNK         0.0600 
    158 H158        3.5135  -19.7504  -42.9894 H         1 UNK         0.0600 
    159 H159        0.1342  -18.3030  -43.3259 H         1 UNK         0.3000 
    160 H160       -2.5363  -18.1570  -41.8104 H         1 UNK         0.0600 
    161 H161       -1.1252  -15.9957  -40.1648 H         1 UNK         0.0600 
    162 H162       -2.2507  -17.2064  -39.5727 H         1 UNK         0.0600 
    163 H163       -2.8193  -15.9456  -40.6530 H         1 UNK         0.0600 
    164 H164       -2.1451  -17.0297  -43.6464 H         1 UNK         0.3000 
    165 H165       -1.5656  -15.6236  -45.1150 H         1 UNK         0.0600 
    166 H166       -0.8997  -13.2826  -45.5978 H         1 UNK         0.0600 
    167 H167       -1.7887  -13.3870  -44.0852 H         1 UNK         0.0600 
    168 H168       -0.0415  -13.1842  -44.0682 H         1 UNK         0.0600 
    169 H169        1.0310  -14.7751  -45.7193 H         1 UNK         0.3000 
    170 H170        2.3710  -17.9976  -46.6266 H         1 UNK         0.0600 
    171 H171        2.5696  -16.6858  -48.7126 H         1 UNK         0.0600 
    172 H172        1.4796  -15.4511  -48.0839 H         1 UNK         0.0600 
    173 H173        0.8848  -17.0764  -48.4008 H         1 UNK         0.0600 
    174 H174        3.0361  -15.1374  -46.0305 H         1 UNK         0.3000 
    175 H175        5.8853  -16.0885  -44.2288 H         1 UNK         0.0600 
    176 H176        6.9496  -16.1314  -46.4910 H         1 UNK         0.0600 
    177 H177        5.9893  -14.7422  -46.9852 H         1 UNK         0.0600 
    178 H178        7.1961  -14.5786  -45.7085 H         1 UNK         0.0600 
    179 H179        4.8709  -13.5559  -45.1549 H         1 UNK         0.3000 
    180 H180        2.1392  -13.2203  -43.1063 H         1 UNK         0.0600 
    181 H181        4.7890  -11.9257  -42.2706 H         1 UNK         0.0600 
    182 H182        3.7293  -12.8522  -41.2146 H         1 UNK         0.0600 
    183 H183        3.1744  -11.3275  -41.8836 H         1 UNK         0.0600 
    184 H184        3.6180  -11.1608  -44.3211 H         1 UNK         0.3000 
    185 H185        2.8726  -10.2323  -46.2148 H         1 UNK         0.0600 
    186 H186        4.9158  -11.4456  -46.9971 H         1 UNK         0.0600 
    187 H187        3.9500  -12.3695  -48.1414 H         1 UNK         0.0600 
    188 H188        4.1289  -10.6254  -48.3348 H         1 UNK         0.0600 
    189 H189        1.7093  -11.4405  -48.5378 H         1 UNK         0.3000 
    190 H190       -1.8044  -22.1517  -43.6827 H         1 UNK         0.3000 
    191 H191       -3.9434  -23.5301  -42.4465 H         1 UNK         0.0600 
    192 H192       -2.0492  -22.5033  -41.2215 H         1 UNK         0.0600 
    193 H193       -2.1939  -24.2065  -40.8143 H         1 UNK         0.0600 
    194 H194       -0.9317  -23.6738  -41.9168 H         1 UNK         0.0600 
    195 H195       -1.4233  -24.7498  -44.6535 H         1 UNK         0.3000 
    196 H196       -2.4180  -27.5540  -44.2354 H         1 UNK         0.0600 
    197 H197       -0.1222  -28.2666  -44.8058 H         1 UNK         0.0600 
    198 H198       -0.1107  -27.2320  -43.3861 H         1 UNK         0.0600 
    199 H199        0.4021  -26.5942  -44.9456 H         1 UNK         0.0600 
    200 H200       -0.9814  -25.2824  -46.6413 H         1 UNK         0.3000 
    201 H201       -1.5785  -27.0808  -48.8351 H         1 UNK         0.0600 
    202 H202       -0.4727  -25.3264  -50.1881 H         1 UNK         0.0600 
    203 H203        0.4807  -25.7233  -48.7647 H         1 UNK         0.0600 
    204 H204       -0.4802  -24.2498  -48.7969 H         1 UNK         0.0600 
    205 H205       -3.4979  -24.7597  -47.2683 H         1 UNK         0.3000 
    206 H206       -5.5786  -24.1287  -47.4986 H         1 UNK         0.0600 
    207 H207       -5.9859  -26.5072  -48.1135 H         1 UNK         0.0600 
    208 H208       -7.1552  -25.4248  -48.8493 H         1 UNK         0.0600 
    209 H209       -5.8543  -26.0925  -49.8218 H         1 UNK         0.0600 
    210 H210       -3.6125  -22.5125  -48.8172 H         1 UNK         0.3000 
    211 H211       -3.6046  -20.4876  -49.6259 H         1 UNK         0.0600 
    212 H212       -6.6704  -20.5217  -49.6540 H         1 UNK         0.0600 
    213 H213       -5.6192  -19.1303  -49.4198 H         1 UNK         0.0600 
    214 H214       -5.7275  -20.3637  -48.1803 H         1 UNK         0.0600 
    215 H215       -5.1242  -18.9581  -51.3333 H         1 UNK         0.3000 
    216 H216       -4.0293  -19.5572  -53.8357 H         1 UNK         0.0600 
    217 H217       -5.3746  -17.5945  -54.5893 H         1 UNK         0.0600 
    218 H218       -6.3223  -17.6528  -53.1076 H         1 UNK         0.0600 
    219 H219       -4.6043  -17.2642  -53.0470 H         1 UNK         0.0600 
    220 H220       -7.1444  -20.4900  -52.5067 H         1 UNK         0.3000 
    221 H221       -8.5190  -21.2057  -54.8959 H         1 UNK         0.0600 
    222 H222       -8.7678  -22.2843  -52.0339 H         1 UNK         0.0600 
    223 H223       -9.6489  -20.9096  -52.7032 H         1 UNK         0.0600 
    224 H224       -9.9459  -22.5276  -53.3185 H         1 UNK         0.0600 
    225 H225       -6.0032  -22.8433  -53.0431 H         1 UNK         0.3000 
    226 H226       -6.1635  -25.2894  -54.7507 H         1 UNK         0.0600 
    227 H227       -4.7801  -26.2886  -52.9280 H         1 UNK         0.0600 
    228 H228       -4.7904  -24.7485  -52.0745 H         1 UNK         0.0600 
    229 H229       -6.2876  -25.6513  -52.2864 H         1 UNK         0.0600 
    230 H230       -4.8480  -22.3578  -54.9765 H         1 UNK         0.3000 
    231 H231       -3.1382  -21.3498  -55.9053 H         1 UNK         0.0600 
    232 H232       -2.4196  -24.0263  -57.2057 H         1 UNK         0.0600 
    233 H233       -1.9451  -22.4277  -57.7605 H         1 UNK         0.0600 
    234 H234       -3.6348  -22.8994  -57.8085 H         1 UNK         0.0600 
    235 H235       -2.7281  -22.3824  -53.2215 H         1 UNK         0.3000 
    236 H236       -0.1412  -23.4362  -52.8182 H         1 UNK         0.0600 
    237 H237       -1.7863  -21.6424  -50.9565 H         1 UNK         0.0600 
    238 H238       -1.9840  -23.3889  -51.1049 H         1 UNK         0.0600 
    239 H239       -0.4832  -22.7077  -50.4826 H         1 UNK         0.0600 
    240 H240       -1.1297  -20.1660  -53.5240 H         1 UNK         0.3000 
    241 H241        1.1986  -18.8169  -52.5330 H         1 UNK         0.0600 
    242 H242        0.9654  -20.8281  -55.3477 H         1 UNK         0.3800 
    243 H243        2.3296  -20.1290  -56.1826 H         1 UNK         0.3800 
    244 H244       -0.7470  -17.7455  -54.6183 H         1 UNK         0.0800 
    245 H245        0.2982  -16.8153  -53.5807 H         1 UNK         0.0800 
    246 H246       -0.0940  -17.6481  -50.5835 H         1 UNK         0.0800 
    247 H247       -0.2252  -16.0431  -51.2713 H         1 UNK         0.0800 
@<TRIPOS>BOND
     1    1    2 1    
     2    1  127 1    
     3    1  128 1    
     4    1  129 1    
     5    2    3 2    
     6    2    4 am   BACKBONE|DICT|INTERRES
     7    4    5 1    
     8    4  130 1    
     9    5    6 1    
    10    5   65 1    
    11    5  131 1    
    12    6    7 1    
    13    6  132 1    
    14    6  133 1    
    15    7    8 1    
    16    8    9 1    
    17    8  134 1    
    18    8  135 1    
    19    9   10 ar   
    20    9   14 ar   
    21   10   11 ar   
    22   10  136 1    
    23   11   12 ar   
    24   11  126 1    
    25   12   13 ar   
    26   12  137 1    
    27   13   14 ar   
    28   13   15 1    
    29   14  138 1    
    30   15   16 1    
    31   15  139 1    
    32   15  140 1    
    33   16   17 1    
    34   17   18 1    
    35   17  141 1    
    36   17  142 1    
    37   18   19 1    
    38   18   67 1    
    39   18  143 1    
    40   19   20 am   BACKBONE|DICT|INTERRES
    41   19  144 1    
    42   20   21 2    
    43   20   22 1    
    44   22   23 1    
    45   22   24 1    
    46   22  145 1    
    47   23  146 1    
    48   23  147 1    
    49   23  148 1    
    50   24   25 am   BACKBONE|DICT|INTERRES
    51   24  149 1    
    52   25   26 2    
    53   25   27 1    
    54   27   28 1    
    55   27   29 1    
    56   27  150 1    
    57   28  151 1    
    58   28  152 1    
    59   28  153 1    
    60   29   30 am   BACKBONE|DICT|INTERRES
    61   29  154 1    
    62   30   31 2    
    63   30   32 1    
    64   32   33 1    
    65   32   34 1    
    66   32  155 1    
    67   33  156 1    
    68   33  157 1    
    69   33  158 1    
    70   34   35 am   BACKBONE|DICT|INTERRES
    71   34  159 1    
    72   35   36 2    
    73   35   37 1    
    74   37   38 1    
    75   37   39 1    
    76   37  160 1    
    77   38  161 1    
    78   38  162 1    
    79   38  163 1    
    80   39   40 am   BACKBONE|DICT|INTERRES
    81   39  164 1    
    82   40   41 2    
    83   40   42 1    
    84   42   43 1    
    85   42   44 1    
    86   42  165 1    
    87   43  166 1    
    88   43  167 1    
    89   43  168 1    
    90   44   45 am   BACKBONE|DICT|INTERRES
    91   44  169 1    
    92   45   46 2    
    93   45   47 1    
    94   47   48 1    
    95   47   49 1    
    96   47  170 1    
    97   48  171 1    
    98   48  172 1    
    99   48  173 1    
   100   49   50 am   BACKBONE|DICT|INTERRES
   101   49  174 1    
   102   50   51 2    
   103   50   52 1    
   104   52   53 1    
   105   52   54 1    
   106   52  175 1    
   107   53  176 1    
   108   53  177 1    
   109   53  178 1    
   110   54   55 am   BACKBONE|DICT|INTERRES
   111   54  179 1    
   112   55   56 2    
   113   55   57 1    
   114   57   58 1    
   115   57   59 1    
   116   57  180 1    
   117   58  181 1    
   118   58  182 1    
   119   58  183 1    
   120   59   60 am   BACKBONE|DICT|INTERRES
   121   59  184 1    
   122   60   61 2    
   123   60   62 1    
   124   62   63 1    
   125   62   64 1    
   126   62  185 1    
   127   63  186 1    
   128   63  187 1    
   129   63  188 1    
   130   64   65 am   BACKBONE|DICT|INTERRES
   131   64  189 1    
   132   65   66 2    
   133   67   68 2    
   134   67   69 am   BACKBONE|DICT|INTERRES
   135   69   70 1    
   136   69  190 1    
   137   70   71 1    
   138   70   72 1    
   139   70  191 1    
   140   71  192 1    
   141   71  193 1    
   142   71  194 1    
   143   72   73 2    
   144   72   74 am   BACKBONE|DICT|INTERRES
   145   74   75 1    
   146   74  195 1    
   147   75   76 1    
   148   75   77 1    
   149   75  196 1    
   150   76  197 1    
   151   76  198 1    
   152   76  199 1    
   153   77   78 2    
   154   77   79 am   BACKBONE|DICT|INTERRES
   155   79   80 1    
   156   79  200 1    
   157   80   81 1    
   158   80   82 1    
   159   80  201 1    
   160   81  202 1    
   161   81  203 1    
   162   81  204 1    
   163   82   83 2    
   164   82   84 am   BACKBONE|DICT|INTERRES
   165   84   85 1    
   166   84  205 1    
   167   85   86 1    
   168   85   87 1    
   169   85  206 1    
   170   86  207 1    
   171   86  208 1    
   172   86  209 1    
   173   87   88 2    
   174   87   89 am   BACKBONE|DICT|INTERRES
   175   89   90 1    
   176   89  210 1    
   177   90   91 1    
   178   90   92 1    
   179   90  211 1    
   180   91  212 1    
   181   91  213 1    
   182   91  214 1    
   183   92   93 2    
   184   92   94 am   BACKBONE|DICT|INTERRES
   185   94   95 1    
   186   94  215 1    
   187   95   96 1    
   188   95   97 1    
   189   95  216 1    
   190   96  217 1    
   191   96  218 1    
   192   96  219 1    
   193   97   98 2    
   194   97   99 am   BACKBONE|DICT|INTERRES
   195   99  100 1    
   196   99  220 1    
   197  100  101 1    
   198  100  102 1    
   199  100  221 1    
   200  101  222 1    
   201  101  223 1    
   202  101  224 1    
   203  102  103 2    
   204  102  104 am   BACKBONE|DICT|INTERRES
   205  104  105 1    
   206  104  225 1    
   207  105  106 1    
   208  105  107 1    
   209  105  226 1    
   210  106  227 1    
   211  106  228 1    
   212  106  229 1    
   213  107  108 2    
   214  107  109 am   BACKBONE|DICT|INTERRES
   215  109  110 1    
   216  109  230 1    
   217  110  111 1    
   218  110  112 1    
   219  110  231 1    
   220  111  232 1    
   221  111  233 1    
   222  111  234 1    
   223  112  113 2    
   224  112  114 am   BACKBONE|DICT|INTERRES
   225  114  115 1    
   226  114  235 1    
   227  115  116 1    
   228  115  117 1    
   229  115  236 1    
   230  116  237 1    
   231  116  238 1    
   232  116  239 1    
   233  117  118 2    
   234  117  119 am   BACKBONE|DICT|INTERRES
   235  119  120 1    
   236  119  240 1    
   237  120  121 1    
   238  120  124 1    
   239  120  241 1    
   240  121  122 am   BACKBONE|DICT|INTERRES
   241  121  123 2    
   242  122  242 1    
   243  122  243 1    
   244  124  125 1    
   245  124  244 1    
   246  124  245 1    
   247  125  126 1    
   248  126  246 1    
   249  126  247 1    
@<TRIPOS>SUBSTRUCTURE
     1 UNK         1 GROUP             0       ****    0 ROOT    
