@<TRIPOS>MOLECULE
3R540
247   249    1
SMALL
USER_CHARGES


@<TRIPOS>ATOM
      1 CA          5.9234  -11.3895  -48.7937 C.3       0 UNK        -0.1800 
      2 C           5.8913  -12.9078  -48.8983 C.2       0 UNK         0.5000 
      3 O           6.9406  -13.5341  -49.0522 O.2       0 UNK        -0.5000 
      4 N           4.6922  -13.4976  -48.8256 N.am      1 UNK        -0.5000 
      5 CA          4.4611  -14.9461  -48.8462 C.3       1 UNK         0.1400 
      6 C6          2.9712  -15.2827  -49.1021 C.3       23 UNK        -0.0398 
      7 S7          2.3741  -14.6512  -50.7128 S.3       23 UNK        -0.2404 
      8 C8          3.0751  -15.8367  -51.9114 C.3       23 UNK        -0.0205 
      9 C9          2.4133  -17.2007  -51.8102 C.ar      23 UNK        -0.0193 
     10 C10         1.2670  -17.4906  -52.5541 C.ar      23 UNK        -0.1150 
     11 C11         0.6213  -18.7231  -52.4116 C.ar      23 UNK        -0.0193 
     12 C12         1.1228  -19.6626  -51.5043 C.ar      23 UNK        -0.1150 
     13 C13         2.2710  -19.3798  -50.7581 C.ar      23 UNK        -0.0193 
     14 C14         2.9329  -18.1661  -50.9477 C.ar      23 UNK        -0.1150 
     15 C15         2.7783  -20.3542  -49.7081 C.3       23 UNK        -0.0205 
     16 S16         2.7534  -19.6233  -48.0347 S.3       23 UNK        -0.2404 
     17 C17         0.9837  -19.2481  -47.7861 C.3       23 UNK        -0.0398 
     18 CA          0.2196  -20.4528  -47.1776 C.3       11 UNK         0.1400 
     19 N          -0.6719  -20.0705  -46.0813 N.am      11 UNK        -0.5000 
     20 C          -1.2437  -20.9397  -45.2346 C.2       10 UNK         0.5000 
     21 O          -1.0161  -22.1498  -45.2362 O.2       10 UNK        -0.5000 
     22 CA         -2.3002  -20.3648  -44.2753 C.3       10 UNK         0.1400 
     23 CB         -1.6454  -19.8066  -43.0014 C.3       10 UNK        -0.1800 
     24 N          -3.0988  -19.3273  -44.9331 N.am      10 UNK        -0.5000 
     25 C          -3.9997  -19.5869  -45.8942 C.2       9 UNK         0.5000 
     26 O          -4.3039  -20.7277  -46.2409 O.2       9 UNK        -0.5000 
     27 CA         -4.6380  -18.3878  -46.6228 C.3       9 UNK         0.1400 
     28 CB         -5.9797  -18.0145  -45.9772 C.3       9 UNK        -0.1800 
     29 N          -3.7802  -17.2048  -46.6647 N.am      9 UNK        -0.5000 
     30 C          -2.6110  -17.1175  -47.3170 C.2       8 UNK         0.5000 
     31 O          -2.1240  -18.0346  -47.9760 O.2       8 UNK        -0.5000 
     32 CA         -1.8100  -15.8147  -47.1136 C.3       8 UNK         0.1400 
     33 CB         -2.1993  -14.7655  -48.1646 C.3       8 UNK        -0.1800 
     34 N          -1.9878  -15.2586  -45.7654 N.am      8 UNK        -0.5000 
     35 C          -1.6346  -15.9089  -44.6487 C.2       7 UNK         0.5000 
     36 O          -1.0416  -16.9892  -44.6597 O.2       7 UNK        -0.5000 
     37 CA         -2.1167  -15.3189  -43.3179 C.3       7 UNK         0.1400 
     38 CB         -3.5653  -15.7915  -43.0633 C.3       7 UNK        -0.1800 
     39 N          -1.2179  -15.7641  -42.2552 N.am      7 UNK        -0.5000 
     40 C          -1.3026  -15.4652  -40.9520 C.2       6 UNK         0.5000 
     41 O          -2.1740  -14.7480  -40.4594 O.2       6 UNK        -0.5000 
     42 CA         -0.1934  -16.0277  -40.0499 C.3       6 UNK         0.1400 
     43 CB         -0.1113  -17.5632  -40.1251 C.3       6 UNK        -0.1800 
     44 N           1.0805  -15.4396  -40.4490 N.am      6 UNK        -0.5000 
     45 C           1.5852  -14.3034  -39.9470 C.2       5 UNK         0.5000 
     46 O           1.1221  -13.7231  -38.9641 O.2       5 UNK        -0.5000 
     47 CA          2.8001  -13.6925  -40.6774 C.3       5 UNK         0.1400 
     48 CB          4.1113  -14.1671  -40.0329 C.3       5 UNK        -0.1800 
     49 N           2.8311  -14.0066  -42.1071 N.am      5 UNK        -0.5000 
     50 C           1.9140  -13.6148  -43.0036 C.2       4 UNK         0.5000 
     51 O           0.9991  -12.8317  -42.7475 O.2       4 UNK        -0.5000 
     52 CA          2.0093  -14.2246  -44.4173 C.3       4 UNK         0.1400 
     53 CB          2.6155  -13.2009  -45.3885 C.3       4 UNK        -0.1800 
     54 N           2.7486  -15.4955  -44.5000 N.am      4 UNK        -0.5000 
     55 C           2.4198  -16.6197  -43.8389 C.2       3 UNK         0.5000 
     56 O           1.4940  -16.6696  -43.0292 O.2       3 UNK        -0.5000 
     57 CA          3.2553  -17.8907  -44.0807 C.3       3 UNK         0.1400 
     58 CB          2.3561  -19.1315  -44.2084 C.3       3 UNK        -0.1800 
     59 N           4.1028  -17.7849  -45.2702 N.am      3 UNK        -0.5000 
     60 C           5.4404  -17.7326  -45.2499 C.2       2 UNK         0.5000 
     61 O           6.1131  -17.7766  -44.2190 O.2       2 UNK        -0.5000 
     62 CA          6.1616  -17.5914  -46.6061 C.3       2 UNK         0.1400 
     63 CB          6.5653  -18.9726  -47.1452 C.3       2 UNK        -0.1800 
     64 N           5.4277  -16.8655  -47.6511 N.am      2 UNK        -0.5000 
     65 C           4.9778  -15.6070  -47.5486 C.2       1 UNK         0.5000 
     66 O           4.9600  -14.9773  -46.4890 O.2       1 UNK        -0.5000 
     67 C          -0.5426  -21.2431  -48.2578 C.2       11 UNK         0.5000 
     68 O          -0.0407  -22.2638  -48.7232 O.2       11 UNK        -0.5000 
     69 N          -1.7615  -20.7942  -48.5942 N.am      12 UNK        -0.5000 
     70 CA         -2.6749  -21.4736  -49.5136 C.3       12 UNK         0.1400 
     71 CB         -3.9551  -20.6455  -49.7078 C.3       12 UNK        -0.1800 
     72 C          -3.0271  -22.8925  -49.0429 C.2       12 UNK         0.5000 
     73 O          -2.9976  -23.8188  -49.8515 O.2       12 UNK        -0.5000 
     74 N          -3.3279  -23.0475  -47.7469 N.am      13 UNK        -0.5000 
     75 CA         -3.5848  -24.3369  -47.1070 C.3       13 UNK         0.1400 
     76 CB         -4.0733  -24.1119  -45.6687 C.3       13 UNK        -0.1800 
     77 C          -2.3590  -25.2685  -47.1390 C.2       13 UNK         0.5000 
     78 O          -2.5065  -26.4437  -47.4744 O.2       13 UNK        -0.5000 
     79 N          -1.1709  -24.7223  -46.8397 N.am      14 UNK        -0.5000 
     80 CA          0.1096  -25.4342  -46.8927 C.3       14 UNK         0.1400 
     81 CB          1.2094  -24.5581  -46.2733 C.3       14 UNK        -0.1800 
     82 C           0.4995  -25.8756  -48.3179 C.2       14 UNK         0.5000 
     83 O           1.0039  -26.9847  -48.4962 O.2       14 UNK        -0.5000 
     84 N           0.2306  -25.0135  -49.3068 N.am      15 UNK        -0.5000 
     85 CA          0.4461  -25.2609  -50.7341 C.3       15 UNK         0.1400 
     86 CB          0.4537  -23.9091  -51.4684 C.3       15 UNK        -0.1800 
     87 C          -0.5992  -26.2030  -51.3672 C.2       15 UNK         0.5000 
     88 O          -0.4071  -26.6255  -52.5078 O.2       15 UNK        -0.5000 
     89 N          -1.6900  -26.4867  -50.6390 N.am      16 UNK        -0.5000 
     90 CA         -2.8784  -27.2431  -51.0524 C.3       16 UNK         0.1400 
     91 CB         -2.5241  -28.7002  -51.4149 C.3       16 UNK        -0.1800 
     92 C          -3.7095  -26.5317  -52.1443 C.2       16 UNK         0.5000 
     93 O          -4.4847  -27.1784  -52.8505 O.2       16 UNK        -0.5000 
     94 N          -3.5581  -25.2046  -52.2378 N.am      17 UNK        -0.5000 
     95 CA         -4.3747  -24.3101  -53.0567 C.3       17 UNK         0.1400 
     96 CB         -3.5521  -23.0530  -53.3797 C.3       17 UNK        -0.1800 
     97 C          -5.6881  -23.9448  -52.3357 C.2       17 UNK         0.5000 
     98 O          -6.6979  -23.7072  -52.9991 O.2       17 UNK        -0.5000 
     99 N          -5.6421  -23.9405  -50.9929 N.am      18 UNK        -0.5000 
    100 CA        -6.7386  -23.8158  -50.0298 C.3       18 UNK         0.1400 
    101 CB        -7.4629  -25.1727  -49.9025 C.3       18 UNK        -0.1800 
    102 C         -7.6838  -22.6345  -50.3250 C.2       18 UNK         0.5000 
    103 O         -7.3287  -21.4900  -50.0393 O.2       18 UNK        -0.5000 
    104 N         -8.8506  -22.9321  -50.9150 N.am      19 UNK        -0.5000 
    105 CA        -9.9163  -21.9958  -51.2840 C.3       19 UNK         0.1400 
    106 CB       -11.0973  -22.7972  -51.8533 C.3       19 UNK        -0.1800 
    107 C         -9.4990  -20.8800  -52.2643 C.2       19 UNK         0.5000 
    108 O        -10.2095  -19.8791  -52.3659 O.2       19 UNK        -0.5000 
    109 N         -8.3540  -21.0454  -52.9437 N.am      20 UNK        -0.5000 
    110 CA        -7.7045  -20.0096  -53.7500 C.3       20 UNK         0.1400 
    111 CB        -6.4975  -20.6237  -54.4713 C.3       20 UNK        -0.1800 
    112 C         -7.2522  -18.7852  -52.9262 C.2       20 UNK         0.5000 
    113 O         -7.1535  -17.6930  -53.4850 O.2       20 UNK        -0.5000 
    114 N         -6.9751  -18.9894  -51.6277 N.am      21 UNK        -0.5000 
    115 CA        -6.6386  -18.0116  -50.5823 C.3       21 UNK         0.1400 
    116 CB        -7.8108  -17.0390  -50.3541 C.3       21 UNK        -0.1800 
    117 C         -5.3111  -17.2421  -50.7545 C.2       21 UNK         0.5000 
    118 O         -4.8042  -16.7229  -49.7620 O.2       21 UNK        -0.5000 
    119 N         -4.7672  -17.1812  -51.9758 N.am      22 UNK        -0.5000 
    120 CA        -3.4834  -16.5532  -52.3414 C.3       22 UNK         0.1400 
    121 C         -3.4332  -15.0030  -52.1617 C.2       22 UNK         0.5000 
    122 N         -4.5605  -14.3146  -52.0293 N.am      22 UNK        -0.7600 
    123 O         -2.3619  -14.4036  -52.1827 O.2       22 UNK        -0.5000 
    124 C124       -2.2601  -17.2722  -51.7056 C.3       23 UNK        -0.0398 
    125 S125       -2.1352  -19.0224  -52.2185 S.3       23 UNK        -0.2404 
    126 C126       -0.6235  -19.0328  -53.2305 C.3       23 UNK        -0.0205 
    127 H127        6.3617  -10.9600  -49.6945 H         1 UNK         0.0600 
    128 H128        6.5288  -11.0856  -47.9397 H         1 UNK         0.0600 
    129 H129        4.9247  -10.9704  -48.6682 H         1 UNK         0.0600 
    130 H130        3.8693  -12.9274  -48.6979 H         1 UNK         0.3000 
    131 H131        5.0494  -15.3568  -49.6688 H         1 UNK         0.0600 
    132 H132        2.7848  -16.3532  -49.0372 H         1 UNK         0.0800 
    133 H133        2.3453  -14.8410  -48.3263 H         1 UNK         0.0800 
    134 H134        2.9366  -15.4372  -52.9171 H         1 UNK         0.0800 
    135 H135        4.1529  -15.9226  -51.7702 H         1 UNK         0.0800 
    136 H136        0.8686  -16.7481  -53.2313 H         1 UNK         0.1150 
    137 H137        0.6055  -20.6022  -51.3667 H         1 UNK         0.1150 
    138 H138        3.8240  -17.9530  -50.3757 H         1 UNK         0.1150 
    139 H139        2.1966  -21.2760  -49.7129 H         1 UNK         0.0800 
    140 H140        3.8024  -20.6385  -49.9532 H         1 UNK         0.0800 
    141 H141        0.9418  -18.3911  -47.1133 H         1 UNK         0.0800 
    142 H142        0.5311  -18.8875  -48.7118 H         1 UNK         0.0800 
    143 H143        0.9465  -21.1404  -46.7393 H         1 UNK         0.0600 
    144 H144       -0.9337  -19.0959  -46.0211 H         1 UNK         0.3000 
    145 H145       -2.9687  -21.1769  -43.9815 H         1 UNK         0.0600 
    146 H146       -2.3790  -19.3299  -42.3512 H         1 UNK         0.0600 
    147 H147       -1.1748  -20.6070  -42.4296 H         1 UNK         0.0600 
    148 H148       -0.8687  -19.0757  -43.2244 H         1 UNK         0.0600 
    149 H149       -2.8474  -18.3691  -44.7345 H         1 UNK         0.3000 
    150 H150       -4.8311  -18.6911  -47.6526 H         1 UNK         0.0600 
    151 H151       -6.6537  -18.8720  -45.9549 H         1 UNK         0.0600 
    152 H152       -6.4800  -17.2250  -46.5387 H         1 UNK         0.0600 
    153 H153       -5.8512  -17.6698  -44.9503 H         1 UNK         0.0600 
    154 H154       -4.1039  -16.3954  -46.1582 H         1 UNK         0.3000 
    155 H155       -0.7521  -16.0529  -47.2442 H         1 UNK         0.0600 
    156 H156       -1.5977  -13.8620  -48.0646 H         1 UNK         0.0600 
    157 H157       -3.2501  -14.4841  -48.0850 H         1 UNK         0.0600 
    158 H158       -2.0417  -15.1493  -49.1735 H         1 UNK         0.0600 
    159 H159       -2.4809  -14.3797  -45.6971 H         1 UNK         0.3000 
    160 H160       -2.0791  -14.2295  -43.3752 H         1 UNK         0.0600 
    161 H161       -3.6135  -16.8701  -42.9079 H         1 UNK         0.0600 
    162 H162       -4.2150  -15.5521  -43.9059 H         1 UNK         0.0600 
    163 H163       -4.0036  -15.3097  -42.1903 H         1 UNK         0.0600 
    164 H164       -0.4389  -16.3305  -42.5856 H         1 UNK         0.3000 
    165 H165       -0.4245  -15.7587  -39.0170 H         1 UNK         0.0600 
    166 H166        0.1516  -17.9181  -41.1215 H         1 UNK         0.0600 
    167 H167        0.6357  -17.9475  -39.4307 H         1 UNK         0.0600 
    168 H168       -1.0667  -18.0166  -39.8587 H         1 UNK         0.0600 
    169 H169        1.4864  -15.8186  -41.2990 H         1 UNK         0.3000 
    170 H170        2.7378  -12.6074  -40.5726 H         1 UNK         0.0600 
    171 H171        4.1332  -13.9255  -38.9694 H         1 UNK         0.0600 
    172 H172        4.2384  -15.2463  -40.1271 H         1 UNK         0.0600 
    173 H173        4.9745  -13.6849  -40.4921 H         1 UNK         0.0600 
    174 H174        3.5524  -14.6410  -42.4162 H         1 UNK         0.3000 
    175 H175        0.9876  -14.4275  -44.7423 H         1 UNK         0.0600 
    176 H176        3.6567  -12.9852  -45.1457 H         1 UNK         0.0600 
    177 H177        2.5755  -13.5575  -46.4156 H         1 UNK         0.0600 
    178 H178        2.0697  -12.2570  -45.3567 H         1 UNK         0.0600 
    179 H179        3.5567  -15.5026  -45.1143 H         1 UNK         0.3000 
    180 H180        3.8678  -18.0245  -43.1873 H         1 UNK         0.0600 
    181 H181        1.6017  -18.9948  -44.9789 H         1 UNK         0.0600 
    182 H182        1.8297  -19.3327  -43.2746 H         1 UNK         0.0600 
    183 H183        2.9343  -20.0222  -44.4544 H         1 UNK         0.0600 
    184 H184        3.6333  -17.7536  -46.1637 H         1 UNK         0.3000 
    185 H185        7.0772  -17.0275  -46.4161 H         1 UNK         0.0600 
    186 H186        7.1803  -18.8841  -48.0408 H         1 UNK         0.0600 
    187 H187        7.1483  -19.5255  -46.4073 H         1 UNK         0.0600 
    188 H188        5.6944  -19.5791  -47.3938 H         1 UNK         0.0600 
    189 H189        5.3906  -17.3238  -48.5493 H         1 UNK         0.3000 
    190 H190       -2.0611  -19.8946  -48.2276 H         1 UNK         0.3000 
    191 H191       -2.1627  -21.5502  -50.4743 H         1 UNK         0.0600 
    192 H192       -4.4962  -20.9752  -50.5953 H         1 UNK         0.0600 
    193 H193       -3.7305  -19.5877  -49.8362 H         1 UNK         0.0600 
    194 H194       -4.6391  -20.7382  -48.8649 H         1 UNK         0.0600 
    195 H195       -3.4007  -22.2224  -47.1593 H         1 UNK         0.3000 
    196 H196       -4.3869  -24.8280  -47.6619 H         1 UNK         0.0600 
    197 H197       -4.2978  -25.0605  -45.1796 H         1 UNK         0.0600 
    198 H198       -4.9841  -23.5130  -45.6521 H         1 UNK         0.0600 
    199 H199       -3.3260  -23.5986  -45.0635 H         1 UNK         0.0600 
    200 H200       -1.1391  -23.7524  -46.5433 H         1 UNK         0.3000 
    201 H201        0.0127  -26.3351  -46.2834 H         1 UNK         0.0600 
    202 H202        0.9692  -24.2928  -45.2435 H         1 UNK         0.0600 
    203 H203        1.3514  -23.6328  -46.8317 H         1 UNK         0.0600 
    204 H204        2.1653  -25.0830  -46.2602 H         1 UNK         0.0600 
    205 H205       -0.1092  -24.0861  -49.0598 H         1 UNK         0.3000 
    206 H206        1.4256  -25.7260  -50.8613 H         1 UNK         0.0600 
    207 H207       -0.5005  -23.3909  -51.3647 H         1 UNK         0.0600 
    208 H208        1.2335  -23.2540  -51.0799 H         1 UNK         0.0600 
    209 H209        0.6426  -24.0393  -52.5346 H         1 UNK         0.0600 
    210 H210       -1.7479  -26.0700  -49.7186 H         1 UNK         0.3000 
    211 H211       -3.5211  -27.2767  -50.1716 H         1 UNK         0.0600 
    212 H212       -1.9581  -28.7632  -52.3444 H         1 UNK         0.0600 
    213 H213       -3.4256  -29.3003  -51.5432 H         1 UNK         0.0600 
    214 H214       -1.9333  -29.1693  -50.6281 H         1 UNK         0.0600 
    215 H215       -2.9528  -24.7582  -51.5564 H         1 UNK         0.3000 
    216 H216       -4.6243  -24.8108  -53.9945 H         1 UNK         0.0600 
    217 H217       -4.0571  -22.4401  -54.1252 H         1 UNK         0.0600 
    218 H218       -2.5768  -23.3143  -53.7911 H         1 UNK         0.0600 
    219 H219       -3.3860  -22.4352  -52.4967 H         1 UNK         0.0600 
    220 H220       -4.7277  -24.0869  -50.5771 H         1 UNK         0.3000 
    221 H221       -6.2789  -23.5976  -49.0646 H         1 UNK         0.0600 
    222 H222       -7.8630  -25.5177  -50.8567 H         1 UNK         0.0600 
    223 H223       -6.7804  -25.9413  -49.5393 H         1 UNK         0.0600 
    224 H224       -8.2884  -25.1165  -49.1916 H         1 UNK         0.0600 
    225 H225       -9.0176  -23.8996  -51.1497 H         1 UNK         0.3000 
    226 H226      -10.2466  -21.5040  -50.3670 H         1 UNK         0.0600 
    227 H227      -11.4687  -23.5229  -51.1294 H         1 UNK         0.0600 
    228 H228      -11.9307  -22.1412  -52.1086 H         1 UNK         0.0600 
    229 H229      -10.8156  -23.3373  -52.7581 H         1 UNK         0.0600 
    230 H230       -7.8498  -21.9185  -52.8317 H         1 UNK         0.3000 
    231 H231       -8.4206  -19.6654  -54.4988 H         1 UNK         0.0600 
    232 H232       -6.0352  -19.9026  -55.1465 H         1 UNK         0.0600 
    233 H233       -6.7856  -21.4910  -55.0657 H         1 UNK         0.0600 
    234 H234       -5.7370  -20.9395  -53.7576 H         1 UNK         0.0600 
    235 H235       -7.0738  -19.9386  -51.2792 H         1 UNK         0.3000 
    236 H236       -6.5230  -18.6001  -49.6708 H         1 UNK         0.0600 
    237 H237       -8.7344  -17.5790  -50.1448 H         1 UNK         0.0600 
    238 H238       -7.6163  -16.3863  -49.5021 H         1 UNK         0.0600 
    239 H239       -7.9840  -16.4009  -51.2209 H         1 UNK         0.0600 
    240 H240       -5.3139  -17.5560  -52.7417 H         1 UNK         0.3000 
    241 H241       -3.4012  -16.6898  -53.4200 H         1 UNK         0.0600 
    242 H242       -5.4496  -14.7880  -52.0218 H         1 UNK         0.3800 
    243 H243       -4.5218  -13.3128  -51.9276 H         1 UNK         0.3800 
    244 H244       -1.3362  -16.7597  -51.9702 H         1 UNK         0.0800 
    245 H245       -2.3144  -17.2368  -50.6174 H         1 UNK         0.0800 
    246 H246       -0.7363  -18.3251  -54.0533 H         1 UNK         0.0800 
    247 H247       -0.5143  -20.0174  -53.6870 H         1 UNK         0.0800 
@<TRIPOS>BOND
     1    1    2 1    
     2    1  127 1    
     3    1  128 1    
     4    1  129 1    
     5    2    3 2    
     6    2    4 am   BACKBONE|DICT|INTERRES
     7    4    5 1    
     8    4  130 1    
     9    5    6 1    
    10    5   65 1    
    11    5  131 1    
    12    6    7 1    
    13    6  132 1    
    14    6  133 1    
    15    7    8 1    
    16    8    9 1    
    17    8  134 1    
    18    8  135 1    
    19    9   10 ar   
    20    9   14 ar   
    21   10   11 ar   
    22   10  136 1    
    23   11   12 ar   
    24   11  126 1    
    25   12   13 ar   
    26   12  137 1    
    27   13   14 ar   
    28   13   15 1    
    29   14  138 1    
    30   15   16 1    
    31   15  139 1    
    32   15  140 1    
    33   16   17 1    
    34   17   18 1    
    35   17  141 1    
    36   17  142 1    
    37   18   19 1    
    38   18   67 1    
    39   18  143 1    
    40   19   20 am   BACKBONE|DICT|INTERRES
    41   19  144 1    
    42   20   21 2    
    43   20   22 1    
    44   22   23 1    
    45   22   24 1    
    46   22  145 1    
    47   23  146 1    
    48   23  147 1    
    49   23  148 1    
    50   24   25 am   BACKBONE|DICT|INTERRES
    51   24  149 1    
    52   25   26 2    
    53   25   27 1    
    54   27   28 1    
    55   27   29 1    
    56   27  150 1    
    57   28  151 1    
    58   28  152 1    
    59   28  153 1    
    60   29   30 am   BACKBONE|DICT|INTERRES
    61   29  154 1    
    62   30   31 2    
    63   30   32 1    
    64   32   33 1    
    65   32   34 1    
    66   32  155 1    
    67   33  156 1    
    68   33  157 1    
    69   33  158 1    
    70   34   35 am   BACKBONE|DICT|INTERRES
    71   34  159 1    
    72   35   36 2    
    73   35   37 1    
    74   37   38 1    
    75   37   39 1    
    76   37  160 1    
    77   38  161 1    
    78   38  162 1    
    79   38  163 1    
    80   39   40 am   BACKBONE|DICT|INTERRES
    81   39  164 1    
    82   40   41 2    
    83   40   42 1    
    84   42   43 1    
    85   42   44 1    
    86   42  165 1    
    87   43  166 1    
    88   43  167 1    
    89   43  168 1    
    90   44   45 am   BACKBONE|DICT|INTERRES
    91   44  169 1    
    92   45   46 2    
    93   45   47 1    
    94   47   48 1    
    95   47   49 1    
    96   47  170 1    
    97   48  171 1    
    98   48  172 1    
    99   48  173 1    
   100   49   50 am   BACKBONE|DICT|INTERRES
   101   49  174 1    
   102   50   51 2    
   103   50   52 1    
   104   52   53 1    
   105   52   54 1    
   106   52  175 1    
   107   53  176 1    
   108   53  177 1    
   109   53  178 1    
   110   54   55 am   BACKBONE|DICT|INTERRES
   111   54  179 1    
   112   55   56 2    
   113   55   57 1    
   114   57   58 1    
   115   57   59 1    
   116   57  180 1    
   117   58  181 1    
   118   58  182 1    
   119   58  183 1    
   120   59   60 am   BACKBONE|DICT|INTERRES
   121   59  184 1    
   122   60   61 2    
   123   60   62 1    
   124   62   63 1    
   125   62   64 1    
   126   62  185 1    
   127   63  186 1    
   128   63  187 1    
   129   63  188 1    
   130   64   65 am   BACKBONE|DICT|INTERRES
   131   64  189 1    
   132   65   66 2    
   133   67   68 2    
   134   67   69 am   BACKBONE|DICT|INTERRES
   135   69   70 1    
   136   69  190 1    
   137   70   71 1    
   138   70   72 1    
   139   70  191 1    
   140   71  192 1    
   141   71  193 1    
   142   71  194 1    
   143   72   73 2    
   144   72   74 am   BACKBONE|DICT|INTERRES
   145   74   75 1    
   146   74  195 1    
   147   75   76 1    
   148   75   77 1    
   149   75  196 1    
   150   76  197 1    
   151   76  198 1    
   152   76  199 1    
   153   77   78 2    
   154   77   79 am   BACKBONE|DICT|INTERRES
   155   79   80 1    
   156   79  200 1    
   157   80   81 1    
   158   80   82 1    
   159   80  201 1    
   160   81  202 1    
   161   81  203 1    
   162   81  204 1    
   163   82   83 2    
   164   82   84 am   BACKBONE|DICT|INTERRES
   165   84   85 1    
   166   84  205 1    
   167   85   86 1    
   168   85   87 1    
   169   85  206 1    
   170   86  207 1    
   171   86  208 1    
   172   86  209 1    
   173   87   88 2    
   174   87   89 am   BACKBONE|DICT|INTERRES
   175   89   90 1    
   176   89  210 1    
   177   90   91 1    
   178   90   92 1    
   179   90  211 1    
   180   91  212 1    
   181   91  213 1    
   182   91  214 1    
   183   92   93 2    
   184   92   94 am   BACKBONE|DICT|INTERRES
   185   94   95 1    
   186   94  215 1    
   187   95   96 1    
   188   95   97 1    
   189   95  216 1    
   190   96  217 1    
   191   96  218 1    
   192   96  219 1    
   193   97   98 2    
   194   97   99 am   BACKBONE|DICT|INTERRES
   195   99  100 1    
   196   99  220 1    
   197  100  101 1    
   198  100  102 1    
   199  100  221 1    
   200  101  222 1    
   201  101  223 1    
   202  101  224 1    
   203  102  103 2    
   204  102  104 am   BACKBONE|DICT|INTERRES
   205  104  105 1    
   206  104  225 1    
   207  105  106 1    
   208  105  107 1    
   209  105  226 1    
   210  106  227 1    
   211  106  228 1    
   212  106  229 1    
   213  107  108 2    
   214  107  109 am   BACKBONE|DICT|INTERRES
   215  109  110 1    
   216  109  230 1    
   217  110  111 1    
   218  110  112 1    
   219  110  231 1    
   220  111  232 1    
   221  111  233 1    
   222  111  234 1    
   223  112  113 2    
   224  112  114 am   BACKBONE|DICT|INTERRES
   225  114  115 1    
   226  114  235 1    
   227  115  116 1    
   228  115  117 1    
   229  115  236 1    
   230  116  237 1    
   231  116  238 1    
   232  116  239 1    
   233  117  118 2    
   234  117  119 am   BACKBONE|DICT|INTERRES
   235  119  120 1    
   236  119  240 1    
   237  120  121 1    
   238  120  124 1    
   239  120  241 1    
   240  121  122 am   BACKBONE|DICT|INTERRES
   241  121  123 2    
   242  122  242 1    
   243  122  243 1    
   244  124  125 1    
   245  124  244 1    
   246  124  245 1    
   247  125  126 1    
   248  126  246 1    
   249  126  247 1    
@<TRIPOS>SUBSTRUCTURE
     1 UNK         1 GROUP             0       ****    0 ROOT    
