@<TRIPOS>MOLECULE
3R540
247   249    1
SMALL
USER_CHARGES


@<TRIPOS>ATOM
      1 CA         -2.4874  -10.5823  -52.9819 C.3       0 UNK        -0.1800 
      2 C          -1.5581  -10.5757  -51.7762 C.2       0 UNK         0.5000 
      3 O          -1.1804   -9.5050  -51.2996 O.2       0 UNK        -0.5000 
      4 N          -1.1833  -11.7642  -51.2871 N.am      1 UNK        -0.5000 
      5 CA         -0.3530  -11.9573  -50.0965 C.3       1 UNK         0.1400 
      6 C6          0.1896  -13.4036  -50.0304 C.3       23 UNK        -0.0398 
      7 S7          1.4639  -13.6222  -48.7417 S.3       23 UNK        -0.2404 
      8 C8          2.7657  -14.5197  -49.6439 C.3       23 UNK        -0.0205 
      9 C9          2.2924  -15.8768  -50.1471 C.ar      23 UNK        -0.0193 
     10 C10         2.2838  -16.1583  -51.5168 C.ar      23 UNK        -0.1150 
     11 C11         1.8734  -17.4114  -51.9813 C.ar      23 UNK        -0.0193 
     12 C12         1.4514  -18.3802  -51.0663 C.ar      23 UNK        -0.1150 
     13 C13         1.4488  -18.1080  -49.6950 C.ar      23 UNK        -0.0193 
     14 C14         1.8800  -16.8588  -49.2418 C.ar      23 UNK        -0.1150 
     15 C15         0.9784  -19.1564  -48.7009 C.3       23 UNK        -0.0205 
     16 S16         2.1710  -20.5166  -48.5432 S.3       23 UNK        -0.2404 
     17 C17         1.2701  -21.8983  -49.3370 C.3       23 UNK        -0.0398 
     18 CA          0.5673  -22.8453  -48.3291 C.3       11 UNK         0.1400 
     19 N           1.4508  -23.2080  -47.2204 N.am      11 UNK        -0.5000 
     20 C           1.2563  -24.2165  -46.3644 C.2       10 UNK         0.5000 
     21 O           0.3068  -24.9957  -46.4291 O.2       10 UNK        -0.5000 
     22 CA          2.2751  -24.3338  -45.2145 C.3       10 UNK         0.1400 
     23 CB          3.4759  -25.1887  -45.6453 C.3       10 UNK        -0.1800 
     24 N           2.7545  -23.0369  -44.7194 N.am      10 UNK        -0.5000 
     25 C           1.9685  -22.0904  -44.1891 C.2       9 UNK         0.5000 
     26 O           0.7416  -22.1859  -44.1246 O.2       9 UNK        -0.5000 
     27 CA          2.6555  -20.8135  -43.6770 C.3       9 UNK         0.1400 
     28 CB          2.4127  -19.6421  -44.6421 C.3       9 UNK        -0.1800 
     29 N           2.1459  -20.4642  -42.3529 N.am      9 UNK        -0.5000 
     30 C           2.4572  -21.1289  -41.2291 C.2       8 UNK         0.5000 
     31 O           3.2915  -22.0346  -41.1872 O.2       8 UNK        -0.5000 
     32 CA          1.7273  -20.7278  -39.9299 C.3       8 UNK         0.1400 
     33 CB          2.5954  -19.7697  -39.0997 C.3       8 UNK        -0.1800 
     34 N           0.4300  -20.0991  -40.1675 N.am      8 UNK        -0.5000 
     35 C          -0.6504  -20.7171  -40.6633 C.2       7 UNK         0.5000 
     36 O          -0.7167  -21.9335  -40.8375 O.2       7 UNK        -0.5000 
     37 CA         -1.8606  -19.8319  -41.0339 C.3       7 UNK         0.1400 
     38 CB         -3.0369  -20.0990  -40.0817 C.3       7 UNK        -0.1800 
     39 N          -1.5916  -18.3872  -41.0551 N.am      7 UNK        -0.5000 
     40 C          -0.7357  -17.7618  -41.8757 C.2       6 UNK         0.5000 
     41 O          -0.0200  -18.3580  -42.6806 O.2       6 UNK        -0.5000 
     42 CA         -0.6658  -16.2300  -41.7243 C.3       6 UNK         0.1400 
     43 CB          0.0196  -15.8195  -40.4046 C.3       6 UNK        -0.1800 
     44 N          -0.0620  -15.5621  -42.8809 N.am      6 UNK        -0.5000 
     45 C           1.2189  -15.5506  -43.2861 C.2       5 UNK         0.5000 
     46 O           2.1513  -16.0467  -42.6509 O.2       5 UNK        -0.5000 
     47 CA          1.5086  -14.8186  -44.6185 C.3       5 UNK         0.1400 
     48 CB          2.7447  -15.3760  -45.3578 C.3       5 UNK        -0.1800 
     49 N           0.3418  -14.7437  -45.5065 N.am      5 UNK        -0.5000 
     50 C          -0.2925  -15.7728  -46.0922 C.2       4 UNK         0.5000 
     51 O           0.1083  -16.9334  -46.0400 O.2       4 UNK        -0.5000 
     52 CA         -1.6108  -15.4557  -46.8377 C.3       4 UNK         0.1400 
     53 CB         -2.5631  -16.6690  -46.8887 C.3       4 UNK        -0.1800 
     54 N          -2.3117  -14.2732  -46.3187 N.am      4 UNK        -0.5000 
     55 C          -2.7319  -14.0760  -45.0574 C.2       3 UNK         0.5000 
     56 O          -2.6554  -14.9317  -44.1748 O.2       3 UNK        -0.5000 
     57 CA         -3.2708  -12.6699  -44.7083 C.3       3 UNK         0.1400 
     58 CB         -3.0592  -12.3178  -43.2206 C.3       3 UNK        -0.1800 
     59 N          -2.7346  -11.6002  -45.5608 N.am      3 UNK        -0.5000 
     60 C          -1.4454  -11.2881  -45.7605 C.2       2 UNK         0.5000 
     61 O          -0.4972  -11.8810  -45.2401 O.2       2 UNK        -0.5000 
     62 CA         -1.1766  -10.1620  -46.7747 C.3       2 UNK         0.1400 
     63 CB         -0.2389   -9.0966  -46.1846 C.3       2 UNK        -0.1800 
     64 N          -0.5980  -10.6724  -48.0184 N.am      2 UNK        -0.5000 
     65 C          -1.1522  -11.5850  -48.8291 C.2       1 UNK         0.5000 
     66 O          -2.2373  -12.1332  -48.6150 O.2       1 UNK        -0.5000 
     67 C          -0.7963  -22.2862  -47.8606 C.2       11 UNK         0.5000 
     68 O          -1.7949  -22.4663  -48.5604 O.2       11 UNK        -0.5000 
     69 N          -0.8239  -21.6381  -46.6874 N.am      12 UNK        -0.5000 
     70 CA         -2.0471  -21.1719  -46.0371 C.3       12 UNK         0.1400 
     71 CB         -1.7259  -19.9998  -45.1009 C.3       12 UNK        -0.1800 
     72 C          -2.7297  -22.3172  -45.2732 C.2       12 UNK         0.5000 
     73 O          -3.9491  -22.4596  -45.3593 O.2       12 UNK        -0.5000 
     74 N          -1.9279  -23.1370  -44.5764 N.am      13 UNK        -0.5000 
     75 CA         -2.3664  -24.3171  -43.8264 C.3       13 UNK         0.1400 
     76 CB         -1.1698  -24.9217  -43.0784 C.3       13 UNK        -0.1800 
     77 C          -3.0475  -25.3849  -44.7044 C.2       13 UNK         0.5000 
     78 O          -3.9709  -26.0535  -44.2377 O.2       13 UNK        -0.5000 
     79 N          -2.6253  -25.4909  -45.9723 N.am      14 UNK        -0.5000 
     80 CA         -3.2140  -26.3228  -47.0258 C.3       14 UNK         0.1400 
     81 CB         -2.1848  -26.4667  -48.1624 C.3       14 UNK        -0.1800 
     82 C          -4.5731  -25.7821  -47.5317 C.2       14 UNK         0.5000 
     83 O          -4.7525  -25.5863  -48.7357 O.2       14 UNK        -0.5000 
     84 N          -5.4977  -25.5145  -46.5966 N.am      15 UNK        -0.5000 
     85 CA         -6.8667  -25.0098  -46.7820 C.3       15 UNK         0.1400 
     86 CB         -7.7480  -26.1130  -47.4030 C.3       15 UNK        -0.1800 
     87 C          -6.9558  -23.6825  -47.5703 C.2       15 UNK         0.5000 
     88 O          -7.9857  -23.4034  -48.1862 O.2       15 UNK        -0.5000 
     89 N          -5.8573  -22.9126  -47.5705 N.am      16 UNK        -0.5000 
     90 CA         -5.5843  -21.7253  -48.3846 C.3       16 UNK         0.1400 
     91 CB         -6.4683  -20.5439  -47.9387 C.3       16 UNK        -0.1800 
     92 C          -5.6429  -21.9658  -49.9113 C.2       16 UNK         0.5000 
     93 O          -5.7111  -20.9984  -50.6693 O.2       16 UNK        -0.5000 
     94 N          -5.5911  -23.2303  -50.3569 N.am      17 UNK        -0.5000 
     95 CA         -5.6734  -23.6046  -51.7689 C.3       17 UNK         0.1400 
     96 CB         -5.9461  -25.1113  -51.8909 C.3       17 UNK        -0.1800 
     97 C          -4.4002  -23.2082  -52.5291 C.2       17 UNK         0.5000 
     98 O          -4.4830  -22.5947  -53.5934 O.2       17 UNK        -0.5000 
     99 N          -3.2407  -23.5110  -51.9317 N.am      18 UNK        -0.5000 
    100 CA        -1.9315  -23.1147  -52.4454 C.3       18 UNK         0.1400 
    101 CB        -0.8396  -23.9294  -51.7421 C.3       18 UNK        -0.1800 
    102 C         -1.6830  -21.6003  -52.3197 C.2       18 UNK         0.5000 
    103 O         -1.0039  -21.0371  -53.1754 O.2       18 UNK        -0.5000 
    104 N         -2.2670  -20.9650  -51.2924 N.am      19 UNK        -0.5000 
    105 CA        -2.2659  -19.5122  -51.1042 C.3       19 UNK         0.1400 
    106 CB        -2.8048  -19.1677  -49.7079 C.3       19 UNK        -0.1800 
    107 C         -3.0744  -18.7640  -52.1796 C.2       19 UNK         0.5000 
    108 O         -2.6892  -17.6631  -52.5706 O.2       19 UNK        -0.5000 
    109 N         -4.1828  -19.3648  -52.6310 N.am      20 UNK        -0.5000 
    110 CA        -5.0087  -18.8459  -53.7174 C.3       20 UNK         0.1400 
    111 CB        -6.4004  -19.4950  -53.6578 C.3       20 UNK        -0.1800 
    112 C         -4.3555  -19.0716  -55.0919 C.2       20 UNK         0.5000 
    113 O         -4.3736  -18.1663  -55.9268 O.2       20 UNK        -0.5000 
    114 N         -3.8088  -20.2761  -55.3068 N.am      21 UNK        -0.5000 
    115 CA        -3.2083  -20.6925  -56.5719 C.3       21 UNK         0.1400 
    116 CB        -3.0967  -22.2254  -56.6036 C.3       21 UNK        -0.1800 
    117 C         -1.8418  -20.0387  -56.8437 C.2       21 UNK         0.5000 
    118 O         -1.6506  -19.4664  -57.9175 O.2       21 UNK        -0.5000 
    119 N         -0.9124  -20.1670  -55.8862 N.am      22 UNK        -0.5000 
    120 CA         0.5031  -19.7612  -55.9823 C.3       22 UNK         0.1400 
    121 C          1.3109  -20.4424  -57.1336 C.2       22 UNK         0.5000 
    122 N          0.9024  -21.6069  -57.6239 N.am      22 UNK        -0.7600 
    123 O          2.3411  -19.9360  -57.5704 O.2       22 UNK        -0.5000 
    124 C124        0.6968  -18.2193  -55.9181 C.3       23 UNK        -0.0398 
    125 S125        0.3012  -17.5564  -54.2653 S.3       23 UNK        -0.2404 
    126 C126        1.9256  -17.7364  -53.4654 C.3       23 UNK        -0.0205 
    127 H127       -2.7301  -11.5960  -53.3018 H         1 UNK         0.0600 
    128 H128       -2.0195  -10.0647  -53.8193 H         1 UNK         0.0600 
    129 H129       -3.4187  -10.0701  -52.7403 H         1 UNK         0.0600 
    130 H130       -1.5541  -12.6056  -51.7047 H         1 UNK         0.3000 
    131 H131        0.5028  -11.2839  -50.1842 H         1 UNK         0.0600 
    132 H132       -0.6148  -14.1212  -49.8628 H         1 UNK         0.0800 
    133 H133        0.6240  -13.6660  -50.9959 H         1 UNK         0.0800 
    134 H134        3.6166  -14.6678  -48.9776 H         1 UNK         0.0800 
    135 H135        3.1240  -13.8985  -50.4663 H         1 UNK         0.0800 
    136 H136        2.6110  -15.4078  -52.2227 H         1 UNK         0.1150 
    137 H137        1.1354  -19.3505  -51.4233 H         1 UNK         0.1150 
    138 H138        1.8888  -16.6443  -48.1820 H         1 UNK         0.1150 
    139 H139        0.8381  -18.7161  -47.7143 H         1 UNK         0.0800 
    140 H140        0.0029  -19.5314  -49.0012 H         1 UNK         0.0800 
    141 H141        2.0081  -22.4723  -49.8987 H         1 UNK         0.0800 
    142 H142        0.5736  -21.5214  -50.0879 H         1 UNK         0.0800 
    143 H143        0.3473  -23.7751  -48.8551 H         1 UNK         0.0600 
    144 H144        2.2515  -22.6073  -47.0852 H         1 UNK         0.3000 
    145 H145        1.7800  -24.8399  -44.3843 H         1 UNK         0.0600 
    146 H146        4.1593  -25.3573  -44.8128 H         1 UNK         0.0600 
    147 H147        3.1506  -26.1678  -45.9998 H         1 UNK         0.0600 
    148 H148        4.0381  -24.7173  -46.4523 H         1 UNK         0.0600 
    149 H149        3.7531  -22.8886  -44.7432 H         1 UNK         0.3000 
    150 H150        3.7319  -20.9825  -43.6045 H         1 UNK         0.0600 
    151 H151        2.8564  -19.8403  -45.6178 H         1 UNK         0.0600 
    152 H152        2.8552  -18.7199  -44.2645 H         1 UNK         0.0600 
    153 H153        1.3490  -19.4561  -44.7978 H         1 UNK         0.0600 
    154 H154        1.4165  -19.7581  -42.3297 H         1 UNK         0.3000 
    155 H155        1.5644  -21.6373  -39.3479 H         1 UNK         0.0600 
    156 H156        2.7768  -18.8324  -39.6275 H         1 UNK         0.0600 
    157 H157        3.5662  -20.2149  -38.8779 H         1 UNK         0.0600 
    158 H158        2.1223  -19.5332  -38.1464 H         1 UNK         0.0600 
    159 H159        0.3876  -19.0974  -40.0575 H         1 UNK         0.3000 
    160 H160       -2.1668  -20.1244  -42.0399 H         1 UNK         0.0600 
    161 H161       -2.7990  -19.8063  -39.0583 H         1 UNK         0.0600 
    162 H162       -3.2981  -21.1581  -40.0679 H         1 UNK         0.0600 
    163 H163       -3.9279  -19.5523  -40.3908 H         1 UNK         0.0600 
    164 H164       -2.1319  -17.8316  -40.4076 H         1 UNK         0.3000 
    165 H165       -1.6946  -15.8683  -41.6913 H         1 UNK         0.0600 
    166 H166        1.0194  -16.2444  -40.3122 H         1 UNK         0.0600 
    167 H167        0.1061  -14.7358  -40.3252 H         1 UNK         0.0600 
    168 H168       -0.5546  -16.1602  -39.5425 H         1 UNK         0.0600 
    169 H169       -0.7464  -15.1714  -43.5195 H         1 UNK         0.3000 
    170 H170        1.7332  -13.7867  -44.3457 H         1 UNK         0.0600 
    171 H171        3.6440  -15.2668  -44.7511 H         1 UNK         0.0600 
    172 H172        2.6377  -16.4360  -45.5890 H         1 UNK         0.0600 
    173 H173        2.9198  -14.8440  -46.2924 H         1 UNK         0.0600 
    174 H174       -0.0632  -13.8162  -45.5931 H         1 UNK         0.3000 
    175 H175       -1.3240  -15.2189  -47.8621 H         1 UNK         0.0600 
    176 H176       -2.8817  -16.9776  -45.8927 H         1 UNK         0.0600 
    177 H177       -3.4549  -16.4481  -47.4748 H         1 UNK         0.0600 
    178 H178       -2.0757  -17.5284  -47.3484 H         1 UNK         0.0600 
    179 H179       -2.4055  -13.5025  -46.9720 H         1 UNK         0.3000 
    180 H180       -4.3452  -12.7037  -44.8934 H         1 UNK         0.0600 
    181 H181       -2.0032  -12.3332  -42.9482 H         1 UNK         0.0600 
    182 H182       -3.5747  -13.0261  -42.5709 H         1 UNK         0.0600 
    183 H183       -3.4504  -11.3269  -42.9902 H         1 UNK         0.0600 
    184 H184       -3.4289  -11.0856  -46.0854 H         1 UNK         0.3000 
    185 H185       -2.1224   -9.6764  -47.0234 H         1 UNK         0.0600 
    186 H186       -0.6431   -8.6934  -45.2551 H         1 UNK         0.0600 
    187 H187        0.7480   -9.5051  -45.9630 H         1 UNK         0.0600 
    188 H188       -0.1094   -8.2601  -46.8715 H         1 UNK         0.0600 
    189 H189        0.3063  -10.2977  -48.2655 H         1 UNK         0.3000 
    190 H190        0.0243  -21.5780  -46.1402 H         1 UNK         0.3000 
    191 H191       -2.7405  -20.8068  -46.7961 H         1 UNK         0.0600 
    192 H192       -2.6349  -19.5887  -44.6608 H         1 UNK         0.0600 
    193 H193       -1.2305  -19.1922  -45.6378 H         1 UNK         0.0600 
    194 H194       -1.0727  -20.2996  -44.2821 H         1 UNK         0.0600 
    195 H195       -0.9398  -22.9038  -44.5117 H         1 UNK         0.3000 
    196 H196       -3.0959  -23.9795  -43.0876 H         1 UNK         0.0600 
    197 H197       -0.4337  -25.3333  -43.7679 H         1 UNK         0.0600 
    198 H198       -0.6704  -24.1771  -42.4582 H         1 UNK         0.0600 
    199 H199       -1.4906  -25.7313  -42.4218 H         1 UNK         0.0600 
    200 H200       -1.8149  -24.9452  -46.2412 H         1 UNK         0.3000 
    201 H201       -3.3997  -27.3168  -46.6148 H         1 UNK         0.0600 
    202 H202       -1.9426  -25.5008  -48.6080 H         1 UNK         0.0600 
    203 H203       -2.5606  -27.1129  -48.9566 H         1 UNK         0.0600 
    204 H204       -1.2568  -26.9088  -47.7996 H         1 UNK         0.0600 
    205 H205       -5.2213  -25.6857  -45.6333 H         1 UNK         0.3000 
    206 H206       -7.2516  -24.7956  -45.7842 H         1 UNK         0.0600 
    207 H207       -7.6866  -27.0370  -46.8281 H         1 UNK         0.0600 
    208 H208       -8.7971  -25.8160  -47.4230 H         1 UNK         0.0600 
    209 H209       -7.4503  -26.3355  -48.4284 H         1 UNK         0.0600 
    210 H210       -5.0936  -23.1959  -46.9669 H         1 UNK         0.3000 
    211 H211       -4.5490  -21.4579  -48.1743 H         1 UNK         0.0600 
    212 H212       -6.1739  -19.6203  -48.4382 H         1 UNK         0.0600 
    213 H213       -6.3808  -20.3716  -46.8659 H         1 UNK         0.0600 
    214 H214       -7.5200  -20.7176  -48.1673 H         1 UNK         0.0600 
    215 H215       -5.4809  -23.9876  -49.6891 H         1 UNK         0.3000 
    216 H216       -6.5137  -23.0704  -52.2178 H         1 UNK         0.0600 
    217 H217       -5.1380  -25.7064  -51.4639 H         1 UNK         0.0600 
    218 H218       -6.0529  -25.4043  -52.9361 H         1 UNK         0.0600 
    219 H219       -6.8684  -25.3863  -51.3788 H         1 UNK         0.0600 
    220 H220       -3.2629  -23.9976  -51.0467 H         1 UNK         0.3000 
    221 H221       -1.8924  -23.3585  -53.5090 H         1 UNK         0.0600 
    222 H222       -0.8939  -24.9804  -52.0261 H         1 UNK         0.0600 
    223 H223       -0.9450  -23.8762  -50.6618 H         1 UNK         0.0600 
    224 H224        0.1573  -23.5718  -52.0037 H         1 UNK         0.0600 
    225 H225       -2.7696  -21.5150  -50.6106 H         1 UNK         0.3000 
    226 H226       -1.2344  -19.1661  -51.1693 H         1 UNK         0.0600 
    227 H227       -3.8603  -19.4155  -49.6071 H         1 UNK         0.0600 
    228 H228       -2.2642  -19.6913  -48.9218 H         1 UNK         0.0600 
    229 H229       -2.7072  -18.0984  -49.5210 H         1 UNK         0.0600 
    230 H230       -4.4900  -20.2261  -52.1941 H         1 UNK         0.3000 
    231 H231       -5.1352  -17.7701  -53.5773 H         1 UNK         0.0600 
    232 H232       -6.3476  -20.5787  -53.7660 H         1 UNK         0.0600 
    233 H233       -7.0429  -19.1154  -54.4531 H         1 UNK         0.0600 
    234 H234       -6.8935  -19.2797  -52.7096 H         1 UNK         0.0600 
    235 H235       -3.8882  -20.9849  -54.5841 H         1 UNK         0.3000 
    236 H236       -3.8819  -20.3959  -57.3789 H         1 UNK         0.0600 
    237 H237       -4.0772  -22.6921  -56.5068 H         1 UNK         0.0600 
    238 H238       -2.6662  -22.5676  -57.5455 H         1 UNK         0.0600 
    239 H239       -2.4687  -22.6030  -55.7964 H         1 UNK         0.0600 
    240 H240       -1.1638  -20.5979  -55.0006 H         1 UNK         0.3000 
    241 H241        0.9677  -20.1760  -55.0875 H         1 UNK         0.0600 
    242 H242        1.4328  -22.0478  -58.3590 H         1 UNK         0.3800 
    243 H243        0.0722  -22.0519  -57.2683 H         1 UNK         0.3800 
    244 H244        0.0711  -17.7215  -56.6596 H         1 UNK         0.0800 
    245 H245        1.7220  -17.9300  -56.1533 H         1 UNK         0.0800 
    246 H246        2.2854  -18.7581  -53.5951 H         1 UNK         0.0800 
    247 H247        2.6481  -17.0915  -53.9682 H         1 UNK         0.0800 
@<TRIPOS>BOND
     1    1    2 1    
     2    1  127 1    
     3    1  128 1    
     4    1  129 1    
     5    2    3 2    
     6    2    4 am   BACKBONE|DICT|INTERRES
     7    4    5 1    
     8    4  130 1    
     9    5    6 1    
    10    5   65 1    
    11    5  131 1    
    12    6    7 1    
    13    6  132 1    
    14    6  133 1    
    15    7    8 1    
    16    8    9 1    
    17    8  134 1    
    18    8  135 1    
    19    9   10 ar   
    20    9   14 ar   
    21   10   11 ar   
    22   10  136 1    
    23   11   12 ar   
    24   11  126 1    
    25   12   13 ar   
    26   12  137 1    
    27   13   14 ar   
    28   13   15 1    
    29   14  138 1    
    30   15   16 1    
    31   15  139 1    
    32   15  140 1    
    33   16   17 1    
    34   17   18 1    
    35   17  141 1    
    36   17  142 1    
    37   18   19 1    
    38   18   67 1    
    39   18  143 1    
    40   19   20 am   BACKBONE|DICT|INTERRES
    41   19  144 1    
    42   20   21 2    
    43   20   22 1    
    44   22   23 1    
    45   22   24 1    
    46   22  145 1    
    47   23  146 1    
    48   23  147 1    
    49   23  148 1    
    50   24   25 am   BACKBONE|DICT|INTERRES
    51   24  149 1    
    52   25   26 2    
    53   25   27 1    
    54   27   28 1    
    55   27   29 1    
    56   27  150 1    
    57   28  151 1    
    58   28  152 1    
    59   28  153 1    
    60   29   30 am   BACKBONE|DICT|INTERRES
    61   29  154 1    
    62   30   31 2    
    63   30   32 1    
    64   32   33 1    
    65   32   34 1    
    66   32  155 1    
    67   33  156 1    
    68   33  157 1    
    69   33  158 1    
    70   34   35 am   BACKBONE|DICT|INTERRES
    71   34  159 1    
    72   35   36 2    
    73   35   37 1    
    74   37   38 1    
    75   37   39 1    
    76   37  160 1    
    77   38  161 1    
    78   38  162 1    
    79   38  163 1    
    80   39   40 am   BACKBONE|DICT|INTERRES
    81   39  164 1    
    82   40   41 2    
    83   40   42 1    
    84   42   43 1    
    85   42   44 1    
    86   42  165 1    
    87   43  166 1    
    88   43  167 1    
    89   43  168 1    
    90   44   45 am   BACKBONE|DICT|INTERRES
    91   44  169 1    
    92   45   46 2    
    93   45   47 1    
    94   47   48 1    
    95   47   49 1    
    96   47  170 1    
    97   48  171 1    
    98   48  172 1    
    99   48  173 1    
   100   49   50 am   BACKBONE|DICT|INTERRES
   101   49  174 1    
   102   50   51 2    
   103   50   52 1    
   104   52   53 1    
   105   52   54 1    
   106   52  175 1    
   107   53  176 1    
   108   53  177 1    
   109   53  178 1    
   110   54   55 am   BACKBONE|DICT|INTERRES
   111   54  179 1    
   112   55   56 2    
   113   55   57 1    
   114   57   58 1    
   115   57   59 1    
   116   57  180 1    
   117   58  181 1    
   118   58  182 1    
   119   58  183 1    
   120   59   60 am   BACKBONE|DICT|INTERRES
   121   59  184 1    
   122   60   61 2    
   123   60   62 1    
   124   62   63 1    
   125   62   64 1    
   126   62  185 1    
   127   63  186 1    
   128   63  187 1    
   129   63  188 1    
   130   64   65 am   BACKBONE|DICT|INTERRES
   131   64  189 1    
   132   65   66 2    
   133   67   68 2    
   134   67   69 am   BACKBONE|DICT|INTERRES
   135   69   70 1    
   136   69  190 1    
   137   70   71 1    
   138   70   72 1    
   139   70  191 1    
   140   71  192 1    
   141   71  193 1    
   142   71  194 1    
   143   72   73 2    
   144   72   74 am   BACKBONE|DICT|INTERRES
   145   74   75 1    
   146   74  195 1    
   147   75   76 1    
   148   75   77 1    
   149   75  196 1    
   150   76  197 1    
   151   76  198 1    
   152   76  199 1    
   153   77   78 2    
   154   77   79 am   BACKBONE|DICT|INTERRES
   155   79   80 1    
   156   79  200 1    
   157   80   81 1    
   158   80   82 1    
   159   80  201 1    
   160   81  202 1    
   161   81  203 1    
   162   81  204 1    
   163   82   83 2    
   164   82   84 am   BACKBONE|DICT|INTERRES
   165   84   85 1    
   166   84  205 1    
   167   85   86 1    
   168   85   87 1    
   169   85  206 1    
   170   86  207 1    
   171   86  208 1    
   172   86  209 1    
   173   87   88 2    
   174   87   89 am   BACKBONE|DICT|INTERRES
   175   89   90 1    
   176   89  210 1    
   177   90   91 1    
   178   90   92 1    
   179   90  211 1    
   180   91  212 1    
   181   91  213 1    
   182   91  214 1    
   183   92   93 2    
   184   92   94 am   BACKBONE|DICT|INTERRES
   185   94   95 1    
   186   94  215 1    
   187   95   96 1    
   188   95   97 1    
   189   95  216 1    
   190   96  217 1    
   191   96  218 1    
   192   96  219 1    
   193   97   98 2    
   194   97   99 am   BACKBONE|DICT|INTERRES
   195   99  100 1    
   196   99  220 1    
   197  100  101 1    
   198  100  102 1    
   199  100  221 1    
   200  101  222 1    
   201  101  223 1    
   202  101  224 1    
   203  102  103 2    
   204  102  104 am   BACKBONE|DICT|INTERRES
   205  104  105 1    
   206  104  225 1    
   207  105  106 1    
   208  105  107 1    
   209  105  226 1    
   210  106  227 1    
   211  106  228 1    
   212  106  229 1    
   213  107  108 2    
   214  107  109 am   BACKBONE|DICT|INTERRES
   215  109  110 1    
   216  109  230 1    
   217  110  111 1    
   218  110  112 1    
   219  110  231 1    
   220  111  232 1    
   221  111  233 1    
   222  111  234 1    
   223  112  113 2    
   224  112  114 am   BACKBONE|DICT|INTERRES
   225  114  115 1    
   226  114  235 1    
   227  115  116 1    
   228  115  117 1    
   229  115  236 1    
   230  116  237 1    
   231  116  238 1    
   232  116  239 1    
   233  117  118 2    
   234  117  119 am   BACKBONE|DICT|INTERRES
   235  119  120 1    
   236  119  240 1    
   237  120  121 1    
   238  120  124 1    
   239  120  241 1    
   240  121  122 am   BACKBONE|DICT|INTERRES
   241  121  123 2    
   242  122  242 1    
   243  122  243 1    
   244  124  125 1    
   245  124  244 1    
   246  124  245 1    
   247  125  126 1    
   248  126  246 1    
   249  126  247 1    
@<TRIPOS>SUBSTRUCTURE
     1 UNK         1 GROUP             0       ****    0 ROOT    
