@<TRIPOS>MOLECULE
3R540
247   249    1
SMALL
USER_CHARGES


@<TRIPOS>ATOM
      1 CA          4.0906  -15.6148  -47.3954 C.3       0 UNK        -0.1800 
      2 C           2.8976  -14.7934  -46.9310 C.2       0 UNK         0.5000 
      3 O           2.9330  -14.2211  -45.8439 O.2       0 UNK        -0.5000 
      4 N           1.8474  -14.7168  -47.7578 N.am      1 UNK        -0.5000 
      5 CA          0.5505  -14.0878  -47.4577 C.3       1 UNK         0.1400 
      6 C6         -0.4745  -14.2881  -48.6048 C.3       23 UNK        -0.0398 
      7 S7         -0.6231  -16.0258  -49.1395 S.3       23 UNK        -0.2404 
      8 C8          0.3706  -15.9950  -50.6635 C.3       23 UNK        -0.0205 
      9 C9          0.8296  -17.3912  -51.0411 C.ar      23 UNK        -0.0193 
     10 C10         0.3353  -18.0192  -52.1876 C.ar      23 UNK        -0.1150 
     11 C11         0.7534  -19.3112  -52.5262 C.ar      23 UNK        -0.0193 
     12 C12         1.6969  -19.9566  -51.7186 C.ar      23 UNK        -0.1150 
     13 C13         2.2091  -19.3313  -50.5768 C.ar      23 UNK        -0.0193 
     14 C14         1.7655  -18.0517  -50.2411 C.ar      23 UNK        -0.1150 
     15 C15         3.2790  -20.0107  -49.7338 C.3       23 UNK        -0.0205 
     16 S16         2.6970  -21.5508  -48.9650 S.3       23 UNK        -0.2404 
     17 C17         1.6509  -20.9447  -47.5959 C.3       23 UNK        -0.0398 
     18 CA          1.1819  -22.1255  -46.7093 C.3       11 UNK         0.1400 
     19 N           0.8622  -21.7288  -45.3364 N.am      11 UNK        -0.5000 
     20 C           0.7704  -22.5998  -44.3191 C.2       10 UNK         0.5000 
     21 O           1.0041  -23.8043  -44.4265 O.2       10 UNK        -0.5000 
     22 CA          0.3082  -22.0459  -42.9604 C.3       10 UNK         0.1400 
     23 CB          1.4792  -21.3927  -42.2115 C.3       10 UNK        -0.1800 
     24 N          -0.7961  -21.0958  -43.0890 N.am      10 UNK        -0.5000 
     25 C          -2.0145  -21.4097  -43.5520 C.2       9 UNK         0.5000 
     26 O          -2.3555  -22.5530  -43.8576 O.2       9 UNK        -0.5000 
     27 CA         -3.0110  -20.2497  -43.7349 C.3       9 UNK         0.1400 
     28 CB         -3.7390  -19.9487  -42.4167 C.3       9 UNK        -0.1800 
     29 N          -2.3937  -19.0227  -44.2415 N.am      9 UNK        -0.5000 
     30 C          -1.7655  -18.9014  -45.4207 C.2       8 UNK         0.5000 
     31 O          -1.6134  -19.8241  -46.2189 O.2       8 UNK        -0.5000 
     32 CA         -1.1424  -17.5288  -45.7261 C.3       8 UNK         0.1400 
     33 CB         -2.2401  -16.4921  -46.0240 C.3       8 UNK        -0.1800 
     34 N          -0.2854  -17.0725  -44.6294 N.am      8 UNK        -0.5000 
     35 C           0.8077  -17.7270  -44.2045 C.2       7 UNK         0.5000 
     36 O           1.2687  -18.7250  -44.7610 O.2       7 UNK        -0.5000 
     37 CA          1.4531  -17.2289  -42.8985 C.3       7 UNK         0.1400 
     38 CB          2.4793  -16.1186  -43.1632 C.3       7 UNK        -0.1800 
     39 N           0.4540  -16.7612  -41.9368 N.am      7 UNK        -0.5000 
     40 C          -0.3816  -17.5683  -41.2667 C.2       6 UNK         0.5000 
     41 O          -0.3657  -18.7941  -41.3603 O.2       6 UNK        -0.5000 
     42 CA         -1.4414  -16.8915  -40.3775 C.3       6 UNK         0.1400 
     43 CB         -0.8541  -16.5507  -38.9999 C.3       6 UNK        -0.1800 
     44 N          -1.9859  -15.6776  -40.9854 N.am      6 UNK        -0.5000 
     45 C          -2.7131  -15.6505  -42.1118 C.2       5 UNK         0.5000 
     46 O          -3.0801  -16.6629  -42.7057 O.2       5 UNK        -0.5000 
     47 CA         -3.0329  -14.2614  -42.7008 C.3       5 UNK         0.1400 
     48 CB         -4.4003  -13.7676  -42.2070 C.3       5 UNK        -0.1800 
     49 N          -2.0081  -13.2642  -42.3751 N.am      5 UNK        -0.5000 
     50 C          -0.7443  -13.3114  -42.8161 C.2       4 UNK         0.5000 
     51 O          -0.3312  -14.1490  -43.6224 O.2       4 UNK        -0.5000 
     52 CA          0.2336  -12.3312  -42.1568 C.3       4 UNK         0.1400 
     53 CB          0.6483  -12.8762  -40.7724 C.3       4 UNK        -0.1800 
     54 N           1.4054  -12.1588  -43.0097 N.am      4 UNK        -0.5000 
     55 C           2.3819  -11.2627  -42.8166 C.2       3 UNK         0.5000 
     56 O           2.3949  -10.4462  -41.8944 O.2       3 UNK        -0.5000 
     57 CA          3.5327  -11.2642  -43.8353 C.3       3 UNK         0.1400 
     58 CB          4.5038  -12.4243  -43.5630 C.3       3 UNK        -0.1800 
     59 N           3.0390  -11.3345  -45.2101 N.am      3 UNK        -0.5000 
     60 C           2.5068  -10.2901  -45.8644 C.2       2 UNK         0.5000 
     61 O           2.4101   -9.1626  -45.3776 O.2       2 UNK        -0.5000 
     62 CA          2.0078  -10.5204  -47.3051 C.3       2 UNK         0.1400 
     63 CB          3.0512  -10.0268  -48.3195 C.3       2 UNK        -0.1800 
     64 N           1.6937  -11.9173  -47.5966 N.am      2 UNK        -0.5000 
     65 C           0.6442  -12.5878  -47.1027 C.2       1 UNK         0.5000 
     66 O          -0.2201  -12.0737  -46.3927 O.2       1 UNK        -0.5000 
     67 C           0.0216  -22.9042  -47.3608 C.2       11 UNK         0.5000 
     68 O           0.2713  -23.9210  -48.0062 O.2       11 UNK        -0.5000 
     69 N          -1.2223  -22.4461  -47.1534 N.am      12 UNK        -0.5000 
     70 CA         -2.4563  -22.9811  -47.7395 C.3       12 UNK         0.1400 
     71 CB         -3.6597  -22.1982  -47.1941 C.3       12 UNK        -0.1800 
     72 C          -2.6930  -24.4868  -47.5393 C.2       12 UNK         0.5000 
     73 O          -3.3250  -25.1068  -48.3959 O.2       12 UNK        -0.5000 
     74 N          -2.1700  -25.0423  -46.4397 N.am      13 UNK        -0.5000 
     75 CA         -2.1991  -26.4704  -46.1272 C.3       13 UNK         0.1400 
     76 CB         -1.7183  -26.6672  -44.6815 C.3       13 UNK        -0.1800 
     77 C          -1.3620  -27.3321  -47.0959 C.2       13 UNK         0.5000 
     78 O          -1.6926  -28.5017  -47.2945 O.2       13 UNK        -0.5000 
     79 N          -0.3055  -26.7480  -47.6767 N.am      14 UNK        -0.5000 
     80 CA          0.5861  -27.3919  -48.6416 C.3       14 UNK         0.1400 
     81 CB          2.0425  -27.1168  -48.2346 C.3       14 UNK        -0.1800 
     82 C           0.3251  -26.8832  -50.0690 C.2       14 UNK         0.5000 
     83 O           0.3481  -27.6758  -51.0109 O.2       14 UNK        -0.5000 
     84 N           0.0782  -25.5734  -50.2046 N.am      15 UNK        -0.5000 
     85 CA         -0.1532  -24.8801  -51.4718 C.3       15 UNK         0.1400 
     86 CB          0.0533  -23.3728  -51.2583 C.3       15 UNK        -0.1800 
     87 C          -1.5396  -25.1415  -52.0854 C.2       15 UNK         0.5000 
     88 O          -1.7123  -24.8629  -53.2692 O.2       15 UNK        -0.5000 
     89 N          -2.4827  -25.6576  -51.2828 N.am      16 UNK        -0.5000 
     90 CA         -3.8861  -25.9273  -51.6029 C.3       16 UNK         0.1400 
     91 CB         -4.0315  -26.9141  -52.7806 C.3       16 UNK        -0.1800 
     92 C          -4.6754  -24.6200  -51.8005 C.2       16 UNK         0.5000 
     93 O          -4.9496  -24.2186  -52.9338 O.2       16 UNK        -0.5000 
     94 N          -5.0197  -23.9934  -50.6662 N.am      17 UNK        -0.5000 
     95 CA         -5.8096  -22.7648  -50.5306 C.3       17 UNK         0.1400 
     96 CB         -7.2230  -22.9310  -51.1280 C.3       17 UNK        -0.1800 
     97 C          -5.0656  -21.5361  -51.0828 C.2       17 UNK         0.5000 
     98 O          -5.4158  -21.0149  -52.1426 O.2       17 UNK        -0.5000 
     99 N          -4.0394  -21.0989  -50.3464 N.am      18 UNK        -0.5000 
    100 CA        -3.3222  -19.8511  -50.5939 C.3       18 UNK         0.1400 
    101 CB        -1.8781  -19.9930  -50.0902 C.3       18 UNK        -0.1800 
    102 C         -4.0219  -18.6900  -49.8579 C.2       18 UNK         0.5000 
    103 O         -4.4749  -18.8955  -48.7324 O.2       18 UNK        -0.5000 
    104 N         -4.1153  -17.4781  -50.4232 N.am      19 UNK        -0.5000 
    105 CA        -3.7712  -17.0765  -51.7938 C.3       19 UNK         0.1400 
    106 CB        -3.4353  -15.5757  -51.7772 C.3       19 UNK        -0.1800 
    107 C         -4.9240  -17.3305  -52.7923 C.2       19 UNK         0.5000 
    108 O         -4.7684  -17.0341  -53.9767 O.2       19 UNK        -0.5000 
    109 N         -6.0709  -17.8071  -52.2846 N.am      20 UNK        -0.5000 
    110 CA        -7.3650  -17.9042  -52.9637 C.3       20 UNK         0.1400 
    111 CB        -8.3865  -18.5144  -51.9909 C.3       20 UNK        -0.1800 
    112 C         -7.3700  -18.6800  -54.2933 C.2       20 UNK         0.5000 
    113 O         -8.0640  -18.2639  -55.2228 O.2       20 UNK        -0.5000 
    114 N         -6.6180  -19.7832  -54.3591 N.am      21 UNK        -0.5000 
    115 CA        -6.5250  -20.6455  -55.5334 C.3       21 UNK         0.1400 
    116 CB        -7.4032  -21.8918  -55.3324 C.3       21 UNK        -0.1800 
    117 C         -5.0739  -21.0400  -55.8316 C.2       21 UNK         0.5000 
    118 O         -4.6523  -20.9224  -56.9833 O.2       21 UNK        -0.5000 
    119 N         -4.3463  -21.5111  -54.8081 N.am      22 UNK        -0.5000 
    120 CA        -3.0162  -22.1383  -54.9271 C.3       22 UNK         0.1400 
    121 C         -3.0371  -23.3864  -55.8640 C.2       22 UNK         0.5000 
    122 N         -3.9543  -24.3184  -55.6386 N.am      22 UNK        -0.7600 
    123 O         -2.2515  -23.5084  -56.8016 O.2       22 UNK        -0.5000 
    124 C124       -1.8904  -21.1235  -55.2747 C.3       23 UNK        -0.0398 
    125 S125       -1.5944  -19.9426  -53.9159 S.3       23 UNK        -0.2404 
    126 C126        0.2238  -20.0038  -53.7776 C.3       23 UNK        -0.0205 
    127 H127        4.2326  -16.4702  -46.7349 H         1 UNK         0.0600 
    128 H128        4.9958  -15.0084  -47.3697 H         1 UNK         0.0600 
    129 H129        3.9581  -15.9861  -48.4118 H         1 UNK         0.0600 
    130 H130        1.8819  -15.2136  -48.6346 H         1 UNK         0.3000 
    131 H131        0.1742  -14.5896  -46.5653 H         1 UNK         0.0600 
    132 H132       -1.4643  -13.9595  -48.2828 H         1 UNK         0.0800 
    133 H133       -0.2207  -13.6689  -49.4674 H         1 UNK         0.0800 
    134 H134       -0.2156  -15.5454  -51.4661 H         1 UNK         0.0800 
    135 H135        1.2489  -15.3620  -50.5335 H         1 UNK         0.0800 
    136 H136       -0.3816  -17.5073  -52.8137 H         1 UNK         0.1150 
    137 H137        2.0446  -20.9461  -51.9801 H         1 UNK         0.1150 
    138 H138        2.1531  -17.5635  -49.3586 H         1 UNK         0.1150 
    139 H139        4.1290  -20.2440  -50.3764 H         1 UNK         0.0800 
    140 H140        3.6581  -19.3414  -48.9599 H         1 UNK         0.0800 
    141 H141        0.8103  -20.3688  -47.9890 H         1 UNK         0.0800 
    142 H142        2.2488  -20.2487  -47.0056 H         1 UNK         0.0800 
    143 H143        2.0194  -22.8229  -46.6295 H         1 UNK         0.0600 
    144 H144        0.6751  -20.7460  -45.1696 H         1 UNK         0.3000 
    145 H145       -0.0465  -22.8880  -42.3624 H         1 UNK         0.0600 
    146 H146        1.1797  -21.0722  -41.2137 H         1 UNK         0.0600 
    147 H147        2.3057  -22.0943  -42.0920 H         1 UNK         0.0600 
    148 H148        1.8625  -20.5222  -42.7434 H         1 UNK         0.0600 
    149 H149       -0.6190  -20.1458  -42.7782 H         1 UNK         0.3000 
    150 H150       -3.7561  -20.5645  -44.4672 H         1 UNK         0.0600 
    151 H151       -4.2347  -20.8404  -42.0310 H         1 UNK         0.0600 
    152 H152       -4.5044  -19.1847  -42.5546 H         1 UNK         0.0600 
    153 H153       -3.0503  -19.5965  -41.6485 H         1 UNK         0.0600 
    154 H154       -2.4921  -18.1965  -43.6571 H         1 UNK         0.3000 
    155 H155       -0.5133  -17.6306  -46.6124 H         1 UNK         0.0600 
    156 H156       -2.7506  -16.7373  -46.9562 H         1 UNK         0.0600 
    157 H157       -1.8362  -15.4874  -46.1286 H         1 UNK         0.0600 
    158 H158       -3.0014  -16.4577  -45.2471 H         1 UNK         0.0600 
    159 H159       -0.5649  -16.2307  -44.1407 H         1 UNK         0.3000 
    160 H160        1.9857  -18.0715  -42.4528 H         1 UNK         0.0600 
    161 H161        2.0126  -15.2256  -43.5750 H         1 UNK         0.0600 
    162 H162        3.2366  -16.4478  -43.8759 H         1 UNK         0.0600 
    163 H163        2.9965  -15.8317  -42.2476 H         1 UNK         0.0600 
    164 H164        0.3439  -15.7626  -41.8501 H         1 UNK         0.3000 
    165 H165       -2.2613  -17.5987  -40.2360 H         1 UNK         0.0600 
    166 H166       -1.6152  -16.1366  -38.3384 H         1 UNK         0.0600 
    167 H167       -0.4545  -17.4427  -38.5155 H         1 UNK         0.0600 
    168 H168       -0.0424  -15.8258  -39.0739 H         1 UNK         0.0600 
    169 H169       -1.7487  -14.8018  -40.5455 H         1 UNK         0.3000 
    170 H170       -3.0757  -14.3629  -43.7872 H         1 UNK         0.0600 
    171 H171       -5.1860  -14.4818  -42.4575 H         1 UNK         0.0600 
    172 H172       -4.4138  -13.6305  -41.1250 H         1 UNK         0.0600 
    173 H173       -4.6672  -12.8174  -42.6701 H         1 UNK         0.0600 
    174 H174       -2.2727  -12.5478  -41.7139 H         1 UNK         0.3000 
    175 H175       -0.2636  -11.3658  -42.0437 H         1 UNK         0.0600 
    176 H176        1.2024  -13.8117  -40.8595 H         1 UNK         0.0600 
    177 H177        1.2767  -12.1697  -40.2310 H         1 UNK         0.0600 
    178 H178       -0.2207  -13.0651  -40.1414 H         1 UNK         0.0600 
    179 H179        1.4418  -12.7828  -43.8071 H         1 UNK         0.3000 
    180 H180        4.0908  -10.3329  -43.7154 H         1 UNK         0.0600 
    181 H181        4.0036  -13.3922  -43.5972 H         1 UNK         0.0600 
    182 H182        4.9536  -12.3275  -42.5742 H         1 UNK         0.0600 
    183 H183        5.3154  -12.4402  -44.2904 H         1 UNK         0.0600 
    184 H184        3.0476  -12.2511  -45.6471 H         1 UNK         0.3000 
    185 H185        1.0982   -9.9303  -47.4359 H         1 UNK         0.0600 
    186 H186        3.2901   -8.9753  -48.1545 H         1 UNK         0.0600 
    187 H187        3.9821  -10.5904  -48.2454 H         1 UNK         0.0600 
    188 H188        2.6826  -10.1179  -49.3414 H         1 UNK         0.0600 
    189 H189        2.3587  -12.4234  -48.1629 H         1 UNK         0.3000 
    190 H190       -1.3269  -21.5767  -46.6326 H         1 UNK         0.3000 
    191 H191       -2.3904  -22.8161  -48.8154 H         1 UNK         0.0600 
    192 H192       -3.7372  -22.2989  -46.1127 H         1 UNK         0.0600 
    193 H193       -4.5971  -22.5649  -47.6100 H         1 UNK         0.0600 
    194 H194       -3.5902  -21.1357  -47.4235 H         1 UNK         0.0600 
    195 H195       -1.6846  -24.4418  -45.7870 H         1 UNK         0.3000 
    196 H196       -3.2349  -26.8094  -46.1947 H         1 UNK         0.0600 
    197 H197       -1.7504  -27.7199  -44.3975 H         1 UNK         0.0600 
    198 H198       -2.3482  -26.1213  -43.9787 H         1 UNK         0.0600 
    199 H199       -0.6921  -26.3211  -44.5496 H         1 UNK         0.0600 
    200 H200       -0.1286  -25.7658  -47.4915 H         1 UNK         0.3000 
    201 H201        0.4355  -28.4734  -48.6404 H         1 UNK         0.0600 
    202 H202        2.2564  -27.5219  -47.2455 H         1 UNK         0.0600 
    203 H203        2.2614  -26.0482  -48.2121 H         1 UNK         0.0600 
    204 H204        2.7385  -27.5812  -48.9343 H         1 UNK         0.0600 
    205 H205        0.1233  -24.9808  -49.3768 H         1 UNK         0.3000 
    206 H206        0.5908  -25.2259  -52.1923 H         1 UNK         0.0600 
    207 H207        1.0697  -23.1591  -50.9296 H         1 UNK         0.0600 
    208 H208       -0.1147  -22.8146  -52.1799 H         1 UNK         0.0600 
    209 H209       -0.6312  -22.9795  -50.5078 H         1 UNK         0.0600 
    210 H210       -2.2340  -25.8049  -50.3136 H         1 UNK         0.3000 
    211 H211       -4.3054  -26.4241  -50.7264 H         1 UNK         0.0600 
    212 H212       -3.6605  -26.5022  -53.7186 H         1 UNK         0.0600 
    213 H213       -5.0788  -27.1749  -52.9364 H         1 UNK         0.0600 
    214 H214       -3.4906  -27.8400  -52.5857 H         1 UNK         0.0600 
    215 H215       -4.6885  -24.4025  -49.7987 H         1 UNK         0.3000 
    216 H216       -5.9461  -22.5976  -49.4624 H         1 UNK         0.0600 
    217 H217       -7.8243  -22.0380  -50.9541 H         1 UNK         0.0600 
    218 H218       -7.7470  -23.7697  -50.6700 H         1 UNK         0.0600 
    219 H219       -7.2017  -23.0997  -52.2038 H         1 UNK         0.0600 
    220 H220       -3.8568  -21.5371  -49.4582 H         1 UNK         0.3000 
    221 H221       -3.3048  -19.6746  -51.6665 H         1 UNK         0.0600 
    222 H222       -1.8362  -20.2727  -49.0377 H         1 UNK         0.0600 
    223 H223       -1.3304  -20.7383  -50.6649 H         1 UNK         0.0600 
    224 H224       -1.3405  -19.0508  -50.1884 H         1 UNK         0.0600 
    225 H225       -4.5407  -16.7482  -49.8713 H         1 UNK         0.3000 
    226 H226       -2.8818  -17.6050  -52.1380 H         1 UNK         0.0600 
    227 H227       -2.6566  -15.3466  -51.0530 H         1 UNK         0.0600 
    228 H228       -3.0749  -15.2438  -52.7517 H         1 UNK         0.0600 
    229 H229       -4.3071  -14.9700  -51.5262 H         1 UNK         0.0600 
    230 H230       -6.0814  -18.0203  -51.2986 H         1 UNK         0.3000 
    231 H231       -7.6807  -16.8834  -53.1879 H         1 UNK         0.0600 
    232 H232       -9.3727  -18.5866  -52.4516 H         1 UNK         0.0600 
    233 H233       -8.4931  -17.9045  -51.0936 H         1 UNK         0.0600 
    234 H234       -8.0939  -19.5190  -51.6825 H         1 UNK         0.0600 
    235 H235       -6.0885  -20.0697  -53.5378 H         1 UNK         0.3000 
    236 H236       -6.8904  -20.1169  -56.4164 H         1 UNK         0.0600 
    237 H237       -7.0807  -22.4753  -54.4701 H         1 UNK         0.0600 
    238 H238       -8.4477  -21.6188  -55.1817 H         1 UNK         0.0600 
    239 H239       -7.3582  -22.5450  -56.2047 H         1 UNK         0.0600 
    240 H240       -4.7723  -21.5665  -53.8887 H         1 UNK         0.3000 
    241 H241       -2.7888  -22.5361  -53.9378 H         1 UNK         0.0600 
    242 H242       -3.9957  -25.1338  -56.2270 H         1 UNK         0.3800 
    243 H243       -4.5150  -24.2684  -54.7914 H         1 UNK         0.3800 
    244 H244       -0.9594  -21.6530  -55.4813 H         1 UNK         0.0800 
    245 H245       -2.1267  -20.5692  -56.1833 H         1 UNK         0.0800 
    246 H246        0.6651  -19.5328  -54.6567 H         1 UNK         0.0800 
    247 H247        0.5438  -21.0466  -53.7881 H         1 UNK         0.0800 
@<TRIPOS>BOND
     1    1    2 1    
     2    1  127 1    
     3    1  128 1    
     4    1  129 1    
     5    2    3 2    
     6    2    4 am   BACKBONE|DICT|INTERRES
     7    4    5 1    
     8    4  130 1    
     9    5    6 1    
    10    5   65 1    
    11    5  131 1    
    12    6    7 1    
    13    6  132 1    
    14    6  133 1    
    15    7    8 1    
    16    8    9 1    
    17    8  134 1    
    18    8  135 1    
    19    9   10 ar   
    20    9   14 ar   
    21   10   11 ar   
    22   10  136 1    
    23   11   12 ar   
    24   11  126 1    
    25   12   13 ar   
    26   12  137 1    
    27   13   14 ar   
    28   13   15 1    
    29   14  138 1    
    30   15   16 1    
    31   15  139 1    
    32   15  140 1    
    33   16   17 1    
    34   17   18 1    
    35   17  141 1    
    36   17  142 1    
    37   18   19 1    
    38   18   67 1    
    39   18  143 1    
    40   19   20 am   BACKBONE|DICT|INTERRES
    41   19  144 1    
    42   20   21 2    
    43   20   22 1    
    44   22   23 1    
    45   22   24 1    
    46   22  145 1    
    47   23  146 1    
    48   23  147 1    
    49   23  148 1    
    50   24   25 am   BACKBONE|DICT|INTERRES
    51   24  149 1    
    52   25   26 2    
    53   25   27 1    
    54   27   28 1    
    55   27   29 1    
    56   27  150 1    
    57   28  151 1    
    58   28  152 1    
    59   28  153 1    
    60   29   30 am   BACKBONE|DICT|INTERRES
    61   29  154 1    
    62   30   31 2    
    63   30   32 1    
    64   32   33 1    
    65   32   34 1    
    66   32  155 1    
    67   33  156 1    
    68   33  157 1    
    69   33  158 1    
    70   34   35 am   BACKBONE|DICT|INTERRES
    71   34  159 1    
    72   35   36 2    
    73   35   37 1    
    74   37   38 1    
    75   37   39 1    
    76   37  160 1    
    77   38  161 1    
    78   38  162 1    
    79   38  163 1    
    80   39   40 am   BACKBONE|DICT|INTERRES
    81   39  164 1    
    82   40   41 2    
    83   40   42 1    
    84   42   43 1    
    85   42   44 1    
    86   42  165 1    
    87   43  166 1    
    88   43  167 1    
    89   43  168 1    
    90   44   45 am   BACKBONE|DICT|INTERRES
    91   44  169 1    
    92   45   46 2    
    93   45   47 1    
    94   47   48 1    
    95   47   49 1    
    96   47  170 1    
    97   48  171 1    
    98   48  172 1    
    99   48  173 1    
   100   49   50 am   BACKBONE|DICT|INTERRES
   101   49  174 1    
   102   50   51 2    
   103   50   52 1    
   104   52   53 1    
   105   52   54 1    
   106   52  175 1    
   107   53  176 1    
   108   53  177 1    
   109   53  178 1    
   110   54   55 am   BACKBONE|DICT|INTERRES
   111   54  179 1    
   112   55   56 2    
   113   55   57 1    
   114   57   58 1    
   115   57   59 1    
   116   57  180 1    
   117   58  181 1    
   118   58  182 1    
   119   58  183 1    
   120   59   60 am   BACKBONE|DICT|INTERRES
   121   59  184 1    
   122   60   61 2    
   123   60   62 1    
   124   62   63 1    
   125   62   64 1    
   126   62  185 1    
   127   63  186 1    
   128   63  187 1    
   129   63  188 1    
   130   64   65 am   BACKBONE|DICT|INTERRES
   131   64  189 1    
   132   65   66 2    
   133   67   68 2    
   134   67   69 am   BACKBONE|DICT|INTERRES
   135   69   70 1    
   136   69  190 1    
   137   70   71 1    
   138   70   72 1    
   139   70  191 1    
   140   71  192 1    
   141   71  193 1    
   142   71  194 1    
   143   72   73 2    
   144   72   74 am   BACKBONE|DICT|INTERRES
   145   74   75 1    
   146   74  195 1    
   147   75   76 1    
   148   75   77 1    
   149   75  196 1    
   150   76  197 1    
   151   76  198 1    
   152   76  199 1    
   153   77   78 2    
   154   77   79 am   BACKBONE|DICT|INTERRES
   155   79   80 1    
   156   79  200 1    
   157   80   81 1    
   158   80   82 1    
   159   80  201 1    
   160   81  202 1    
   161   81  203 1    
   162   81  204 1    
   163   82   83 2    
   164   82   84 am   BACKBONE|DICT|INTERRES
   165   84   85 1    
   166   84  205 1    
   167   85   86 1    
   168   85   87 1    
   169   85  206 1    
   170   86  207 1    
   171   86  208 1    
   172   86  209 1    
   173   87   88 2    
   174   87   89 am   BACKBONE|DICT|INTERRES
   175   89   90 1    
   176   89  210 1    
   177   90   91 1    
   178   90   92 1    
   179   90  211 1    
   180   91  212 1    
   181   91  213 1    
   182   91  214 1    
   183   92   93 2    
   184   92   94 am   BACKBONE|DICT|INTERRES
   185   94   95 1    
   186   94  215 1    
   187   95   96 1    
   188   95   97 1    
   189   95  216 1    
   190   96  217 1    
   191   96  218 1    
   192   96  219 1    
   193   97   98 2    
   194   97   99 am   BACKBONE|DICT|INTERRES
   195   99  100 1    
   196   99  220 1    
   197  100  101 1    
   198  100  102 1    
   199  100  221 1    
   200  101  222 1    
   201  101  223 1    
   202  101  224 1    
   203  102  103 2    
   204  102  104 am   BACKBONE|DICT|INTERRES
   205  104  105 1    
   206  104  225 1    
   207  105  106 1    
   208  105  107 1    
   209  105  226 1    
   210  106  227 1    
   211  106  228 1    
   212  106  229 1    
   213  107  108 2    
   214  107  109 am   BACKBONE|DICT|INTERRES
   215  109  110 1    
   216  109  230 1    
   217  110  111 1    
   218  110  112 1    
   219  110  231 1    
   220  111  232 1    
   221  111  233 1    
   222  111  234 1    
   223  112  113 2    
   224  112  114 am   BACKBONE|DICT|INTERRES
   225  114  115 1    
   226  114  235 1    
   227  115  116 1    
   228  115  117 1    
   229  115  236 1    
   230  116  237 1    
   231  116  238 1    
   232  116  239 1    
   233  117  118 2    
   234  117  119 am   BACKBONE|DICT|INTERRES
   235  119  120 1    
   236  119  240 1    
   237  120  121 1    
   238  120  124 1    
   239  120  241 1    
   240  121  122 am   BACKBONE|DICT|INTERRES
   241  121  123 2    
   242  122  242 1    
   243  122  243 1    
   244  124  125 1    
   245  124  244 1    
   246  124  245 1    
   247  125  126 1    
   248  126  246 1    
   249  126  247 1    
@<TRIPOS>SUBSTRUCTURE
     1 UNK         1 GROUP             0       ****    0 ROOT    
