@<TRIPOS>MOLECULE
3R540
247   249    1
SMALL
USER_CHARGES


@<TRIPOS>ATOM
      1 CA         -4.2675  -18.3905  -45.8315 C.3       0 UNK        -0.1800 
      2 C          -4.0458  -16.8902  -45.9610 C.2       0 UNK         0.5000 
      3 O          -4.6120  -16.1203  -45.1855 O.2       0 UNK        -0.5000 
      4 N          -3.2418  -16.4727  -46.9466 N.am      1 UNK        -0.5000 
      5 CA         -2.9321  -15.0706  -47.2435 C.3       1 UNK         0.1400 
      6 C6         -2.2828  -14.9026  -48.6375 C.3       23 UNK        -0.0398 
      7 S7         -3.3918  -15.4832  -49.9674 S.3       23 UNK        -0.2404 
      8 C8         -2.3952  -15.1207  -51.4539 C.3       23 UNK        -0.0205 
      9 C9         -1.2547  -16.0937  -51.7678 C.ar      23 UNK        -0.0193 
     10 C10        -0.5060  -15.8652  -52.9259 C.ar      23 UNK        -0.1150 
     11 C11         0.5685  -16.6905  -53.2677 C.ar      23 UNK        -0.0193 
     12 C12         0.9178  -17.7386  -52.4122 C.ar      23 UNK        -0.1150 
     13 C13         0.1659  -18.0088  -51.2679 C.ar      23 UNK        -0.0193 
     14 C14        -0.9280  -17.1925  -50.9601 C.ar      23 UNK        -0.1150 
     15 C15         0.5382  -19.2041  -50.3994 C.3       23 UNK        -0.0205 
     16 S16         0.6059  -18.8123  -48.6233 S.3       23 UNK        -0.2404 
     17 C17        -0.9383  -19.5702  -48.0095 C.3       23 UNK        -0.0398 
     18 CA         -0.7441  -21.0567  -47.6272 C.3       11 UNK         0.1400 
     19 N           0.2388  -21.2449  -46.5560 N.am      11 UNK        -0.5000 
     20 C           0.7843  -22.4240  -46.2313 C.2       10 UNK         0.5000 
     21 O           0.5106  -23.4781  -46.8040 O.2       10 UNK        -0.5000 
     22 CA          1.7662  -22.4402  -45.0463 C.3       10 UNK         0.1400 
     23 CB          3.1422  -21.8989  -45.4619 C.3       10 UNK        -0.1800 
     24 N           1.2667  -21.6957  -43.8899 N.am      10 UNK        -0.5000 
     25 C           0.1822  -22.0413  -43.1816 C.2       9 UNK         0.5000 
     26 O          -0.4942  -23.0438  -43.4150 O.2       9 UNK        -0.5000 
     27 CA         -0.2448  -21.0879  -42.0487 C.3       9 UNK         0.1400 
     28 CB          0.6187  -21.3011  -40.7967 C.3       9 UNK        -0.1800 
     29 N          -0.2033  -19.6783  -42.4406 N.am      9 UNK        -0.5000 
     30 C          -0.9345  -19.1483  -43.4322 C.2       8 UNK         0.5000 
     31 O          -1.7453  -19.7840  -44.1009 O.2       8 UNK        -0.5000 
     32 CA         -0.6690  -17.6782  -43.7876 C.3       8 UNK         0.1400 
     33 CB         -1.3616  -16.7413  -42.7884 C.3       8 UNK        -0.1800 
     34 N           0.7579  -17.3704  -43.8567 N.am      8 UNK        -0.5000 
     35 C           1.6265  -17.9735  -44.6803 C.2       7 UNK         0.5000 
     36 O           1.3146  -18.8545  -45.4771 O.2       7 UNK        -0.5000 
     37 CA          3.1049  -17.5847  -44.5360 C.3       7 UNK         0.1400 
     38 CB          3.3855  -16.2196  -45.1812 C.3       7 UNK        -0.1800 
     39 N           3.5233  -17.5792  -43.1348 N.am      7 UNK        -0.5000 
     40 C           3.5947  -18.6754  -42.3650 C.2       6 UNK         0.5000 
     41 O           3.3603  -19.8146  -42.7689 O.2       6 UNK        -0.5000 
     42 CA          3.9549  -18.4543  -40.8853 C.3       6 UNK         0.1400 
     43 CB          5.4785  -18.3931  -40.7017 C.3       6 UNK        -0.1800 
     44 N           3.3507  -17.2382  -40.3388 N.am      6 UNK        -0.5000 
     45 C           2.0365  -17.0754  -40.1308 C.2       5 UNK         0.5000 
     46 O           1.1929  -17.9439  -40.3573 O.2       5 UNK        -0.5000 
     47 CA          1.5938  -15.6846  -39.6359 C.3       5 UNK         0.1400 
     48 CB          1.8252  -15.5439  -38.1238 C.3       5 UNK        -0.1800 
     49 N           2.2648  -14.5853  -40.3413 N.am      5 UNK        -0.5000 
     50 C           2.1305  -14.3560  -41.6531 C.2       4 UNK         0.5000 
     51 O           1.4389  -15.0600  -42.3941 O.2       4 UNK        -0.5000 
     52 CA          2.9062  -13.1750  -42.2550 C.3       4 UNK         0.1400 
     53 CB          4.3976  -13.5254  -42.4178 C.3       4 UNK        -0.1800 
     54 N           2.2927  -12.9051  -43.5487 N.am      4 UNK        -0.5000 
     55 C           2.4909  -11.8762  -44.3773 C.2       3 UNK         0.5000 
     56 O           3.2990  -10.9694  -44.1762 O.2       3 UNK        -0.5000 
     57 CA          1.6013  -11.8553  -45.6379 C.3       3 UNK         0.1400 
     58 CB          2.2774  -12.6094  -46.7931 C.3       3 UNK        -0.1800 
     59 N           0.2827  -12.4464  -45.3883 N.am      3 UNK        -0.5000 
     60 C          -0.6851  -11.8659  -44.6687 C.2       2 UNK         0.5000 
     61 O          -0.6128  -10.7070  -44.2555 O.2       2 UNK        -0.5000 
     62 CA         -1.9244  -12.7293  -44.3437 C.3       2 UNK         0.1400 
     63 CB         -3.0259  -11.9368  -43.6163 C.3       2 UNK        -0.1800 
     64 N          -2.5195  -13.3850  -45.5110 N.am      2 UNK        -0.5000 
     65 C          -2.0430  -14.4677  -46.1378 C.2       1 UNK         0.5000 
     66 O          -0.9554  -14.9858  -45.8770 O.2       1 UNK        -0.5000 
     67 C          -2.0902  -21.7384  -47.3019 C.2       11 UNK         0.5000 
     68 O          -2.7180  -22.2970  -48.2056 O.2       11 UNK        -0.5000 
     69 N          -2.4941  -21.7252  -46.0225 N.am      12 UNK        -0.5000 
     70 CA         -3.6662  -22.4392  -45.5164 C.3       12 UNK         0.1400 
     71 CB         -3.9632  -22.0328  -44.0657 C.3       12 UNK        -0.1800 
     72 C          -3.5269  -23.9656  -45.6351 C.2       12 UNK         0.5000 
     73 O          -4.4797  -24.6314  -46.0400 O.2       12 UNK        -0.5000 
     74 N          -2.3347  -24.4855  -45.3119 N.am      13 UNK        -0.5000 
     75 CA         -1.9826  -25.8958  -45.4738 C.3       13 UNK         0.1400 
     76 CB         -0.6573  -26.1811  -44.7512 C.3       13 UNK        -0.1800 
     77 C          -1.9064  -26.3225  -46.9523 C.2       13 UNK         0.5000 
     78 O          -2.2942  -27.4462  -47.2748 O.2       13 UNK        -0.5000 
     79 N          -1.4191  -25.4224  -47.8190 N.am      14 UNK        -0.5000 
     80 CA         -1.3069  -25.6307  -49.2614 C.3       14 UNK         0.1400 
     81 CB         -0.4494  -24.5220  -49.8884 C.3       14 UNK        -0.1800 
     82 C          -2.6730  -25.7422  -49.9619 C.2       14 UNK         0.5000 
     83 O          -2.8747  -26.6981  -50.7126 O.2       14 UNK        -0.5000 
     84 N          -3.5875  -24.7960  -49.6958 N.am      15 UNK        -0.5000 
     85 CA         -4.9534  -24.8218  -50.2360 C.3       15 UNK         0.1400 
     86 CB         -4.9620  -24.5273  -51.7515 C.3       15 UNK        -0.1800 
     87 C          -5.9275  -23.8598  -49.5368 C.2       15 UNK         0.5000 
     88 O          -7.1312  -24.1139  -49.5892 O.2       15 UNK        -0.5000 
     89 N          -5.4245  -22.7598  -48.9500 N.am      16 UNK        -0.5000 
     90 CA         -6.2028  -21.6429  -48.3861 C.3       16 UNK         0.1400 
     91 CB         -7.0920  -22.1142  -47.2111 C.3       16 UNK        -0.1800 
     92 C          -7.0225  -20.8752  -49.4504 C.2       16 UNK         0.5000 
     93 O          -8.0639  -20.3024  -49.1246 O.2       16 UNK        -0.5000 
     94 N          -6.5520  -20.8899  -50.7049 N.am      17 UNK        -0.5000 
     95 CA         -7.2932  -20.4271  -51.8787 C.3       17 UNK         0.1400 
     96 CB         -8.0019  -21.6293  -52.5309 C.3       17 UNK        -0.1800 
     97 C          -6.3939  -19.6328  -52.8424 C.2       17 UNK         0.5000 
     98 O          -6.4842  -19.8049  -54.0594 O.2       17 UNK        -0.5000 
     99 N          -5.5511  -18.7615  -52.2678 N.am      18 UNK        -0.5000 
    100 CA        -4.7185  -17.7484  -52.9274 C.3       18 UNK         0.1400 
    101 CB        -5.5930  -16.5563  -53.3714 C.3       18 UNK        -0.1800 
    102 C         -3.8390  -18.3186  -54.0562 C.2       18 UNK         0.5000 
    103 O         -2.8449  -18.9786  -53.7627 O.2       18 UNK        -0.5000 
    104 N         -4.2245  -18.0973  -55.3202 N.am      19 UNK        -0.5000 
    105 CA        -3.5364  -18.5983  -56.5128 C.3       19 UNK         0.1400 
    106 CB        -4.2582  -18.0819  -57.7658 C.3       19 UNK        -0.1800 
    107 C         -3.4037  -20.1337  -56.5606 C.2       19 UNK         0.5000 
    108 O         -2.3943  -20.6355  -57.0568 O.2       19 UNK        -0.5000 
    109 N         -4.3900  -20.8525  -56.0050 N.am      20 UNK        -0.5000 
    110 CA        -4.3631  -22.3113  -55.8820 C.3       20 UNK         0.1400 
    111 CB        -5.7879  -22.8297  -55.6470 C.3       20 UNK        -0.1800 
    112 C         -3.4111  -22.8012  -54.7733 C.2       20 UNK         0.5000 
    113 O         -2.9242  -23.9286  -54.8582 O.2       20 UNK        -0.5000 
    114 N         -3.1475  -21.9517  -53.7691 N.am      21 UNK        -0.5000 
    115 CA        -2.1304  -22.1873  -52.7439 C.3       21 UNK         0.1400 
    116 CB        -2.4836  -21.3957  -51.4733 C.3       21 UNK        -0.1800 
    117 C         -0.7285  -21.8205  -53.2675 C.2       21 UNK         0.5000 
    118 O          0.2394  -22.5036  -52.9341 O.2       21 UNK        -0.5000 
    119 N         -0.6550  -20.7668  -54.0930 N.am      22 UNK        -0.5000 
    120 CA         0.5411  -20.3405  -54.8327 C.3       22 UNK         0.1400 
    121 C          1.0349  -21.3967  -55.8608 C.2       22 UNK         0.5000 
    122 N          0.1587  -21.9189  -56.7107 N.am      22 UNK        -0.7600 
    123 O          2.2114  -21.7475  -55.8850 O.2       22 UNK        -0.5000 
    124 C124        0.3378  -18.9535  -55.5080 C.3       23 UNK        -0.0398 
    125 S125        1.8601  -17.9428  -55.4594 S.3       23 UNK        -0.2404 
    126 C126        1.3283  -16.4348  -54.5682 C.3       23 UNK        -0.0205 
    127 H127       -5.2928  -18.6441  -46.1004 H         1 UNK         0.0600 
    128 H128       -3.5961  -18.9612  -46.4716 H         1 UNK         0.0600 
    129 H129       -4.1004  -18.7012  -44.8009 H         1 UNK         0.0600 
    130 H130       -2.8028  -17.1461  -47.5541 H         1 UNK         0.3000 
    131 H131       -3.8779  -14.5238  -47.2550 H         1 UNK         0.0600 
    132 H132       -1.3356  -15.4423  -48.6908 H         1 UNK         0.0800 
    133 H133       -2.0508  -13.8526  -48.8247 H         1 UNK         0.0800 
    134 H134       -3.0702  -15.0953  -52.3097 H         1 UNK         0.0800 
    135 H135       -1.9861  -14.1133  -51.3640 H         1 UNK         0.0800 
    136 H136       -0.7660  -15.0365  -53.5699 H         1 UNK         0.1150 
    137 H137        1.7621  -18.3672  -52.6549 H         1 UNK         0.1150 
    138 H138       -1.5063  -17.4154  -50.0780 H         1 UNK         0.1150 
    139 H139       -0.1610  -20.0155  -50.5869 H         1 UNK         0.0800 
    140 H140        1.5191  -19.5861  -50.6861 H         1 UNK         0.0800 
    141 H141       -1.7162  -19.4580  -48.7669 H         1 UNK         0.0800 
    142 H142       -1.2645  -18.9990  -47.1390 H         1 UNK         0.0800 
    143 H143       -0.3502  -21.5656  -48.5087 H         1 UNK         0.0600 
    144 H144        0.5523  -20.4041  -46.0725 H         1 UNK         0.3000 
    145 H145        1.8944  -23.4805  -44.7400 H         1 UNK         0.0600 
    146 H146        3.8602  -21.9815  -44.6458 H         1 UNK         0.0600 
    147 H147        3.5429  -22.4600  -46.3069 H         1 UNK         0.0600 
    148 H148        3.0934  -20.8509  -45.7576 H         1 UNK         0.0600 
    149 H149        1.7842  -20.8641  -43.6254 H         1 UNK         0.3000 
    150 H150       -1.2786  -21.3263  -41.7905 H         1 UNK         0.0600 
    151 H151        0.5851  -22.3416  -40.4716 H         1 UNK         0.0600 
    152 H152        0.2662  -20.6888  -39.9665 H         1 UNK         0.0600 
    153 H153        1.6631  -21.0467  -40.9785 H         1 UNK         0.0600 
    154 H154        0.4263  -19.0761  -41.9206 H         1 UNK         0.3000 
    155 H155       -1.0914  -17.4951  -44.7774 H         1 UNK         0.0600 
    156 H156       -0.9708  -16.8662  -41.7782 H         1 UNK         0.0600 
    157 H157       -2.4355  -16.9296  -42.7565 H         1 UNK         0.0600 
    158 H158       -1.2227  -15.6998  -43.0720 H         1 UNK         0.0600 
    159 H159        1.0885  -16.6294  -43.2431 H         1 UNK         0.3000 
    160 H160        3.7003  -18.3340  -45.0622 H         1 UNK         0.0600 
    161 H161        4.4426  -15.9613  -45.1192 H         1 UNK         0.0600 
    162 H162        2.8143  -15.4228  -44.7076 H         1 UNK         0.0600 
    163 H163        3.1145  -16.2294  -46.2378 H         1 UNK         0.0600 
    164 H164        3.6940  -16.6808  -42.7113 H         1 UNK         0.3000 
    165 H165        3.5765  -19.3083  -40.3193 H         1 UNK         0.0600 
    166 H166        5.7455  -18.3104  -39.6480 H         1 UNK         0.0600 
    167 H167        5.9537  -19.2967  -41.0862 H         1 UNK         0.0600 
    168 H168        5.9156  -17.5431  -41.2272 H         1 UNK         0.0600 
    169 H169        3.9724  -16.4719  -40.1274 H         1 UNK         0.3000 
    170 H170        0.5213  -15.5970  -39.8235 H         1 UNK         0.0600 
    171 H171        1.3251  -16.3442  -37.5767 H         1 UNK         0.0600 
    172 H172        2.8852  -15.5855  -37.8706 H         1 UNK         0.0600 
    173 H173        1.4276  -14.5999  -37.7508 H         1 UNK         0.0600 
    174 H174        2.8470  -13.9746  -39.7862 H         1 UNK         0.3000 
    175 H175        2.7877  -12.3018  -41.6110 H         1 UNK         0.0600 
    176 H176        4.5416  -14.3835  -43.0743 H         1 UNK         0.0600 
    177 H177        4.9601  -12.6905  -42.8351 H         1 UNK         0.0600 
    178 H178        4.8522  -13.7667  -41.4564 H         1 UNK         0.0600 
    179 H179        1.5885  -13.5932  -43.7884 H         1 UNK         0.3000 
    180 H180        1.4688  -10.8139  -45.9389 H         1 UNK         0.0600 
    181 H181        2.4107  -13.6666  -46.5617 H         1 UNK         0.0600 
    182 H182        3.2621  -12.1927  -47.0087 H         1 UNK         0.0600 
    183 H183        1.6873  -12.5394  -47.7070 H         1 UNK         0.0600 
    184 H184        0.1311  -13.4044  -45.6921 H         1 UNK         0.3000 
    185 H185       -1.5811  -13.5043  -43.6571 H         1 UNK         0.0600 
    186 H186       -2.6470  -11.4882  -42.6970 H         1 UNK         0.0600 
    187 H187       -3.4201  -11.1322  -44.2382 H         1 UNK         0.0600 
    188 H188       -3.8577  -12.5840  -43.3368 H         1 UNK         0.0600 
    189 H189       -3.4089  -13.0113  -45.8094 H         1 UNK         0.3000 
    190 H190       -1.9668  -21.1886  -45.3376 H         1 UNK         0.3000 
    191 H191       -4.5122  -22.1308  -46.1248 H         1 UNK         0.0600 
    192 H192       -3.1214  -22.2443  -43.4065 H         1 UNK         0.0600 
    193 H193       -4.8282  -22.5724  -43.6781 H         1 UNK         0.0600 
    194 H194       -4.1885  -20.9699  -43.9915 H         1 UNK         0.0600 
    195 H195       -1.6170  -23.8755  -44.9342 H         1 UNK         0.3000 
    196 H196       -2.7621  -26.4935  -44.9967 H         1 UNK         0.0600 
    197 H197        0.1639  -25.5969  -45.1666 H         1 UNK         0.0600 
    198 H198       -0.3863  -27.2343  -44.8339 H         1 UNK         0.0600 
    199 H199       -0.7296  -25.9457  -43.6892 H         1 UNK         0.0600 
    200 H200       -1.0376  -24.5568  -47.4516 H         1 UNK         0.3000 
    201 H201       -0.7823  -26.5762  -49.4151 H         1 UNK         0.0600 
    202 H202       -0.8876  -23.5390  -49.7325 H         1 UNK         0.0600 
    203 H203       -0.3449  -24.6677  -50.9643 H         1 UNK         0.0600 
    204 H204        0.5540  -24.5107  -49.4627 H         1 UNK         0.0600 
    205 H205       -3.3530  -24.0627  -49.0361 H         1 UNK         0.3000 
    206 H206       -5.3494  -25.8275  -50.0796 H         1 UNK         0.0600 
    207 H207       -5.9690  -24.6216  -52.1599 H         1 UNK         0.0600 
    208 H208       -4.6257  -23.5145  -51.9619 H         1 UNK         0.0600 
    209 H209       -4.3292  -25.2128  -52.3140 H         1 UNK         0.0600 
    210 H210       -4.4176  -22.6306  -48.9125 H         1 UNK         0.3000 
    211 H211       -5.4725  -20.9350  -47.9920 H         1 UNK         0.0600 
    212 H212       -7.9963  -22.6111  -47.5640 H         1 UNK         0.0600 
    213 H213       -7.4068  -21.2676  -46.6001 H         1 UNK         0.0600 
    214 H214       -6.5775  -22.8170  -46.5581 H         1 UNK         0.0600 
    215 H215       -5.6781  -21.3606  -50.8852 H         1 UNK         0.3000 
    216 H216       -8.0663  -19.7183  -51.5753 H         1 UNK         0.0600 
    217 H217       -8.5064  -21.3491  -53.4563 H         1 UNK         0.0600 
    218 H218       -8.7603  -22.0390  -51.8636 H         1 UNK         0.0600 
    219 H219       -7.3013  -22.4321  -52.7565 H         1 UNK         0.0600 
    220 H220       -5.5362  -18.7367  -51.2583 H         1 UNK         0.3000 
    221 H221       -4.0246  -17.3890  -52.1688 H         1 UNK         0.0600 
    222 H222       -6.3860  -16.8586  -54.0563 H         1 UNK         0.0600 
    223 H223       -6.0658  -16.0837  -52.5103 H         1 UNK         0.0600 
    224 H224       -4.9960  -15.7897  -53.8673 H         1 UNK         0.0600 
    225 H225       -5.0784  -17.5818  -55.4753 H         1 UNK         0.3000 
    226 H226       -2.5270  -18.1831  -56.5069 H         1 UNK         0.0600 
    227 H227       -4.2748  -16.9922  -57.7912 H         1 UNK         0.0600 
    228 H228       -3.7555  -18.4193  -58.6733 H         1 UNK         0.0600 
    229 H229       -5.2891  -18.4357  -57.8102 H         1 UNK         0.0600 
    230 H230       -5.1718  -20.3704  -55.5722 H         1 UNK         0.3000 
    231 H231       -4.0076  -22.7311  -56.8256 H         1 UNK         0.0600 
    232 H232       -6.4496  -22.5522  -56.4676 H         1 UNK         0.0600 
    233 H233       -6.2087  -22.4283  -54.7280 H         1 UNK         0.0600 
    234 H234       -5.8025  -23.9175  -55.5685 H         1 UNK         0.0600 
    235 H235       -3.5337  -21.0178  -53.8101 H         1 UNK         0.3000 
    236 H236       -2.1251  -23.2482  -52.4835 H         1 UNK         0.0600 
    237 H237       -1.7921  -21.6383  -50.6692 H         1 UNK         0.0600 
    238 H238       -2.4337  -20.3185  -51.6282 H         1 UNK         0.0600 
    239 H239       -3.4834  -21.6346  -51.1159 H         1 UNK         0.0600 
    240 H240       -1.4911  -20.2060  -54.2223 H         1 UNK         0.3000 
    241 H241        1.3252  -20.2470  -54.0792 H         1 UNK         0.0600 
    242 H242        0.4650  -22.6086  -57.3778 H         1 UNK         0.3800 
    243 H243       -0.7979  -21.5752  -56.7464 H         1 UNK         0.3800 
    244 H244        0.0095  -19.0484  -56.5446 H         1 UNK         0.0800 
    245 H245       -0.4629  -18.4041  -55.0134 H         1 UNK         0.0800 
    246 H246        2.2084  -15.8310  -54.3448 H         1 UNK         0.0800 
    247 H247        0.7141  -15.8440  -55.2497 H         1 UNK         0.0800 
@<TRIPOS>BOND
     1    1    2 1    
     2    1  127 1    
     3    1  128 1    
     4    1  129 1    
     5    2    3 2    
     6    2    4 am   BACKBONE|DICT|INTERRES
     7    4    5 1    
     8    4  130 1    
     9    5    6 1    
    10    5   65 1    
    11    5  131 1    
    12    6    7 1    
    13    6  132 1    
    14    6  133 1    
    15    7    8 1    
    16    8    9 1    
    17    8  134 1    
    18    8  135 1    
    19    9   10 ar   
    20    9   14 ar   
    21   10   11 ar   
    22   10  136 1    
    23   11   12 ar   
    24   11  126 1    
    25   12   13 ar   
    26   12  137 1    
    27   13   14 ar   
    28   13   15 1    
    29   14  138 1    
    30   15   16 1    
    31   15  139 1    
    32   15  140 1    
    33   16   17 1    
    34   17   18 1    
    35   17  141 1    
    36   17  142 1    
    37   18   19 1    
    38   18   67 1    
    39   18  143 1    
    40   19   20 am   BACKBONE|DICT|INTERRES
    41   19  144 1    
    42   20   21 2    
    43   20   22 1    
    44   22   23 1    
    45   22   24 1    
    46   22  145 1    
    47   23  146 1    
    48   23  147 1    
    49   23  148 1    
    50   24   25 am   BACKBONE|DICT|INTERRES
    51   24  149 1    
    52   25   26 2    
    53   25   27 1    
    54   27   28 1    
    55   27   29 1    
    56   27  150 1    
    57   28  151 1    
    58   28  152 1    
    59   28  153 1    
    60   29   30 am   BACKBONE|DICT|INTERRES
    61   29  154 1    
    62   30   31 2    
    63   30   32 1    
    64   32   33 1    
    65   32   34 1    
    66   32  155 1    
    67   33  156 1    
    68   33  157 1    
    69   33  158 1    
    70   34   35 am   BACKBONE|DICT|INTERRES
    71   34  159 1    
    72   35   36 2    
    73   35   37 1    
    74   37   38 1    
    75   37   39 1    
    76   37  160 1    
    77   38  161 1    
    78   38  162 1    
    79   38  163 1    
    80   39   40 am   BACKBONE|DICT|INTERRES
    81   39  164 1    
    82   40   41 2    
    83   40   42 1    
    84   42   43 1    
    85   42   44 1    
    86   42  165 1    
    87   43  166 1    
    88   43  167 1    
    89   43  168 1    
    90   44   45 am   BACKBONE|DICT|INTERRES
    91   44  169 1    
    92   45   46 2    
    93   45   47 1    
    94   47   48 1    
    95   47   49 1    
    96   47  170 1    
    97   48  171 1    
    98   48  172 1    
    99   48  173 1    
   100   49   50 am   BACKBONE|DICT|INTERRES
   101   49  174 1    
   102   50   51 2    
   103   50   52 1    
   104   52   53 1    
   105   52   54 1    
   106   52  175 1    
   107   53  176 1    
   108   53  177 1    
   109   53  178 1    
   110   54   55 am   BACKBONE|DICT|INTERRES
   111   54  179 1    
   112   55   56 2    
   113   55   57 1    
   114   57   58 1    
   115   57   59 1    
   116   57  180 1    
   117   58  181 1    
   118   58  182 1    
   119   58  183 1    
   120   59   60 am   BACKBONE|DICT|INTERRES
   121   59  184 1    
   122   60   61 2    
   123   60   62 1    
   124   62   63 1    
   125   62   64 1    
   126   62  185 1    
   127   63  186 1    
   128   63  187 1    
   129   63  188 1    
   130   64   65 am   BACKBONE|DICT|INTERRES
   131   64  189 1    
   132   65   66 2    
   133   67   68 2    
   134   67   69 am   BACKBONE|DICT|INTERRES
   135   69   70 1    
   136   69  190 1    
   137   70   71 1    
   138   70   72 1    
   139   70  191 1    
   140   71  192 1    
   141   71  193 1    
   142   71  194 1    
   143   72   73 2    
   144   72   74 am   BACKBONE|DICT|INTERRES
   145   74   75 1    
   146   74  195 1    
   147   75   76 1    
   148   75   77 1    
   149   75  196 1    
   150   76  197 1    
   151   76  198 1    
   152   76  199 1    
   153   77   78 2    
   154   77   79 am   BACKBONE|DICT|INTERRES
   155   79   80 1    
   156   79  200 1    
   157   80   81 1    
   158   80   82 1    
   159   80  201 1    
   160   81  202 1    
   161   81  203 1    
   162   81  204 1    
   163   82   83 2    
   164   82   84 am   BACKBONE|DICT|INTERRES
   165   84   85 1    
   166   84  205 1    
   167   85   86 1    
   168   85   87 1    
   169   85  206 1    
   170   86  207 1    
   171   86  208 1    
   172   86  209 1    
   173   87   88 2    
   174   87   89 am   BACKBONE|DICT|INTERRES
   175   89   90 1    
   176   89  210 1    
   177   90   91 1    
   178   90   92 1    
   179   90  211 1    
   180   91  212 1    
   181   91  213 1    
   182   91  214 1    
   183   92   93 2    
   184   92   94 am   BACKBONE|DICT|INTERRES
   185   94   95 1    
   186   94  215 1    
   187   95   96 1    
   188   95   97 1    
   189   95  216 1    
   190   96  217 1    
   191   96  218 1    
   192   96  219 1    
   193   97   98 2    
   194   97   99 am   BACKBONE|DICT|INTERRES
   195   99  100 1    
   196   99  220 1    
   197  100  101 1    
   198  100  102 1    
   199  100  221 1    
   200  101  222 1    
   201  101  223 1    
   202  101  224 1    
   203  102  103 2    
   204  102  104 am   BACKBONE|DICT|INTERRES
   205  104  105 1    
   206  104  225 1    
   207  105  106 1    
   208  105  107 1    
   209  105  226 1    
   210  106  227 1    
   211  106  228 1    
   212  106  229 1    
   213  107  108 2    
   214  107  109 am   BACKBONE|DICT|INTERRES
   215  109  110 1    
   216  109  230 1    
   217  110  111 1    
   218  110  112 1    
   219  110  231 1    
   220  111  232 1    
   221  111  233 1    
   222  111  234 1    
   223  112  113 2    
   224  112  114 am   BACKBONE|DICT|INTERRES
   225  114  115 1    
   226  114  235 1    
   227  115  116 1    
   228  115  117 1    
   229  115  236 1    
   230  116  237 1    
   231  116  238 1    
   232  116  239 1    
   233  117  118 2    
   234  117  119 am   BACKBONE|DICT|INTERRES
   235  119  120 1    
   236  119  240 1    
   237  120  121 1    
   238  120  124 1    
   239  120  241 1    
   240  121  122 am   BACKBONE|DICT|INTERRES
   241  121  123 2    
   242  122  242 1    
   243  122  243 1    
   244  124  125 1    
   245  124  244 1    
   246  124  245 1    
   247  125  126 1    
   248  126  246 1    
   249  126  247 1    
@<TRIPOS>SUBSTRUCTURE
     1 UNK         1 GROUP             0       ****    0 ROOT    
