@<TRIPOS>MOLECULE
3R540
247   249    1
SMALL
USER_CHARGES


@<TRIPOS>ATOM
      1 CA         -1.2555  -11.8198  -50.6592 C.3       0 UNK        -0.1800 
      2 C          -1.2014  -13.1923  -50.0047 C.2       0 UNK         0.5000 
      3 O          -2.0863  -14.0109  -50.2459 O.2       0 UNK        -0.5000 
      4 N          -0.1757  -13.4296  -49.1729 N.am      1 UNK        -0.5000 
      5 CA          0.1438  -14.6761  -48.4536 C.3       1 UNK         0.1400 
      6 C6          0.9238  -15.7222  -49.3049 C.3       23 UNK        -0.0398 
      7 S7          0.0316  -16.4355  -50.7326 S.3       23 UNK        -0.2404 
      8 C8          1.3898  -17.1198  -51.7315 C.3       23 UNK        -0.0205 
      9 C9          1.9032  -18.4447  -51.1834 C.ar      23 UNK        -0.0193 
     10 C10         1.4723  -19.6538  -51.7396 C.ar      23 UNK        -0.1150 
     11 C11         1.9806  -20.8760  -51.2783 C.ar      23 UNK        -0.0193 
     12 C12         2.9002  -20.8707  -50.2247 C.ar      23 UNK        -0.1150 
     13 C13         3.3182  -19.6724  -49.6403 C.ar      23 UNK        -0.0193 
     14 C14         2.8310  -18.4622  -50.1389 C.ar      23 UNK        -0.1150 
     15 C15         4.3026  -19.6800  -48.4772 C.3       23 UNK        -0.0205 
     16 S16         3.6897  -20.6053  -47.0289 S.3       23 UNK        -0.2404 
     17 C17         2.1042  -19.7736  -46.6732 C.3       23 UNK        -0.0398 
     18 CA          0.8940  -20.6867  -46.9704 C.3       11 UNK         0.1400 
     19 N           0.8827  -21.8793  -46.1242 N.am      11 UNK        -0.5000 
     20 C           0.1040  -22.9523  -46.3161 C.2       10 UNK         0.5000 
     21 O          -0.6370  -23.1023  -47.2866 O.2       10 UNK        -0.5000 
     22 CA          0.1278  -24.0119  -45.1988 C.3       10 UNK         0.1400 
     23 CB          1.2391  -25.0412  -45.4509 C.3       10 UNK        -0.1800 
     24 N           0.3125  -23.4169  -43.8726 N.am      10 UNK        -0.5000 
     25 C          -0.5500  -22.5841  -43.2778 C.2       9 UNK         0.5000 
     26 O          -1.6339  -22.2699  -43.7694 O.2       9 UNK        -0.5000 
     27 CA         -0.1141  -21.9483  -41.9455 C.3       9 UNK         0.1400 
     28 CB         -0.3051  -22.9234  -40.7693 C.3       9 UNK        -0.1800 
     29 N           1.2385  -21.3722  -41.9599 N.am      9 UNK        -0.5000 
     30 C           2.4280  -21.9908  -42.0267 C.2       8 UNK         0.5000 
     31 O           2.5671  -23.2039  -42.1854 O.2       8 UNK        -0.5000 
     32 CA          3.6750  -21.0990  -41.8874 C.3       8 UNK         0.1400 
     33 CB          4.1431  -20.6000  -43.2621 C.3       8 UNK        -0.1800 
     34 N           3.4179  -19.9509  -41.0162 N.am      8 UNK        -0.5000 
     35 C           3.5242  -19.9782  -39.6792 C.2       7 UNK         0.5000 
     36 O           3.9551  -20.9430  -39.0466 O.2       7 UNK        -0.5000 
     37 CA          3.0528  -18.7237  -38.9150 C.3       7 UNK         0.1400 
     38 CB          4.2062  -17.7210  -38.7595 C.3       7 UNK        -0.1800 
     39 N           1.9214  -18.0567  -39.5616 N.am      7 UNK        -0.5000 
     40 C           0.6906  -18.5765  -39.6735 C.2       6 UNK         0.5000 
     41 O           0.3463  -19.6320  -39.1430 O.2       6 UNK        -0.5000 
     42 CA         -0.3189  -17.8172  -40.5577 C.3       6 UNK         0.1400 
     43 CB         -1.3293  -17.0530  -39.6912 C.3       6 UNK        -0.1800 
     44 N           0.2910  -16.8963  -41.5260 N.am      6 UNK        -0.5000 
     45 C           1.1027  -17.2570  -42.5331 C.2       5 UNK         0.5000 
     46 O           1.4363  -18.4278  -42.7328 O.2       5 UNK        -0.5000 
     47 CA          1.6415  -16.1426  -43.4540 C.3       5 UNK         0.1400 
     48 CB          1.6226  -16.5680  -44.9306 C.3       5 UNK        -0.1800 
     49 N           0.8772  -14.9030  -43.3190 N.am      5 UNK        -0.5000 
     50 C           1.2994  -13.7916  -42.6989 C.2       4 UNK         0.5000 
     51 O           2.3969  -13.6932  -42.1497 O.2       4 UNK        -0.5000 
     52 CA          0.3383  -12.5827  -42.6772 C.3       4 UNK         0.1400 
     53 CB          0.7329  -11.5693  -43.7626 C.3       4 UNK        -0.1800 
     54 N          -1.0674  -12.9461  -42.8644 N.am      4 UNK        -0.5000 
     55 C          -1.7917  -13.6804  -42.0095 C.2       3 UNK         0.5000 
     56 O          -1.3733  -14.0478  -40.9123 O.2       3 UNK        -0.5000 
     57 CA         -3.1946  -14.1236  -42.4753 C.3       3 UNK         0.1400 
     58 CB         -4.2747  -13.2313  -41.8459 C.3       3 UNK        -0.1800 
     59 N          -3.3838  -14.1462  -43.9325 N.am      3 UNK        -0.5000 
     60 C          -2.6679  -14.8705  -44.8057 C.2       2 UNK         0.5000 
     61 O          -1.7099  -15.5658  -44.4665 O.2       2 UNK        -0.5000 
     62 CA         -3.0625  -14.7899  -46.2960 C.3       2 UNK         0.1400 
     63 CB         -4.2101  -13.8042  -46.5940 C.3       2 UNK        -0.1800 
     64 N          -1.9077  -14.4158  -47.1105 N.am      2 UNK        -0.5000 
     65 C          -1.0198  -15.2764  -47.6273 C.2       1 UNK         0.5000 
     66 O          -1.0860  -16.4908  -47.4641 O.2       1 UNK        -0.5000 
     67 C          -0.4311  -19.9126  -46.8381 C.2       11 UNK         0.5000 
     68 O          -1.0299  -19.5899  -47.8579 O.2       11 UNK        -0.5000 
     69 N          -0.8979  -19.6905  -45.5972 N.am      12 UNK        -0.5000 
     70 CA         -2.1533  -18.9905  -45.2934 C.3       12 UNK         0.1400 
     71 CB         -2.2823  -18.7805  -43.7789 C.3       12 UNK        -0.1800 
     72 C          -3.4056  -19.6901  -45.8507 C.2       12 UNK         0.5000 
     73 O          -4.3454  -19.0149  -46.2717 O.2       12 UNK        -0.5000 
     74 N          -3.3830  -21.0295  -45.8727 N.am      13 UNK        -0.5000 
     75 CA         -4.4059  -21.8724  -46.4937 C.3       13 UNK         0.1400 
     76 CB         -4.1660  -23.3311  -46.0759 C.3       13 UNK        -0.1800 
     77 C          -4.4514  -21.7508  -48.0320 C.2       13 UNK         0.5000 
     78 O          -5.4903  -22.0337  -48.6277 O.2       13 UNK        -0.5000 
     79 N          -3.3414  -21.3199  -48.6413 N.am      14 UNK        -0.5000 
     80 CA         -3.1695  -21.1052  -50.0723 C.3       14 UNK         0.1400 
     81 CB         -1.9636  -21.9344  -50.5505 C.3       14 UNK        -0.1800 
     82 C          -2.9931  -19.6019  -50.3502 C.2       14 UNK         0.5000 
     83 O          -2.0698  -19.2174  -51.0660 O.2       14 UNK        -0.5000 
     84 N          -3.8791  -18.7724  -49.7772 N.am      15 UNK        -0.5000 
     85 CA         -3.9269  -17.3216  -49.9776 C.3       15 UNK         0.1400 
     86 CB         -5.1046  -16.7371  -49.1845 C.3       15 UNK        -0.1800 
     87 C          -4.0333  -16.9519  -51.4707 C.2       15 UNK         0.5000 
     88 O          -4.8682  -17.5149  -52.1851 O.2       15 UNK        -0.5000 
     89 N          -3.1374  -16.0611  -51.9149 N.am      16 UNK        -0.5000 
     90 CA         -2.8728  -15.6616  -53.3012 C.3       16 UNK         0.1400 
     91 CB         -4.0350  -14.7981  -53.8318 C.3       16 UNK        -0.1800 
     92 C          -2.5402  -16.8454  -54.2403 C.2       16 UNK         0.5000 
     93 O          -2.7803  -16.7500  -55.4456 O.2       16 UNK        -0.5000 
     94 N          -2.0538  -17.9607  -53.6712 N.am      17 UNK        -0.5000 
     95 CA         -1.9332  -19.3120  -54.2324 C.3       17 UNK         0.1400 
     96 CB         -1.0011  -19.3568  -55.4569 C.3       17 UNK        -0.1800 
     97 C          -3.3011  -19.9581  -54.5273 C.2       17 UNK         0.5000 
     98 O          -3.5746  -21.0588  -54.0471 O.2       17 UNK        -0.5000 
     99 N          -4.1348  -19.2499  -55.2984 N.am      18 UNK        -0.5000 
    100 CA        -5.4128  -19.6537  -55.8852 C.3       18 UNK         0.1400 
    101 CB        -5.9999  -18.4483  -56.6353 C.3       18 UNK        -0.1800 
    102 C         -6.4645  -20.2444  -54.9269 C.2       18 UNK         0.5000 
    103 O         -7.3263  -20.9891  -55.3950 O.2       18 UNK        -0.5000 
    104 N         -6.3875  -19.9385  -53.6226 N.am      19 UNK        -0.5000 
    105 CA        -7.2801  -20.4962  -52.5995 C.3       19 UNK         0.1400 
    106 CB        -7.0395  -19.7888  -51.2597 C.3       19 UNK        -0.1800 
    107 C         -7.1602  -22.0259  -52.4276 C.2       19 UNK         0.5000 
    108 O         -8.1409  -22.6590  -52.0338 O.2       19 UNK        -0.5000 
    109 N         -5.9851  -22.5913  -52.7394 N.am      20 UNK        -0.5000 
    110 CA        -5.7286  -24.0355  -52.7015 C.3       20 UNK         0.1400 
    111 CB        -5.0481  -24.3897  -51.3677 C.3       20 UNK        -0.1800 
    112 C         -4.8894  -24.5271  -53.8962 C.2       20 UNK         0.5000 
    113 O         -4.5766  -25.7172  -53.9588 O.2       20 UNK        -0.5000 
    114 N         -4.4788  -23.6097  -54.7864 N.am      21 UNK        -0.5000 
    115 CA        -3.5274  -23.7917  -55.8928 C.3       21 UNK         0.1400 
    116 CB        -4.1312  -24.6961  -56.9862 C.3       21 UNK        -0.1800 
    117 C         -2.1349  -24.2698  -55.4189 C.2       21 UNK         0.5000 
    118 O         -1.4101  -24.9091  -56.1831 O.2       21 UNK        -0.5000 
    119 N         -1.8117  -23.9803  -54.1496 N.am      22 UNK        -0.5000 
    120 CA        -0.6794  -24.5281  -53.3838 C.3       22 UNK         0.1400 
    121 C         -0.7013  -26.0818  -53.2128 C.2       22 UNK         0.5000 
    122 N         -1.8376  -26.7540  -53.3649 N.am      22 UNK        -0.7600 
    123 O          0.3174  -26.6926  -52.9009 O.2       22 UNK        -0.5000 
    124 C124        0.6950  -23.9778  -53.8568 C.3       23 UNK        -0.0398 
    125 S125        0.8624  -22.1859  -53.5487 S.3       23 UNK        -0.2404 
    126 C126        1.5610  -22.2262  -51.8601 C.3       23 UNK        -0.0205 
    127 H127       -0.4142  -11.1932  -50.3621 H         1 UNK         0.0600 
    128 H128       -1.2367  -11.9230  -51.7442 H         1 UNK         0.0600 
    129 H129       -2.1768  -11.3083  -50.3807 H         1 UNK         0.0600 
    130 H130        0.4906  -12.6843  -49.0266 H         1 UNK         0.3000 
    131 H131        0.8477  -14.3543  -47.6846 H         1 UNK         0.0600 
    132 H132        1.2509  -16.5454  -48.6680 H         1 UNK         0.0800 
    133 H133        1.8380  -15.2578  -49.6753 H         1 UNK         0.0800 
    134 H134        2.2047  -16.3978  -51.7983 H         1 UNK         0.0800 
    135 H135        1.0271  -17.2586  -52.7512 H         1 UNK         0.0800 
    136 H136        0.7451  -19.6321  -52.5373 H         1 UNK         0.1150 
    137 H137        3.2870  -21.8063  -49.8452 H         1 UNK         0.1150 
    138 H138        3.1711  -17.5305  -49.7109 H         1 UNK         0.1150 
    139 H139        5.2395  -20.1281  -48.8106 H         1 UNK         0.0800 
    140 H140        4.5437  -18.6627  -48.1652 H         1 UNK         0.0800 
    141 H141        2.1023  -19.4884  -45.6220 H         1 UNK         0.0800 
    142 H142        2.0418  -18.8455  -47.2443 H         1 UNK         0.0800 
    143 H143        0.9686  -21.0169  -48.0092 H         1 UNK         0.0600 
    144 H144        1.4789  -21.8623  -45.3113 H         1 UNK         0.3000 
    145 H145       -0.8338  -24.5293  -45.2083 H         1 UNK         0.0600 
    146 H146        1.2194  -25.8332  -44.7021 H         1 UNK         0.0600 
    147 H147        1.1200  -25.5132  -46.4270 H         1 UNK         0.0600 
    148 H148        2.2277  -24.5806  -45.4260 H         1 UNK         0.0600 
    149 H149        1.1884  -23.6043  -43.3907 H         1 UNK         0.3000 
    150 H150       -0.7834  -21.1047  -41.7713 H         1 UNK         0.0600 
    151 H151       -1.3421  -23.2554  -40.7056 H         1 UNK         0.0600 
    152 H152       -0.0579  -22.4462  -39.8208 H         1 UNK         0.0600 
    153 H153        0.3154  -23.8143  -40.8683 H         1 UNK         0.0600 
    154 H154        1.2650  -20.3601  -41.9213 H         1 UNK         0.3000 
    155 H155        4.4748  -21.7089  -41.4619 H         1 UNK         0.0600 
    156 H156        4.3294  -21.4342  -43.9398 H         1 UNK         0.0600 
    157 H157        5.0719  -20.0357  -43.1795 H         1 UNK         0.0600 
    158 H158        3.4028  -19.9536  -43.7313 H         1 UNK         0.0600 
    159 H159        3.0197  -19.1330  -41.4594 H         1 UNK         0.3000 
    160 H160        2.7371  -19.0401  -37.9186 H         1 UNK         0.0600 
    161 H161        4.5524  -17.3512  -39.7255 H         1 UNK         0.0600 
    162 H162        3.9044  -16.8625  -38.1592 H         1 UNK         0.0600 
    163 H163        5.0590  -18.1821  -38.2596 H         1 UNK         0.0600 
    164 H164        2.1090  -17.1730  -40.0113 H         1 UNK         0.3000 
    165 H165       -0.8679  -18.5734  -41.1210 H         1 UNK         0.0600 
    166 H166       -2.1301  -16.6337  -40.3000 H         1 UNK         0.0600 
    167 H167       -1.7957  -17.7109  -38.9565 H         1 UNK         0.0600 
    168 H168       -0.8548  -16.2356  -39.1470 H         1 UNK         0.0600 
    169 H169        0.0556  -15.9179  -41.4247 H         1 UNK         0.3000 
    170 H170        2.6822  -15.9751  -43.1711 H         1 UNK         0.0600 
    171 H171        2.3769  -17.3309  -45.1128 H         1 UNK         0.0600 
    172 H172        0.6522  -16.9700  -45.2265 H         1 UNK         0.0600 
    173 H173        1.8537  -15.7313  -45.5896 H         1 UNK         0.0600 
    174 H174       -0.0588  -14.9288  -43.7166 H         1 UNK         0.3000 
    175 H175        0.4372  -12.1009  -41.7023 H         1 UNK         0.0600 
    176 H176        0.6368  -11.9936  -44.7629 H         1 UNK         0.0600 
    177 H177        0.1100  -10.6760  -43.7143 H         1 UNK         0.0600 
    178 H178        1.7682  -11.2483  -43.6403 H         1 UNK         0.0600 
    179 H179       -1.4902  -12.6864  -43.7428 H         1 UNK         0.3000 
    180 H180       -3.3413  -15.1435  -42.1140 H         1 UNK         0.0600 
    181 H181       -4.1840  -13.2141  -40.7589 H         1 UNK         0.0600 
    182 H182       -4.2004  -12.2017  -42.1980 H         1 UNK         0.0600 
    183 H183       -5.2749  -13.5963  -42.0801 H         1 UNK         0.0600 
    184 H184       -4.1463  -13.5883  -44.2887 H         1 UNK         0.3000 
    185 H185       -3.4017  -15.7871  -46.5842 H         1 UNK         0.0600 
    186 H186       -4.4481  -13.8001  -47.6580 H         1 UNK         0.0600 
    187 H187       -5.1234  -14.0854  -46.0681 H         1 UNK         0.0600 
    188 H188       -3.9561  -12.7813  -46.3127 H         1 UNK         0.0600 
    189 H189       -1.7760  -13.4313  -47.2872 H         1 UNK         0.3000 
    190 H190       -0.3674  -20.0225  -44.8072 H         1 UNK         0.3000 
    191 H191       -2.1052  -18.0071  -45.7581 H         1 UNK         0.0600 
    192 H192       -3.2044  -18.2510  -43.5361 H         1 UNK         0.0600 
    193 H193       -1.4616  -18.1731  -43.4057 H         1 UNK         0.0600 
    194 H194       -2.2899  -19.7228  -43.2324 H         1 UNK         0.0600 
    195 H195       -2.6020  -21.5053  -45.4338 H         1 UNK         0.3000 
    196 H196       -5.3795  -21.5613  -46.1097 H         1 UNK         0.0600 
    197 H197       -4.9368  -23.9864  -46.4834 H         1 UNK         0.0600 
    198 H198       -4.1853  -23.4398  -44.9912 H         1 UNK         0.0600 
    199 H199       -3.2023  -23.6969  -46.4316 H         1 UNK         0.0600 
    200 H200       -2.5544  -21.0257  -48.0731 H         1 UNK         0.3000 
    201 H201       -4.0507  -21.4365  -50.6242 H         1 UNK         0.0600 
    202 H202       -2.0833  -22.9900  -50.3085 H         1 UNK         0.0600 
    203 H203       -1.0398  -21.5914  -50.0822 H         1 UNK         0.0600 
    204 H204       -1.8363  -21.8545  -51.6309 H         1 UNK         0.0600 
    205 H205       -4.5828  -19.1657  -49.1707 H         1 UNK         0.3000 
    206 H206       -2.9998  -16.9089  -49.5735 H         1 UNK         0.0600 
    207 H207       -5.0117  -16.9555  -48.1207 H         1 UNK         0.0600 
    208 H208       -5.1435  -15.6526  -49.2923 H         1 UNK         0.0600 
    209 H209       -6.0589  -17.1376  -49.5285 H         1 UNK         0.0600 
    210 H210       -2.5356  -15.6090  -51.2297 H         1 UNK         0.3000 
    211 H211       -1.9787  -15.0376  -53.2700 H         1 UNK         0.0600 
    212 H212       -4.9508  -15.3797  -53.9426 H         1 UNK         0.0600 
    213 H213       -3.7964  -14.3727  -54.8072 H         1 UNK         0.0600 
    214 H214       -4.2447  -13.9658  -53.1597 H         1 UNK         0.0600 
    215 H215       -1.9398  -17.9476  -52.6614 H         1 UNK         0.3000 
    216 H216       -1.4648  -19.9214  -53.4596 H         1 UNK         0.0600 
    217 H217       -1.4024  -18.8045  -56.3064 H         1 UNK         0.0600 
    218 H218       -0.8463  -20.3860  -55.7833 H         1 UNK         0.0600 
    219 H219       -0.0216  -18.9427  -55.2178 H         1 UNK         0.0600 
    220 H220       -3.7980  -18.3319  -55.5764 H         1 UNK         0.3000 
    221 H221       -5.1865  -20.4308  -56.6176 H         1 UNK         0.0600 
    222 H222       -6.1956  -17.6151  -55.9588 H         1 UNK         0.0600 
    223 H223       -5.3201  -18.0964  -57.4116 H         1 UNK         0.0600 
    224 H224       -6.9414  -18.7059  -57.1226 H         1 UNK         0.0600 
    225 H225       -5.6776  -19.2862  -53.3086 H         1 UNK         0.3000 
    226 H226       -8.3058  -20.2853  -52.9091 H         1 UNK         0.0600 
    227 H227       -7.1946  -18.7133  -51.3444 H         1 UNK         0.0600 
    228 H228       -7.7225  -20.1569  -50.4931 H         1 UNK         0.0600 
    229 H229       -6.0268  -19.9593  -50.9011 H         1 UNK         0.0600 
    230 H230       -5.2240  -21.9922  -53.0365 H         1 UNK         0.3000 
    231 H231       -6.6720  -24.5818  -52.7613 H         1 UNK         0.0600 
    232 H232       -4.0766  -23.9063  -51.2744 H         1 UNK         0.0600 
    233 H233       -5.6590  -24.0817  -50.5191 H         1 UNK         0.0600 
    234 H234       -4.8897  -25.4649  -51.2772 H         1 UNK         0.0600 
    235 H235       -4.7195  -22.6433  -54.6122 H         1 UNK         0.3000 
    236 H236       -3.3737  -22.8036  -56.3288 H         1 UNK         0.0600 
    237 H237       -3.4963  -24.7164  -57.8727 H         1 UNK         0.0600 
    238 H238       -4.2461  -25.7247  -56.6435 H         1 UNK         0.0600 
    239 H239       -5.1108  -24.3349  -57.2990 H         1 UNK         0.0600 
    240 H240       -2.4586  -23.4078  -53.6277 H         1 UNK         0.3000 
    241 H241       -0.8291  -24.1693  -52.3656 H         1 UNK         0.0600 
    242 H242       -1.8341  -27.7536  -53.2391 H         1 UNK         0.3800 
    243 H243       -2.7048  -26.2891  -53.6132 H         1 UNK         0.3800 
    244 H244        0.8388  -24.1657  -54.9211 H         1 UNK         0.0800 
    245 H245        1.5205  -24.4851  -53.3559 H         1 UNK         0.0800 
    246 H246        0.8372  -22.6837  -51.1856 H         1 UNK         0.0800 
    247 H247        2.4314  -22.8841  -51.8715 H         1 UNK         0.0800 
@<TRIPOS>BOND
     1    1    2 1    
     2    1  127 1    
     3    1  128 1    
     4    1  129 1    
     5    2    3 2    
     6    2    4 am   BACKBONE|DICT|INTERRES
     7    4    5 1    
     8    4  130 1    
     9    5    6 1    
    10    5   65 1    
    11    5  131 1    
    12    6    7 1    
    13    6  132 1    
    14    6  133 1    
    15    7    8 1    
    16    8    9 1    
    17    8  134 1    
    18    8  135 1    
    19    9   10 ar   
    20    9   14 ar   
    21   10   11 ar   
    22   10  136 1    
    23   11   12 ar   
    24   11  126 1    
    25   12   13 ar   
    26   12  137 1    
    27   13   14 ar   
    28   13   15 1    
    29   14  138 1    
    30   15   16 1    
    31   15  139 1    
    32   15  140 1    
    33   16   17 1    
    34   17   18 1    
    35   17  141 1    
    36   17  142 1    
    37   18   19 1    
    38   18   67 1    
    39   18  143 1    
    40   19   20 am   BACKBONE|DICT|INTERRES
    41   19  144 1    
    42   20   21 2    
    43   20   22 1    
    44   22   23 1    
    45   22   24 1    
    46   22  145 1    
    47   23  146 1    
    48   23  147 1    
    49   23  148 1    
    50   24   25 am   BACKBONE|DICT|INTERRES
    51   24  149 1    
    52   25   26 2    
    53   25   27 1    
    54   27   28 1    
    55   27   29 1    
    56   27  150 1    
    57   28  151 1    
    58   28  152 1    
    59   28  153 1    
    60   29   30 am   BACKBONE|DICT|INTERRES
    61   29  154 1    
    62   30   31 2    
    63   30   32 1    
    64   32   33 1    
    65   32   34 1    
    66   32  155 1    
    67   33  156 1    
    68   33  157 1    
    69   33  158 1    
    70   34   35 am   BACKBONE|DICT|INTERRES
    71   34  159 1    
    72   35   36 2    
    73   35   37 1    
    74   37   38 1    
    75   37   39 1    
    76   37  160 1    
    77   38  161 1    
    78   38  162 1    
    79   38  163 1    
    80   39   40 am   BACKBONE|DICT|INTERRES
    81   39  164 1    
    82   40   41 2    
    83   40   42 1    
    84   42   43 1    
    85   42   44 1    
    86   42  165 1    
    87   43  166 1    
    88   43  167 1    
    89   43  168 1    
    90   44   45 am   BACKBONE|DICT|INTERRES
    91   44  169 1    
    92   45   46 2    
    93   45   47 1    
    94   47   48 1    
    95   47   49 1    
    96   47  170 1    
    97   48  171 1    
    98   48  172 1    
    99   48  173 1    
   100   49   50 am   BACKBONE|DICT|INTERRES
   101   49  174 1    
   102   50   51 2    
   103   50   52 1    
   104   52   53 1    
   105   52   54 1    
   106   52  175 1    
   107   53  176 1    
   108   53  177 1    
   109   53  178 1    
   110   54   55 am   BACKBONE|DICT|INTERRES
   111   54  179 1    
   112   55   56 2    
   113   55   57 1    
   114   57   58 1    
   115   57   59 1    
   116   57  180 1    
   117   58  181 1    
   118   58  182 1    
   119   58  183 1    
   120   59   60 am   BACKBONE|DICT|INTERRES
   121   59  184 1    
   122   60   61 2    
   123   60   62 1    
   124   62   63 1    
   125   62   64 1    
   126   62  185 1    
   127   63  186 1    
   128   63  187 1    
   129   63  188 1    
   130   64   65 am   BACKBONE|DICT|INTERRES
   131   64  189 1    
   132   65   66 2    
   133   67   68 2    
   134   67   69 am   BACKBONE|DICT|INTERRES
   135   69   70 1    
   136   69  190 1    
   137   70   71 1    
   138   70   72 1    
   139   70  191 1    
   140   71  192 1    
   141   71  193 1    
   142   71  194 1    
   143   72   73 2    
   144   72   74 am   BACKBONE|DICT|INTERRES
   145   74   75 1    
   146   74  195 1    
   147   75   76 1    
   148   75   77 1    
   149   75  196 1    
   150   76  197 1    
   151   76  198 1    
   152   76  199 1    
   153   77   78 2    
   154   77   79 am   BACKBONE|DICT|INTERRES
   155   79   80 1    
   156   79  200 1    
   157   80   81 1    
   158   80   82 1    
   159   80  201 1    
   160   81  202 1    
   161   81  203 1    
   162   81  204 1    
   163   82   83 2    
   164   82   84 am   BACKBONE|DICT|INTERRES
   165   84   85 1    
   166   84  205 1    
   167   85   86 1    
   168   85   87 1    
   169   85  206 1    
   170   86  207 1    
   171   86  208 1    
   172   86  209 1    
   173   87   88 2    
   174   87   89 am   BACKBONE|DICT|INTERRES
   175   89   90 1    
   176   89  210 1    
   177   90   91 1    
   178   90   92 1    
   179   90  211 1    
   180   91  212 1    
   181   91  213 1    
   182   91  214 1    
   183   92   93 2    
   184   92   94 am   BACKBONE|DICT|INTERRES
   185   94   95 1    
   186   94  215 1    
   187   95   96 1    
   188   95   97 1    
   189   95  216 1    
   190   96  217 1    
   191   96  218 1    
   192   96  219 1    
   193   97   98 2    
   194   97   99 am   BACKBONE|DICT|INTERRES
   195   99  100 1    
   196   99  220 1    
   197  100  101 1    
   198  100  102 1    
   199  100  221 1    
   200  101  222 1    
   201  101  223 1    
   202  101  224 1    
   203  102  103 2    
   204  102  104 am   BACKBONE|DICT|INTERRES
   205  104  105 1    
   206  104  225 1    
   207  105  106 1    
   208  105  107 1    
   209  105  226 1    
   210  106  227 1    
   211  106  228 1    
   212  106  229 1    
   213  107  108 2    
   214  107  109 am   BACKBONE|DICT|INTERRES
   215  109  110 1    
   216  109  230 1    
   217  110  111 1    
   218  110  112 1    
   219  110  231 1    
   220  111  232 1    
   221  111  233 1    
   222  111  234 1    
   223  112  113 2    
   224  112  114 am   BACKBONE|DICT|INTERRES
   225  114  115 1    
   226  114  235 1    
   227  115  116 1    
   228  115  117 1    
   229  115  236 1    
   230  116  237 1    
   231  116  238 1    
   232  116  239 1    
   233  117  118 2    
   234  117  119 am   BACKBONE|DICT|INTERRES
   235  119  120 1    
   236  119  240 1    
   237  120  121 1    
   238  120  124 1    
   239  120  241 1    
   240  121  122 am   BACKBONE|DICT|INTERRES
   241  121  123 2    
   242  122  242 1    
   243  122  243 1    
   244  124  125 1    
   245  124  244 1    
   246  124  245 1    
   247  125  126 1    
   248  126  246 1    
   249  126  247 1    
@<TRIPOS>SUBSTRUCTURE
     1 UNK         1 GROUP             0       ****    0 ROOT    
