@<TRIPOS>MOLECULE
3R540
247   249    1
SMALL
USER_CHARGES


@<TRIPOS>ATOM
      1 CA          3.0534  -11.6832  -48.3895 C.3       0 UNK        -0.1800 
      2 C           3.5055  -12.9732  -47.7213 C.2       0 UNK         0.5000 
      3 O           4.0333  -12.9359  -46.6101 O.2       0 UNK        -0.5000 
      4 N           3.2826  -14.1175  -48.3825 N.am      1 UNK        -0.5000 
      5 CA          3.6959  -15.4587  -47.9380 C.3       1 UNK         0.1400 
      6 C6          3.4949  -16.5228  -49.0415 C.3       23 UNK        -0.0398 
      7 S7          4.4907  -16.1886  -50.5362 S.3       23 UNK        -0.2404 
      8 C8          3.2407  -16.2548  -51.8690 C.3       23 UNK        -0.0205 
      9 C9          2.4337  -17.5518  -51.9207 C.ar      23 UNK        -0.0193 
     10 C10         1.0828  -17.5035  -52.2816 C.ar      23 UNK        -0.1150 
     11 C11         0.3119  -18.6685  -52.3146 C.ar      23 UNK        -0.0193 
     12 C12         0.8940  -19.8869  -51.9588 C.ar      23 UNK        -0.1150 
     13 C13         2.2433  -19.9568  -51.6045 C.ar      23 UNK        -0.0193 
     14 C14         3.0141  -18.7902  -51.6182 C.ar      23 UNK        -0.1150 
     15 C15         2.8511  -21.2991  -51.2110 C.3       23 UNK        -0.0205 
     16 S16         3.8165  -21.2747  -49.6579 S.3       23 UNK        -0.2404 
     17 C17         2.7881  -20.3104  -48.4964 C.3       23 UNK        -0.0398 
     18 CA          1.7504  -21.1509  -47.7121 C.3       11 UNK         0.1400 
     19 N           1.5699  -20.6192  -46.3599 N.am      11 UNK        -0.5000 
     20 C           0.7639  -21.1046  -45.4072 C.2       10 UNK         0.5000 
     21 O           0.0637  -22.1076  -45.5521 O.2       10 UNK        -0.5000 
     22 CA          0.6966  -20.3072  -44.0865 C.3       10 UNK         0.1400 
     23 CB          1.8563  -19.2955  -43.9300 C.3       10 UNK        -0.1800 
     24 N          -0.5896  -19.6201  -43.9166 N.am      10 UNK        -0.5000 
     25 C          -1.1584  -18.7465  -44.7619 C.2       9 UNK         0.5000 
     26 O          -0.6962  -18.4667  -45.8691 O.2       9 UNK        -0.5000 
     27 CA         -2.4557  -18.0504  -44.2972 C.3       9 UNK         0.1400 
     28 CB         -3.6955  -18.6947  -44.9352 C.3       9 UNK        -0.1800 
     29 N          -2.6506  -18.0038  -42.8435 N.am      9 UNK        -0.5000 
     30 C          -1.8999  -17.2882  -41.9964 C.2       8 UNK         0.5000 
     31 O          -0.8974  -16.6664  -42.3415 O.2       8 UNK        -0.5000 
     32 CA         -2.3523  -17.2710  -40.5243 C.3       8 UNK         0.1400 
     33 CB         -1.9479  -18.5607  -39.7947 C.3       8 UNK        -0.1800 
     34 N          -1.8014  -16.1184  -39.8084 N.am      8 UNK        -0.5000 
     35 C          -2.2999  -14.8769  -39.8991 C.2       7 UNK         0.5000 
     36 O          -3.3088  -14.5987  -40.5500 O.2       7 UNK        -0.5000 
     37 CA         -1.5876  -13.7536  -39.1218 C.3       7 UNK         0.1400 
     38 CB         -2.3556  -13.4297  -37.8302 C.3       7 UNK        -0.1800 
     39 N          -0.2054  -14.0761  -38.7721 N.am      7 UNK        -0.5000 
     40 C           0.8543  -13.8717  -39.5643 C.2       6 UNK         0.5000 
     41 O           0.7842  -13.3741  -40.6884 O.2       6 UNK        -0.5000 
     42 CA          2.2356  -14.2533  -38.9912 C.3       6 UNK         0.1400 
     43 CB          2.3109  -14.1706  -37.4503 C.3       6 UNK        -0.1800 
     44 N           2.6997  -15.5620  -39.4548 N.am      6 UNK        -0.5000 
     45 C           2.0810  -16.7463  -39.3248 C.2       5 UNK         0.5000 
     46 O           0.9895  -16.8929  -38.7702 O.2       5 UNK        -0.5000 
     47 CA          2.8240  -17.9695  -39.8963 C.3       5 UNK         0.1400 
     48 CB          1.8813  -19.1302  -40.2568 C.3       5 UNK        -0.1800 
     49 N           3.6193  -17.5873  -41.0648 N.am      5 UNK        -0.5000 
     50 C           4.9070  -17.9082  -41.2572 C.2       4 UNK         0.5000 
     51 O           5.5361  -18.6658  -40.5174 O.2       4 UNK        -0.5000 
     52 CA          5.6410  -17.2586  -42.4522 C.3       4 UNK         0.1400 
     53 CB          5.7541  -18.2454  -43.6239 C.3       4 UNK        -0.1800 
     54 N           5.0265  -16.0211  -42.9362 N.am      4 UNK        -0.5000 
     55 C           4.8726  -14.8956  -42.2228 C.2       3 UNK         0.5000 
     56 O           5.3041  -14.7498  -41.0786 O.2       3 UNK        -0.5000 
     57 CA          4.0383  -13.7651  -42.8594 C.3       3 UNK         0.1400 
     58 CB          4.9600  -12.6838  -43.4410 C.3       3 UNK        -0.1800 
     59 N           3.0971  -14.2059  -43.8951 N.am      3 UNK        -0.5000 
     60 C           2.1290  -15.1230  -43.7280 C.2       2 UNK         0.5000 
     61 O           1.9721  -15.7550  -42.6845 O.2       2 UNK        -0.5000 
     62 CA          1.2369  -15.4358  -44.9471 C.3       2 UNK         0.1400 
     63 CB         -0.0168  -14.5480  -44.9398 C.3       2 UNK        -0.1800 
     64 N           1.9222  -15.2686  -46.2309 N.am      2 UNK        -0.5000 
     65 C           3.0287  -15.9187  -46.6207 C.2       1 UNK         0.5000 
     66 O           3.5477  -16.8260  -45.9696 O.2       1 UNK        -0.5000 
     67 C           0.4215  -21.2509  -48.4908 C.2       11 UNK         0.5000 
     68 O           0.2123  -22.2261  -49.2096 O.2       11 UNK        -0.5000 
     69 N          -0.4751  -20.2712  -48.3029 N.am      12 UNK        -0.5000 
     70 CA         -1.7899  -20.2445  -48.9418 C.3       12 UNK         0.1400 
     71 CB         -2.3670  -18.8226  -48.8731 C.3       12 UNK        -0.1800 
     72 C          -2.7634  -21.2935  -48.3708 C.2       12 UNK         0.5000 
     73 O          -3.6243  -21.7724  -49.1099 O.2       12 UNK        -0.5000 
     74 N          -2.5921  -21.6778  -47.0965 N.am      13 UNK        -0.5000 
     75 CA         -3.3179  -22.7989  -46.4944 C.3       13 UNK         0.1400 
     76 CB         -3.2603  -22.7278  -44.9604 C.3       13 UNK        -0.1800 
     77 C          -2.7773  -24.1467  -46.9979 C.2       13 UNK         0.5000 
     78 O          -3.5691  -25.0325  -47.3189 O.2       13 UNK        -0.5000 
     79 N          -1.4444  -24.2607  -47.0949 N.am      14 UNK        -0.5000 
     80 CA         -0.7428  -25.4385  -47.6111 C.3       14 UNK         0.1400 
     81 CB          0.7675  -25.2748  -47.3817 C.3       14 UNK        -0.1800 
     82 C          -1.0475  -25.7167  -49.0962 C.2       14 UNK         0.5000 
     83 O          -1.2561  -26.8716  -49.4693 O.2       14 UNK        -0.5000 
     84 N          -1.0972  -24.6514  -49.9070 N.am      15 UNK        -0.5000 
     85 CA         -1.4498  -24.6937  -51.3272 C.3       15 UNK         0.1400 
     86 CB         -0.9758  -23.3929  -51.9943 C.3       15 UNK        -0.1800 
     87 C          -2.9552  -24.8941  -51.5878 C.2       15 UNK         0.5000 
     88 O          -3.3164  -25.2517  -52.7087 O.2       15 UNK        -0.5000 
     89 N          -3.7941  -24.6395  -50.5706 N.am      16 UNK        -0.5000 
     90 CA         -5.2596  -24.6030  -50.6114 C.3       16 UNK         0.1400 
     91 CB         -5.8485  -25.9986  -50.9045 C.3       16 UNK        -0.1800 
     92 C          -5.7544  -23.5179  -51.5869 C.2       16 UNK         0.5000 
     93 O          -6.4436  -23.8178  -52.5638 O.2       16 UNK        -0.5000 
     94 N          -5.3490  -22.2707  -51.3104 N.am      17 UNK        -0.5000 
     95 CA         -5.4958  -21.0852  -52.1588 C.3       17 UNK         0.1400 
     96 CB         -5.0247  -19.8507  -51.3790 C.3       17 UNK        -0.1800 
     97 C          -6.8950  -20.8336  -52.7435 C.2       17 UNK         0.5000 
     98 O          -6.9892  -20.3968  -53.8905 O.2       17 UNK        -0.5000 
     99 N          -7.9426  -21.1319  -51.9648 N.am      18 UNK        -0.5000 
    100 CA        -9.3427  -20.9953  -52.3697 C.3       18 UNK         0.1400 
    101 CB       -10.2387  -21.1418  -51.1305 C.3       18 UNK        -0.1800 
    102 C         -9.7674  -21.9956  -53.4632 C.2       18 UNK         0.5000 
    103 O        -10.6345  -21.6681  -54.2740 O.2       18 UNK        -0.5000 
    104 N         -9.1519  -23.1853  -53.4722 N.am      19 UNK        -0.5000 
    105 CA        -9.3752  -24.2260  -54.4752 C.3       19 UNK         0.1400 
    106 CB        -9.2108  -25.6063  -53.8192 C.3       19 UNK        -0.1800 
    107 C         -8.4070  -24.0696  -55.6591 C.2       19 UNK         0.5000 
    108 O         -8.8088  -24.2683  -56.8060 O.2       19 UNK        -0.5000 
    109 N         -7.1522  -23.7071  -55.3597 N.am      20 UNK        -0.5000 
    110 CA        -6.0780  -23.5136  -56.3349 C.3       20 UNK         0.1400 
    111 CB        -4.7350  -23.5132  -55.5882 C.3       20 UNK        -0.1800 
    112 C         -6.2186  -22.2303  -57.1776 C.2       20 UNK         0.5000 
    113 O         -5.5961  -22.1436  -58.2366 O.2       20 UNK        -0.5000 
    114 N         -7.0020  -21.2586  -56.6841 N.am      21 UNK        -0.5000 
    115 CA        -7.1672  -19.8948  -57.2025 C.3       21 UNK         0.1400 
    116 CB        -7.8198  -19.8980  -58.6008 C.3       21 UNK        -0.1800 
    117 C         -5.8460  -19.0981  -57.1373 C.2       21 UNK         0.5000 
    118 O         -5.4779  -18.4073  -58.0894 O.2       21 UNK        -0.5000 
    119 N         -5.1448  -19.2451  -56.0075 N.am      22 UNK        -0.5000 
    120 CA        -3.8619  -18.5971  -55.7087 C.3       22 UNK         0.1400 
    121 C         -4.0392  -17.0881  -55.3815 C.2       22 UNK         0.5000 
    122 N         -3.1681  -16.2265  -55.8880 N.am      22 UNK        -0.7600 
    123 O         -4.9416  -16.6974  -54.6443 O.2       22 UNK        -0.5000 
    124 C124       -3.1425  -19.3552  -54.5667 C.3       23 UNK        -0.0398 
    125 S125       -1.3455  -19.0581  -54.4867 S.3       23 UNK        -0.2404 
    126 C126       -1.1495  -18.6218  -52.7301 C.3       23 UNK        -0.0205 
    127 H127        3.9054  -11.0193  -48.5355 H         1 UNK         0.0600 
    128 H128        2.5957  -11.8685  -49.3615 H         1 UNK         0.0600 
    129 H129        2.3245  -11.1712  -47.7614 H         1 UNK         0.0600 
    130 H130        2.8504  -14.0794  -49.2945 H         1 UNK         0.3000 
    131 H131        4.7656  -15.4028  -47.7247 H         1 UNK         0.0600 
    132 H132        2.4382  -16.6038  -49.3017 H         1 UNK         0.0800 
    133 H133        3.7980  -17.5062  -48.6798 H         1 UNK         0.0800 
    134 H134        3.7450  -16.1228  -52.8269 H         1 UNK         0.0800 
    135 H135        2.5729  -15.4000  -51.7515 H         1 UNK         0.0800 
    136 H136        0.6288  -16.5575  -52.5416 H         1 UNK         0.1150 
    137 H137        0.2933  -20.7846  -51.9674 H         1 UNK         0.1150 
    138 H138        4.0610  -18.8470  -51.3567 H         1 UNK         0.1150 
    139 H139        2.0740  -22.0575  -51.1142 H         1 UNK         0.0800 
    140 H140        3.5011  -21.6361  -52.0192 H         1 UNK         0.0800 
    141 H141        2.3256  -19.4552  -48.9898 H         1 UNK         0.0800 
    142 H142        3.5028  -19.8711  -47.7987 H         1 UNK         0.0800 
    143 H143        2.1361  -22.1649  -47.5896 H         1 UNK         0.0600 
    144 H144        2.0748  -19.7714  -46.1461 H         1 UNK         0.3000 
    145 H145        0.7728  -21.0333  -43.2759 H         1 UNK         0.0600 
    146 H146        1.7524  -18.7051  -43.0239 H         1 UNK         0.0600 
    147 H147        2.8158  -19.8101  -43.8750 H         1 UNK         0.0600 
    148 H148        1.9038  -18.5829  -44.7521 H         1 UNK         0.0600 
    149 H149       -1.0689  -19.8006  -43.0469 H         1 UNK         0.3000 
    150 H150       -2.3941  -17.0209  -44.6569 H         1 UNK         0.0600 
    151 H151       -3.5621  -18.8679  -46.0019 H         1 UNK         0.0600 
    152 H152       -4.5693  -18.0529  -44.8211 H         1 UNK         0.0600 
    153 H153       -3.9293  -19.6518  -44.4744 H         1 UNK         0.0600 
    154 H154       -3.4563  -18.4957  -42.4846 H         1 UNK         0.3000 
    155 H155       -3.4425  -17.2060  -40.5088 H         1 UNK         0.0600 
    156 H156       -2.3525  -18.5796  -38.7826 H         1 UNK         0.0600 
    157 H157       -2.3243  -19.4448  -40.3103 H         1 UNK         0.0600 
    158 H158       -0.8676  -18.6584  -39.7181 H         1 UNK         0.0600 
    159 H159       -0.9188  -16.2626  -39.3295 H         1 UNK         0.3000 
    160 H160       -1.5986  -12.8617  -39.7520 H         1 UNK         0.0600 
    161 H161       -2.3814  -14.2837  -37.1522 H         1 UNK         0.0600 
    162 H162       -3.3878  -13.1519  -38.0477 H         1 UNK         0.0600 
    163 H163       -1.9005  -12.5929  -37.3000 H         1 UNK         0.0600 
    164 H164       -0.0551  -14.5223  -37.8787 H         1 UNK         0.3000 
    165 H165        2.9415  -13.5224  -39.3887 H         1 UNK         0.0600 
    166 H166        1.7058  -14.9340  -36.9606 H         1 UNK         0.0600 
    167 H167        3.3374  -14.2976  -37.1064 H         1 UNK         0.0600 
    168 H168        1.9714  -13.1975  -37.0927 H         1 UNK         0.0600 
    169 H169        3.5869  -15.5506  -39.9425 H         1 UNK         0.3000 
    170 H170        3.4831  -18.3121  -39.0964 H         1 UNK         0.0600 
    171 H171        1.4107  -19.5389  -39.3622 H         1 UNK         0.0600 
    172 H172        1.0853  -18.8027  -40.9243 H         1 UNK         0.0600 
    173 H173        2.4188  -19.9453  -40.7414 H         1 UNK         0.0600 
    174 H174        3.1581  -16.9537  -41.7150 H         1 UNK         0.3000 
    175 H175        6.6501  -17.0145  -42.1143 H         1 UNK         0.0600 
    176 H176        4.7773  -18.4783  -44.0468 H         1 UNK         0.0600 
    177 H177        6.3733  -17.8382  -44.4233 H         1 UNK         0.0600 
    178 H178        6.2093  -19.1844  -43.3064 H         1 UNK         0.0600 
    179 H179        4.6068  -16.0619  -43.8556 H         1 UNK         0.3000 
    180 H180        3.4458  -13.3150  -42.0604 H         1 UNK         0.0600 
    181 H181        5.5686  -13.0739  -44.2578 H         1 UNK         0.0600 
    182 H182        5.6394  -12.2967  -42.6804 H         1 UNK         0.0600 
    183 H183        4.3867  -11.8394  -43.8241 H         1 UNK         0.0600 
    184 H184        3.2029  -13.7716  -44.8052 H         1 UNK         0.3000 
    185 H185        0.9197  -16.4753  -44.8634 H         1 UNK         0.0600 
    186 H186       -0.5423  -14.6179  -43.9869 H         1 UNK         0.0600 
    187 H187        0.2328  -13.4979  -45.0966 H         1 UNK         0.0600 
    188 H188       -0.7173  -14.8505  -45.7184 H         1 UNK         0.0600 
    189 H189        1.5740  -14.5370  -46.8325 H         1 UNK         0.3000 
    190 H190       -0.2775  -19.5326  -47.6356 H         1 UNK         0.3000 
    191 H191       -1.6560  -20.4916  -49.9965 H         1 UNK         0.0600 
    192 H192       -3.3994  -18.7889  -49.2194 H         1 UNK         0.0600 
    193 H193       -1.7911  -18.1407  -49.4991 H         1 UNK         0.0600 
    194 H194       -2.3556  -18.4249  -47.8611 H         1 UNK         0.0600 
    195 H195       -1.8186  -21.2973  -46.5689 H         1 UNK         0.3000 
    196 H196       -4.3681  -22.7335  -46.7876 H         1 UNK         0.0600 
    197 H197       -3.7445  -23.5975  -44.5142 H         1 UNK         0.0600 
    198 H198       -3.7832  -21.8513  -44.5861 H         1 UNK         0.0600 
    199 H199       -2.2388  -22.6986  -44.5841 H         1 UNK         0.0600 
    200 H200       -0.8690  -23.4907  -46.7711 H         1 UNK         0.3000 
    201 H201       -1.0808  -26.3028  -47.0356 H         1 UNK         0.0600 
    202 H202        0.9921  -25.1136  -46.3271 H         1 UNK         0.0600 
    203 H203        1.1730  -24.4329  -47.9425 H         1 UNK         0.0600 
    204 H204        1.3078  -26.1681  -47.6975 H         1 UNK         0.0600 
    205 H205       -0.8205  -23.7445  -49.5377 H         1 UNK         0.3000 
    206 H206       -0.9209  -25.5287  -51.7912 H         1 UNK         0.0600 
    207 H207        0.1017  -23.2699  -51.8900 H         1 UNK         0.0600 
    208 H208       -1.1998  -23.3917  -53.0619 H         1 UNK         0.0600 
    209 H209       -1.4606  -22.5195  -51.5563 H         1 UNK         0.0600 
    210 H210       -3.3813  -24.3530  -49.6937 H         1 UNK         0.3000 
    211 H211       -5.5908  -24.3069  -49.6149 H         1 UNK         0.0600 
    212 H212       -5.5942  -26.3508  -51.9045 H         1 UNK         0.0600 
    213 H213       -6.9367  -25.9817  -50.8348 H         1 UNK         0.0600 
    214 H214       -5.4871  -26.7355  -50.1873 H         1 UNK         0.0600 
    215 H215       -4.7715  -22.1383  -50.4815 H         1 UNK         0.3000 
    216 H216       -4.8244  -21.2280  -53.0051 H         1 UNK         0.0600 
    217 H217       -5.2233  -18.9271  -51.9249 H         1 UNK         0.0600 
    218 H218       -3.9517  -19.8985  -51.2013 H         1 UNK         0.0600 
    219 H219       -5.5247  -19.7711  -50.4130 H         1 UNK         0.0600 
    220 H220       -7.7660  -21.4933  -51.0391 H         1 UNK         0.3000 
    221 H221       -9.4807  -19.9898  -52.7731 H         1 UNK         0.0600 
    222 H222      -10.1276  -22.1230  -50.6673 H         1 UNK         0.0600 
    223 H223      -10.0020  -20.3867  -50.3807 H         1 UNK         0.0600 
    224 H224      -11.2906  -21.0194  -51.3923 H         1 UNK         0.0600 
    225 H225       -8.3970  -23.3514  -52.8162 H         1 UNK         0.3000 
    226 H226      -10.3950  -24.1567  -54.8600 H         1 UNK         0.0600 
    227 H227       -9.9195  -25.7398  -53.0018 H         1 UNK         0.0600 
    228 H228       -9.3917  -26.4042  -54.5405 H         1 UNK         0.0600 
    229 H229       -8.2067  -25.7488  -53.4177 H         1 UNK         0.0600 
    230 H230       -6.8950  -23.6256  -54.3793 H         1 UNK         0.3000 
    231 H231       -6.0849  -24.3606  -57.0240 H         1 UNK         0.0600 
    232 H232       -4.5883  -24.4458  -55.0430 H         1 UNK         0.0600 
    233 H233       -4.6746  -22.6954  -54.8708 H         1 UNK         0.0600 
    234 H234       -3.8988  -23.4066  -56.2802 H         1 UNK         0.0600 
    235 H235       -7.4112  -21.4166  -55.7716 H         1 UNK         0.3000 
    236 H236       -7.8570  -19.3937  -56.5219 H         1 UNK         0.0600 
    237 H237       -8.0673  -18.8836  -58.9155 H         1 UNK         0.0600 
    238 H238       -7.1612  -20.3214  -59.3593 H         1 UNK         0.0600 
    239 H239       -8.7459  -20.4729  -58.6013 H         1 UNK         0.0600 
    240 H240       -5.5836  -19.7604  -55.2533 H         1 UNK         0.3000 
    241 H241       -3.2477  -18.6837  -56.6076 H         1 UNK         0.0600 
    242 H242       -2.4089  -16.5305  -56.4779 H         1 UNK         0.3800 
    243 H243       -3.2662  -15.2463  -55.6740 H         1 UNK         0.3800 
    244 H244       -3.2638  -20.4308  -54.7022 H         1 UNK         0.0800 
    245 H245       -3.6021  -19.1167  -53.6096 H         1 UNK         0.0800 
    246 H246       -1.7190  -19.3192  -52.1155 H         1 UNK         0.0800 
    247 H247       -1.5714  -17.6316  -52.5506 H         1 UNK         0.0800 
@<TRIPOS>BOND
     1    1    2 1    
     2    1  127 1    
     3    1  128 1    
     4    1  129 1    
     5    2    3 2    
     6    2    4 am   BACKBONE|DICT|INTERRES
     7    4    5 1    
     8    4  130 1    
     9    5    6 1    
    10    5   65 1    
    11    5  131 1    
    12    6    7 1    
    13    6  132 1    
    14    6  133 1    
    15    7    8 1    
    16    8    9 1    
    17    8  134 1    
    18    8  135 1    
    19    9   10 ar   
    20    9   14 ar   
    21   10   11 ar   
    22   10  136 1    
    23   11   12 ar   
    24   11  126 1    
    25   12   13 ar   
    26   12  137 1    
    27   13   14 ar   
    28   13   15 1    
    29   14  138 1    
    30   15   16 1    
    31   15  139 1    
    32   15  140 1    
    33   16   17 1    
    34   17   18 1    
    35   17  141 1    
    36   17  142 1    
    37   18   19 1    
    38   18   67 1    
    39   18  143 1    
    40   19   20 am   BACKBONE|DICT|INTERRES
    41   19  144 1    
    42   20   21 2    
    43   20   22 1    
    44   22   23 1    
    45   22   24 1    
    46   22  145 1    
    47   23  146 1    
    48   23  147 1    
    49   23  148 1    
    50   24   25 am   BACKBONE|DICT|INTERRES
    51   24  149 1    
    52   25   26 2    
    53   25   27 1    
    54   27   28 1    
    55   27   29 1    
    56   27  150 1    
    57   28  151 1    
    58   28  152 1    
    59   28  153 1    
    60   29   30 am   BACKBONE|DICT|INTERRES
    61   29  154 1    
    62   30   31 2    
    63   30   32 1    
    64   32   33 1    
    65   32   34 1    
    66   32  155 1    
    67   33  156 1    
    68   33  157 1    
    69   33  158 1    
    70   34   35 am   BACKBONE|DICT|INTERRES
    71   34  159 1    
    72   35   36 2    
    73   35   37 1    
    74   37   38 1    
    75   37   39 1    
    76   37  160 1    
    77   38  161 1    
    78   38  162 1    
    79   38  163 1    
    80   39   40 am   BACKBONE|DICT|INTERRES
    81   39  164 1    
    82   40   41 2    
    83   40   42 1    
    84   42   43 1    
    85   42   44 1    
    86   42  165 1    
    87   43  166 1    
    88   43  167 1    
    89   43  168 1    
    90   44   45 am   BACKBONE|DICT|INTERRES
    91   44  169 1    
    92   45   46 2    
    93   45   47 1    
    94   47   48 1    
    95   47   49 1    
    96   47  170 1    
    97   48  171 1    
    98   48  172 1    
    99   48  173 1    
   100   49   50 am   BACKBONE|DICT|INTERRES
   101   49  174 1    
   102   50   51 2    
   103   50   52 1    
   104   52   53 1    
   105   52   54 1    
   106   52  175 1    
   107   53  176 1    
   108   53  177 1    
   109   53  178 1    
   110   54   55 am   BACKBONE|DICT|INTERRES
   111   54  179 1    
   112   55   56 2    
   113   55   57 1    
   114   57   58 1    
   115   57   59 1    
   116   57  180 1    
   117   58  181 1    
   118   58  182 1    
   119   58  183 1    
   120   59   60 am   BACKBONE|DICT|INTERRES
   121   59  184 1    
   122   60   61 2    
   123   60   62 1    
   124   62   63 1    
   125   62   64 1    
   126   62  185 1    
   127   63  186 1    
   128   63  187 1    
   129   63  188 1    
   130   64   65 am   BACKBONE|DICT|INTERRES
   131   64  189 1    
   132   65   66 2    
   133   67   68 2    
   134   67   69 am   BACKBONE|DICT|INTERRES
   135   69   70 1    
   136   69  190 1    
   137   70   71 1    
   138   70   72 1    
   139   70  191 1    
   140   71  192 1    
   141   71  193 1    
   142   71  194 1    
   143   72   73 2    
   144   72   74 am   BACKBONE|DICT|INTERRES
   145   74   75 1    
   146   74  195 1    
   147   75   76 1    
   148   75   77 1    
   149   75  196 1    
   150   76  197 1    
   151   76  198 1    
   152   76  199 1    
   153   77   78 2    
   154   77   79 am   BACKBONE|DICT|INTERRES
   155   79   80 1    
   156   79  200 1    
   157   80   81 1    
   158   80   82 1    
   159   80  201 1    
   160   81  202 1    
   161   81  203 1    
   162   81  204 1    
   163   82   83 2    
   164   82   84 am   BACKBONE|DICT|INTERRES
   165   84   85 1    
   166   84  205 1    
   167   85   86 1    
   168   85   87 1    
   169   85  206 1    
   170   86  207 1    
   171   86  208 1    
   172   86  209 1    
   173   87   88 2    
   174   87   89 am   BACKBONE|DICT|INTERRES
   175   89   90 1    
   176   89  210 1    
   177   90   91 1    
   178   90   92 1    
   179   90  211 1    
   180   91  212 1    
   181   91  213 1    
   182   91  214 1    
   183   92   93 2    
   184   92   94 am   BACKBONE|DICT|INTERRES
   185   94   95 1    
   186   94  215 1    
   187   95   96 1    
   188   95   97 1    
   189   95  216 1    
   190   96  217 1    
   191   96  218 1    
   192   96  219 1    
   193   97   98 2    
   194   97   99 am   BACKBONE|DICT|INTERRES
   195   99  100 1    
   196   99  220 1    
   197  100  101 1    
   198  100  102 1    
   199  100  221 1    
   200  101  222 1    
   201  101  223 1    
   202  101  224 1    
   203  102  103 2    
   204  102  104 am   BACKBONE|DICT|INTERRES
   205  104  105 1    
   206  104  225 1    
   207  105  106 1    
   208  105  107 1    
   209  105  226 1    
   210  106  227 1    
   211  106  228 1    
   212  106  229 1    
   213  107  108 2    
   214  107  109 am   BACKBONE|DICT|INTERRES
   215  109  110 1    
   216  109  230 1    
   217  110  111 1    
   218  110  112 1    
   219  110  231 1    
   220  111  232 1    
   221  111  233 1    
   222  111  234 1    
   223  112  113 2    
   224  112  114 am   BACKBONE|DICT|INTERRES
   225  114  115 1    
   226  114  235 1    
   227  115  116 1    
   228  115  117 1    
   229  115  236 1    
   230  116  237 1    
   231  116  238 1    
   232  116  239 1    
   233  117  118 2    
   234  117  119 am   BACKBONE|DICT|INTERRES
   235  119  120 1    
   236  119  240 1    
   237  120  121 1    
   238  120  124 1    
   239  120  241 1    
   240  121  122 am   BACKBONE|DICT|INTERRES
   241  121  123 2    
   242  122  242 1    
   243  122  243 1    
   244  124  125 1    
   245  124  244 1    
   246  124  245 1    
   247  125  126 1    
   248  126  246 1    
   249  126  247 1    
@<TRIPOS>SUBSTRUCTURE
     1 UNK         1 GROUP             0       ****    0 ROOT    
