@<TRIPOS>MOLECULE
3R540
247   249    1
SMALL
USER_CHARGES


@<TRIPOS>ATOM
      1 CA         -3.2638  -15.2915  -46.0776 C.3       0 UNK        -0.1800 
      2 C          -2.4996  -13.9749  -46.0265 C.2       0 UNK         0.5000 
      3 O          -3.0507  -12.9619  -45.5967 O.2       0 UNK        -0.5000 
      4 N          -1.2389  -13.9869  -46.4769 N.am      1 UNK        -0.5000 
      5 CA         -0.3446  -12.8259  -46.5305 C.3       1 UNK         0.1400 
      6 C6          0.9431  -13.1151  -47.3435 C.3       23 UNK        -0.0398 
      7 S7          0.5844  -13.6056  -49.0637 S.3       23 UNK        -0.2404 
      8 C8          0.9689  -15.3831  -49.0131 C.3       23 UNK        -0.0205 
      9 C9          0.2820  -16.1196  -50.1515 C.ar      23 UNK        -0.0193 
     10 C10         0.9909  -16.4399  -51.3131 C.ar      23 UNK        -0.1150 
     11 C11         0.3540  -17.0817  -52.3792 C.ar      23 UNK        -0.0193 
     12 C12        -1.0044  -17.3969  -52.2748 C.ar      23 UNK        -0.1150 
     13 C13        -1.7281  -17.0757  -51.1226 C.ar      23 UNK        -0.0193 
     14 C14        -1.0747  -16.4498  -50.0570 C.ar      23 UNK        -0.1150 
     15 C15        -3.2318  -17.3165  -51.0777 C.3       23 UNK        -0.0205 
     16 S16        -3.6808  -19.0765  -51.2033 S.3       23 UNK        -0.2404 
     17 C17        -3.7980  -19.6008  -49.4615 C.3       23 UNK        -0.0398 
     18 CA         -2.8799  -20.8079  -49.1657 C.3       11 UNK         0.1400 
     19 N          -1.4608  -20.4439  -49.1960 N.am      11 UNK        -0.5000 
     20 C          -0.4526  -21.3262  -49.1818 C.2       10 UNK         0.5000 
     21 O          -0.6098  -22.5450  -49.1641 O.2       10 UNK        -0.5000 
     22 CA          0.9688  -20.7444  -49.1138 C.3       10 UNK         0.1400 
     23 CB          1.4355  -20.3145  -50.5088 C.3       10 UNK        -0.1800 
     24 N           1.0746  -19.6132  -48.1876 N.am      10 UNK        -0.5000 
     25 C           0.8165  -19.6937  -46.8755 C.2       9 UNK         0.5000 
     26 O           0.4453  -20.7281  -46.3172 O.2       9 UNK        -0.5000 
     27 CA          0.9157  -18.3862  -46.0707 C.3       9 UNK         0.1400 
     28 CB         -0.4172  -17.6289  -46.1571 C.3       9 UNK        -0.1800 
     29 N           1.2292  -18.6237  -44.6612 N.am      9 UNK        -0.5000 
     30 C           2.3738  -19.1605  -44.2122 C.2       8 UNK         0.5000 
     31 O           3.3221  -19.4392  -44.9481 O.2       8 UNK        -0.5000 
     32 CA          2.5022  -19.4117  -42.6965 C.3       8 UNK         0.1400 
     33 CB          3.8511  -18.9113  -42.1499 C.3       8 UNK        -0.1800 
     34 N           1.4142  -18.7987  -41.9279 N.am      8 UNK        -0.5000 
     35 C           0.3397  -19.4670  -41.4852 C.2       7 UNK         0.5000 
     36 O           0.1467  -20.6648  -41.6952 O.2       7 UNK        -0.5000 
     37 CA         -0.7005  -18.6790  -40.6680 C.3       7 UNK         0.1400 
     38 CB         -0.3447  -18.7141  -39.1741 C.3       7 UNK        -0.1800 
     39 N          -0.8669  -17.2862  -41.0795 N.am      7 UNK        -0.5000 
     40 C          -1.3328  -16.8651  -42.2600 C.2       6 UNK         0.5000 
     41 O          -1.6086  -17.6268  -43.1839 O.2       6 UNK        -0.5000 
     42 CA         -1.5176  -15.3461  -42.4605 C.3       6 UNK         0.1400 
     43 CB         -2.9074  -14.8821  -41.9904 C.3       6 UNK        -0.1800 
     44 N          -0.4523  -14.5133  -41.8936 N.am      6 UNK        -0.5000 
     45 C          -0.0720  -14.3613  -40.6159 C.2       5 UNK         0.5000 
     46 O          -0.6807  -14.8461  -39.6605 O.2       5 UNK        -0.5000 
     47 CA          1.2436  -13.5887  -40.3756 C.3       5 UNK         0.1400 
     48 CB          1.9596  -14.0319  -39.0832 C.3       5 UNK        -0.1800 
     49 N           2.1696  -13.6459  -41.5139 N.am      5 UNK        -0.5000 
     50 C           2.6847  -14.7402  -42.1020 C.2       4 UNK         0.5000 
     51 O           2.4492  -15.8891  -41.7230 O.2       4 UNK        -0.5000 
     52 CA          3.5624  -14.5204  -43.3533 C.3       4 UNK         0.1400 
     53 CB          3.1318  -15.4474  -44.5030 C.3       4 UNK        -0.1800 
     54 N           3.4789  -13.1399  -43.8296 N.am      4 UNK        -0.5000 
     55 C           4.4007  -12.1870  -43.6377 C.2       3 UNK         0.5000 
     56 O           5.4839  -12.3825  -43.0863 O.2       3 UNK        -0.5000 
     57 CA          4.0432  -10.7663  -44.1249 C.3       3 UNK         0.1400 
     58 CB          4.7033  -10.4855  -45.4834 C.3       3 UNK        -0.1800 
     59 N           2.6002  -10.5325  -44.2436 N.am      3 UNK        -0.5000 
     60 C           1.7337  -10.5121  -43.2204 C.2       2 UNK         0.5000 
     61 O           2.0663  -10.6437  -42.0429 O.2       2 UNK        -0.5000 
     62 CA          0.2396  -10.4039  -43.5807 C.3       2 UNK         0.1400 
     63 CB         -0.2022   -8.9336  -43.6153 C.3       2 UNK        -0.1800 
     64 N          -0.0981  -11.0430  -44.8576 N.am      2 UNK        -0.5000 
     65 C           0.0288  -12.3524  -45.1131 C.2       1 UNK         0.5000 
     66 O           0.4719  -13.1673  -44.2995 O.2       1 UNK        -0.5000 
     67 C          -3.2822  -21.4869  -47.8400 C.2       11 UNK         0.5000 
     68 O          -4.1080  -22.3998  -47.8621 O.2       11 UNK        -0.5000 
     69 N          -2.6799  -21.0591  -46.7202 N.am      12 UNK        -0.5000 
     70 CA         -2.8860  -21.6577  -45.4007 C.3       12 UNK         0.1400 
     71 CB         -2.3871  -20.7046  -44.3043 C.3       12 UNK        -0.1800 
     72 C          -2.2154  -23.0373  -45.2924 C.2       12 UNK         0.5000 
     73 O          -2.8402  -23.9745  -44.7967 O.2       12 UNK        -0.5000 
     74 N          -0.9854  -23.1547  -45.8129 N.am      13 UNK        -0.5000 
     75 CA         -0.2311  -24.4068  -45.9132 C.3       13 UNK         0.1400 
     76 CB          1.1949  -24.1045  -46.3974 C.3       13 UNK        -0.1800 
     77 C          -0.9146  -25.4445  -46.8258 C.2       13 UNK         0.5000 
     78 O          -0.9199  -26.6323  -46.5017 O.2       13 UNK        -0.5000 
     79 N          -1.5206  -24.9693  -47.9222 N.am      14 UNK        -0.5000 
     80 CA         -2.3478  -25.7522  -48.8420 C.3       14 UNK         0.1400 
     81 CB         -2.4522  -24.9994  -50.1801 C.3       14 UNK        -0.1800 
     82 C          -3.7574  -26.0626  -48.2966 C.2       14 UNK         0.5000 
     83 O          -4.5020  -26.7809  -48.9622 O.2       14 UNK        -0.5000 
     84 N          -4.1249  -25.4969  -47.1356 N.am      15 UNK        -0.5000 
     85 CA         -5.4254  -25.6098  -46.4622 C.3       15 UNK         0.1400 
     86 CB         -5.6186  -27.0353  -45.9055 C.3       15 UNK        -0.1800 
     87 C          -6.6073  -25.1417  -47.3405 C.2       15 UNK         0.5000 
     88 O          -7.6973  -25.7121  -47.2696 O.2       15 UNK        -0.5000 
     89 N          -6.3494  -24.1217  -48.1729 N.am      16 UNK        -0.5000 
     90 CA         -7.2392  -23.5278  -49.1742 C.3       16 UNK         0.1400 
     91 CB         -8.4142  -22.7986  -48.4906 C.3       16 UNK        -0.1800 
     92 C          -7.7039  -24.5061  -50.2784 C.2       16 UNK         0.5000 
     93 O          -8.7266  -24.2528  -50.9177 O.2       16 UNK        -0.5000 
     94 N          -6.9493  -25.5931  -50.5117 N.am      17 UNK        -0.5000 
     95 CA         -7.2385  -26.5937  -51.5465 C.3       17 UNK         0.1400 
     96 CB         -6.3859  -27.8469  -51.3007 C.3       17 UNK        -0.1800 
     97 C          -7.0230  -26.0735  -52.9818 C.2       17 UNK         0.5000 
     98 O          -7.6127  -26.6169  -53.9169 O.2       17 UNK        -0.5000 
     99 N          -6.1994  -25.0303  -53.1277 N.am      18 UNK        -0.5000 
    100 CA        -5.9798  -24.2849  -54.3588 C.3       18 UNK         0.1400 
    101 CB        -4.6411  -24.7079  -54.9849 C.3       18 UNK        -0.1800 
    102 C         -5.9720  -22.7936  -54.0044 C.2       18 UNK         0.5000 
    103 O         -5.4318  -22.4232  -52.9592 O.2       18 UNK        -0.5000 
    104 N         -6.5590  -21.9699  -54.8804 N.am      19 UNK        -0.5000 
    105 CA        -6.6134  -20.5140  -54.7272 C.3       19 UNK         0.1400 
    106 CB        -7.7961  -19.9671  -55.5416 C.3       19 UNK        -0.1800 
    107 C         -5.3030  -19.8260  -55.1519 C.2       19 UNK         0.5000 
    108 O         -4.9882  -18.7547  -54.6340 O.2       19 UNK        -0.5000 
    109 N         -4.5721  -20.4436  -56.0918 N.am      20 UNK        -0.5000 
    110 CA        -3.2625  -19.9808  -56.5493 C.3       20 UNK         0.1400 
    111 CB        -2.9461  -20.5963  -57.9219 C.3       20 UNK        -0.1800 
    112 C         -2.1658  -20.3168  -55.5263 C.2       20 UNK         0.5000 
    113 O         -1.3956  -19.4330  -55.1553 O.2       20 UNK        -0.5000 
    114 N         -2.1415  -21.5862  -55.0905 N.am      21 UNK        -0.5000 
    115 CA        -1.2695  -22.2204  -54.0919 C.3       21 UNK         0.1400 
    116 CB        -1.5213  -21.6381  -52.6918 C.3       21 UNK        -0.1800 
    117 C          0.2364  -22.2283  -54.4294 C.2       21 UNK         0.5000 
    118 O          0.8561  -23.2921  -54.3927 O.2       21 UNK        -0.5000 
    119 N          0.7974  -21.0574  -54.7402 N.am      22 UNK        -0.5000 
    120 CA         2.1940  -20.8504  -55.1427 C.3       22 UNK         0.1400 
    121 C          2.4937  -21.4324  -56.5518 C.2       22 UNK         0.5000 
    122 N          3.6844  -21.9765  -56.7637 N.am      22 UNK        -0.7600 
    123 O          1.6757  -21.3574  -57.4665 O.2       22 UNK        -0.5000 
    124 C124        2.5905  -19.3529  -55.0793 C.3       23 UNK        -0.0398 
    125 S125        2.4018  -18.6566  -53.4014 S.3       23 UNK        -0.2404 
    126 C126        1.1165  -17.3934  -53.6600 C.3       23 UNK        -0.0205 
    127 H127       -2.7916  -16.0067  -46.7505 H         1 UNK         0.0600 
    128 H128       -4.2806  -15.1227  -46.4320 H         1 UNK         0.0600 
    129 H129       -3.3189  -15.7385  -45.0853 H         1 UNK         0.0600 
    130 H130       -0.8443  -14.8498  -46.8127 H         1 UNK         0.3000 
    131 H131       -0.8867  -12.0208  -47.0315 H         1 UNK         0.0600 
    132 H132        1.5708  -12.2231  -47.3874 H         1 UNK         0.0800 
    133 H133        1.5489  -13.8836  -46.8596 H         1 UNK         0.0800 
    134 H134        0.6514  -15.8033  -48.0616 H         1 UNK         0.0800 
    135 H135        2.0506  -15.5179  -49.0620 H         1 UNK         0.0800 
    136 H136        2.0364  -16.1781  -51.3969 H         1 UNK         0.1150 
    137 H137       -1.5137  -17.8696  -53.1025 H         1 UNK         0.1150 
    138 H138       -1.6318  -16.1739  -49.1731 H         1 UNK         0.1150 
    139 H139       -3.6795  -16.8762  -50.1857 H         1 UNK         0.0800 
    140 H140       -3.6822  -16.7950  -51.9234 H         1 UNK         0.0800 
    141 H141       -4.8441  -19.8579  -49.2832 H         1 UNK         0.0800 
    142 H142       -3.5705  -18.7690  -48.7931 H         1 UNK         0.0800 
    143 H143       -3.0420  -21.5517  -49.9490 H         1 UNK         0.0600 
    144 H144       -1.2448  -19.4598  -49.2450 H         1 UNK         0.3000 
    145 H145        1.6357  -21.5318  -48.7568 H         1 UNK         0.0600 
    146 H146        2.4592  -19.9409  -50.4876 H         1 UNK         0.0600 
    147 H147        1.4100  -21.1518  -51.2077 H         1 UNK         0.0600 
    148 H148        0.7991  -19.5301  -50.9185 H         1 UNK         0.0600 
    149 H149        1.3673  -18.7334  -48.5860 H         1 UNK         0.3000 
    150 H150        1.7081  -17.7680  -46.4974 H         1 UNK         0.0600 
    151 H151       -0.6989  -17.4342  -47.1911 H         1 UNK         0.0600 
    152 H152       -0.3593  -16.6725  -45.6378 H         1 UNK         0.0600 
    153 H153       -1.2313  -18.2016  -45.7126 H         1 UNK         0.0600 
    154 H154        0.4849  -18.4551  -43.9980 H         1 UNK         0.3000 
    155 H155        2.4868  -20.4951  -42.5629 H         1 UNK         0.0600 
    156 H156        4.0079  -17.8533  -42.3542 H         1 UNK         0.0600 
    157 H157        4.6814  -19.4543  -42.6028 H         1 UNK         0.0600 
    158 H158        3.9199  -19.0586  -41.0720 H         1 UNK         0.0600 
    159 H159        1.5084  -17.8076  -41.7292 H         1 UNK         0.3000 
    160 H160       -1.6633  -19.1769  -40.8011 H         1 UNK         0.0600 
    161 H161        0.5926  -18.1933  -38.9734 H         1 UNK         0.0600 
    162 H162       -0.2340  -19.7403  -38.8210 H         1 UNK         0.0600 
    163 H163       -1.1236  -18.2459  -38.5720 H         1 UNK         0.0600 
    164 H164       -0.6856  -16.5741  -40.3777 H         1 UNK         0.3000 
    165 H165       -1.4615  -15.1768  -43.5355 H         1 UNK         0.0600 
    166 H166       -3.0409  -15.0132  -40.9164 H         1 UNK         0.0600 
    167 H167       -3.0689  -13.8298  -42.2246 H         1 UNK         0.0600 
    168 H168       -3.6949  -15.4497  -42.4876 H         1 UNK         0.0600 
    169 H169        0.1229  -14.0610  -42.5989 H         1 UNK         0.3000 
    170 H170        0.9628  -12.5413  -40.2589 H         1 UNK         0.0600 
    171 H171        1.3319  -13.8620  -38.2077 H         1 UNK         0.0600 
    172 H172        2.2117  -15.0927  -39.1044 H         1 UNK         0.0600 
    173 H173        2.8819  -13.4709  -38.9320 H         1 UNK         0.0600 
    174 H174        2.4093  -12.7431  -41.9050 H         1 UNK         0.3000 
    175 H175        4.5900  -14.7673  -43.0803 H         1 UNK         0.0600 
    176 H176        2.0650  -15.3664  -44.7149 H         1 UNK         0.0600 
    177 H177        3.6757  -15.2227  -45.4205 H         1 UNK         0.0600 
    178 H178        3.3407  -16.4863  -44.2564 H         1 UNK         0.0600 
    179 H179        2.5941  -12.8827  -44.2482 H         1 UNK         0.3000 
    180 H180        4.4417  -10.0587  -43.3948 H         1 UNK         0.0600 
    181 H181        4.3283  -11.1544  -46.2592 H         1 UNK         0.0600 
    182 H182        5.7844  -10.6204  -45.4282 H         1 UNK         0.0600 
    183 H183        4.5221   -9.4601  -45.8062 H         1 UNK         0.0600 
    184 H184        2.2386  -10.4071  -45.1773 H         1 UNK         0.3000 
    185 H185       -0.3240  -10.9123  -42.7953 H         1 UNK         0.0600 
    186 H186        0.3078   -8.3773  -44.4027 H         1 UNK         0.0600 
    187 H187       -1.2758   -8.8483  -43.7842 H         1 UNK         0.0600 
    188 H188        0.0163   -8.4377  -42.6684 H         1 UNK         0.0600 
    189 H189       -0.4733  -10.4371  -45.5736 H         1 UNK         0.3000 
    190 H190       -1.9633  -20.3528  -46.7892 H         1 UNK         0.3000 
    191 H191       -3.9592  -21.7984  -45.2543 H         1 UNK         0.0600 
    192 H192       -2.5654  -21.1231  -43.3131 H         1 UNK         0.0600 
    193 H193       -2.9075  -19.7481  -44.3494 H         1 UNK         0.0600 
    194 H194       -1.3181  -20.5080  -44.3829 H         1 UNK         0.0600 
    195 H195       -0.5215  -22.3163  -46.1554 H         1 UNK         0.3000 
    196 H196       -0.1670  -24.8363  -44.9114 H         1 UNK         0.0600 
    197 H197        1.1963  -23.6627  -47.3940 H         1 UNK         0.0600 
    198 H198        1.7007  -23.4112  -45.7250 H         1 UNK         0.0600 
    199 H199        1.7941  -25.0147  -46.4401 H         1 UNK         0.0600 
    200 H200       -1.3869  -23.9909  -48.1633 H         1 UNK         0.3000 
    201 H201       -1.8532  -26.7079  -49.0260 H         1 UNK         0.0600 
    202 H202       -2.9543  -24.0388  -50.0614 H         1 UNK         0.0600 
    203 H203       -3.0159  -25.5751  -50.9154 H         1 UNK         0.0600 
    204 H204       -1.4664  -24.8107  -50.6055 H         1 UNK         0.0600 
    205 H205       -3.4509  -24.9080  -46.6629 H         1 UNK         0.3000 
    206 H206       -5.3901  -24.9250  -45.6140 H         1 UNK         0.0600 
    207 H207       -4.7758  -27.3304  -45.2804 H         1 UNK         0.0600 
    208 H208       -6.5158  -27.0973  -45.2887 H         1 UNK         0.0600 
    209 H209       -5.7183  -27.7712  -46.7041 H         1 UNK         0.0600 
    210 H210       -5.4301  -23.6878  -48.1093 H         1 UNK         0.3000 
    211 H211       -6.6413  -22.7720  -49.6859 H         1 UNK         0.0600 
    212 H212       -8.9914  -22.2198  -49.2125 H         1 UNK         0.0600 
    213 H213       -8.0571  -22.1020  -47.7320 H         1 UNK         0.0600 
    214 H214       -9.0993  -23.4973  -48.0097 H         1 UNK         0.0600 
    215 H215       -6.1399  -25.7701  -49.9274 H         1 UNK         0.3000 
    216 H216       -8.2889  -26.8779  -51.4556 H         1 UNK         0.0600 
    217 H217       -5.3212  -27.6346  -51.4050 H         1 UNK         0.0600 
    218 H218       -6.6338  -28.6343  -52.0136 H         1 UNK         0.0600 
    219 H219       -6.5529  -28.2492  -50.3013 H         1 UNK         0.0600 
    220 H220       -5.7966  -24.6083  -52.3019 H         1 UNK         0.3000 
    221 H221       -6.7882  -24.4750  -55.0681 H         1 UNK         0.0600 
    222 H222       -4.6431  -25.7693  -55.2331 H         1 UNK         0.0600 
    223 H223       -3.8055  -24.5257  -54.3079 H         1 UNK         0.0600 
    224 H224       -4.4481  -24.1587  -55.9069 H         1 UNK         0.0600 
    225 H225       -6.9974  -22.3541  -55.7054 H         1 UNK         0.3000 
    226 H226       -6.7869  -20.2741  -53.6756 H         1 UNK         0.0600 
    227 H227       -7.6866  -20.1792  -56.6059 H         1 UNK         0.0600 
    228 H228       -8.7388  -20.4006  -55.2073 H         1 UNK         0.0600 
    229 H229       -7.8795  -18.8853  -55.4296 H         1 UNK         0.0600 
    230 H230       -4.9184  -21.3072  -56.4806 H         1 UNK         0.3000 
    231 H231       -3.2923  -18.8952  -56.6670 H         1 UNK         0.0600 
    232 H232       -2.9360  -21.6863  -57.8894 H         1 UNK         0.0600 
    233 H233       -1.9677  -20.2701  -58.2777 H         1 UNK         0.0600 
    234 H234       -3.6803  -20.2908  -58.6675 H         1 UNK         0.0600 
    235 H235       -2.8185  -22.2109  -55.5006 H         1 UNK         0.3000 
    236 H236       -1.5813  -23.2655  -54.0608 H         1 UNK         0.0600 
    237 H237       -1.2295  -20.5894  -52.6233 H         1 UNK         0.0600 
    238 H238       -0.9540  -22.1884  -51.9417 H         1 UNK         0.0600 
    239 H239       -2.5745  -21.7127  -52.4211 H         1 UNK         0.0600 
    240 H240        0.1823  -20.2493  -54.7959 H         1 UNK         0.3000 
    241 H241        2.8147  -21.3891  -54.4238 H         1 UNK         0.0600 
    242 H242        3.8985  -22.3445  -57.6779 H         1 UNK         0.3800 
    243 H243        4.3753  -22.0427  -56.0318 H         1 UNK         0.3800 
    244 H244        2.0086  -18.7712  -55.7962 H         1 UNK         0.0800 
    245 H245        3.6355  -19.2264  -55.3673 H         1 UNK         0.0800 
    246 H246        0.4240  -17.7250  -54.4333 H         1 UNK         0.0800 
    247 H247        1.5815  -16.4818  -54.0373 H         1 UNK         0.0800 
@<TRIPOS>BOND
     1    1    2 1    
     2    1  127 1    
     3    1  128 1    
     4    1  129 1    
     5    2    3 2    
     6    2    4 am   BACKBONE|DICT|INTERRES
     7    4    5 1    
     8    4  130 1    
     9    5    6 1    
    10    5   65 1    
    11    5  131 1    
    12    6    7 1    
    13    6  132 1    
    14    6  133 1    
    15    7    8 1    
    16    8    9 1    
    17    8  134 1    
    18    8  135 1    
    19    9   10 ar   
    20    9   14 ar   
    21   10   11 ar   
    22   10  136 1    
    23   11   12 ar   
    24   11  126 1    
    25   12   13 ar   
    26   12  137 1    
    27   13   14 ar   
    28   13   15 1    
    29   14  138 1    
    30   15   16 1    
    31   15  139 1    
    32   15  140 1    
    33   16   17 1    
    34   17   18 1    
    35   17  141 1    
    36   17  142 1    
    37   18   19 1    
    38   18   67 1    
    39   18  143 1    
    40   19   20 am   BACKBONE|DICT|INTERRES
    41   19  144 1    
    42   20   21 2    
    43   20   22 1    
    44   22   23 1    
    45   22   24 1    
    46   22  145 1    
    47   23  146 1    
    48   23  147 1    
    49   23  148 1    
    50   24   25 am   BACKBONE|DICT|INTERRES
    51   24  149 1    
    52   25   26 2    
    53   25   27 1    
    54   27   28 1    
    55   27   29 1    
    56   27  150 1    
    57   28  151 1    
    58   28  152 1    
    59   28  153 1    
    60   29   30 am   BACKBONE|DICT|INTERRES
    61   29  154 1    
    62   30   31 2    
    63   30   32 1    
    64   32   33 1    
    65   32   34 1    
    66   32  155 1    
    67   33  156 1    
    68   33  157 1    
    69   33  158 1    
    70   34   35 am   BACKBONE|DICT|INTERRES
    71   34  159 1    
    72   35   36 2    
    73   35   37 1    
    74   37   38 1    
    75   37   39 1    
    76   37  160 1    
    77   38  161 1    
    78   38  162 1    
    79   38  163 1    
    80   39   40 am   BACKBONE|DICT|INTERRES
    81   39  164 1    
    82   40   41 2    
    83   40   42 1    
    84   42   43 1    
    85   42   44 1    
    86   42  165 1    
    87   43  166 1    
    88   43  167 1    
    89   43  168 1    
    90   44   45 am   BACKBONE|DICT|INTERRES
    91   44  169 1    
    92   45   46 2    
    93   45   47 1    
    94   47   48 1    
    95   47   49 1    
    96   47  170 1    
    97   48  171 1    
    98   48  172 1    
    99   48  173 1    
   100   49   50 am   BACKBONE|DICT|INTERRES
   101   49  174 1    
   102   50   51 2    
   103   50   52 1    
   104   52   53 1    
   105   52   54 1    
   106   52  175 1    
   107   53  176 1    
   108   53  177 1    
   109   53  178 1    
   110   54   55 am   BACKBONE|DICT|INTERRES
   111   54  179 1    
   112   55   56 2    
   113   55   57 1    
   114   57   58 1    
   115   57   59 1    
   116   57  180 1    
   117   58  181 1    
   118   58  182 1    
   119   58  183 1    
   120   59   60 am   BACKBONE|DICT|INTERRES
   121   59  184 1    
   122   60   61 2    
   123   60   62 1    
   124   62   63 1    
   125   62   64 1    
   126   62  185 1    
   127   63  186 1    
   128   63  187 1    
   129   63  188 1    
   130   64   65 am   BACKBONE|DICT|INTERRES
   131   64  189 1    
   132   65   66 2    
   133   67   68 2    
   134   67   69 am   BACKBONE|DICT|INTERRES
   135   69   70 1    
   136   69  190 1    
   137   70   71 1    
   138   70   72 1    
   139   70  191 1    
   140   71  192 1    
   141   71  193 1    
   142   71  194 1    
   143   72   73 2    
   144   72   74 am   BACKBONE|DICT|INTERRES
   145   74   75 1    
   146   74  195 1    
   147   75   76 1    
   148   75   77 1    
   149   75  196 1    
   150   76  197 1    
   151   76  198 1    
   152   76  199 1    
   153   77   78 2    
   154   77   79 am   BACKBONE|DICT|INTERRES
   155   79   80 1    
   156   79  200 1    
   157   80   81 1    
   158   80   82 1    
   159   80  201 1    
   160   81  202 1    
   161   81  203 1    
   162   81  204 1    
   163   82   83 2    
   164   82   84 am   BACKBONE|DICT|INTERRES
   165   84   85 1    
   166   84  205 1    
   167   85   86 1    
   168   85   87 1    
   169   85  206 1    
   170   86  207 1    
   171   86  208 1    
   172   86  209 1    
   173   87   88 2    
   174   87   89 am   BACKBONE|DICT|INTERRES
   175   89   90 1    
   176   89  210 1    
   177   90   91 1    
   178   90   92 1    
   179   90  211 1    
   180   91  212 1    
   181   91  213 1    
   182   91  214 1    
   183   92   93 2    
   184   92   94 am   BACKBONE|DICT|INTERRES
   185   94   95 1    
   186   94  215 1    
   187   95   96 1    
   188   95   97 1    
   189   95  216 1    
   190   96  217 1    
   191   96  218 1    
   192   96  219 1    
   193   97   98 2    
   194   97   99 am   BACKBONE|DICT|INTERRES
   195   99  100 1    
   196   99  220 1    
   197  100  101 1    
   198  100  102 1    
   199  100  221 1    
   200  101  222 1    
   201  101  223 1    
   202  101  224 1    
   203  102  103 2    
   204  102  104 am   BACKBONE|DICT|INTERRES
   205  104  105 1    
   206  104  225 1    
   207  105  106 1    
   208  105  107 1    
   209  105  226 1    
   210  106  227 1    
   211  106  228 1    
   212  106  229 1    
   213  107  108 2    
   214  107  109 am   BACKBONE|DICT|INTERRES
   215  109  110 1    
   216  109  230 1    
   217  110  111 1    
   218  110  112 1    
   219  110  231 1    
   220  111  232 1    
   221  111  233 1    
   222  111  234 1    
   223  112  113 2    
   224  112  114 am   BACKBONE|DICT|INTERRES
   225  114  115 1    
   226  114  235 1    
   227  115  116 1    
   228  115  117 1    
   229  115  236 1    
   230  116  237 1    
   231  116  238 1    
   232  116  239 1    
   233  117  118 2    
   234  117  119 am   BACKBONE|DICT|INTERRES
   235  119  120 1    
   236  119  240 1    
   237  120  121 1    
   238  120  124 1    
   239  120  241 1    
   240  121  122 am   BACKBONE|DICT|INTERRES
   241  121  123 2    
   242  122  242 1    
   243  122  243 1    
   244  124  125 1    
   245  124  244 1    
   246  124  245 1    
   247  125  126 1    
   248  126  246 1    
   249  126  247 1    
@<TRIPOS>SUBSTRUCTURE
     1 UNK         1 GROUP             0       ****    0 ROOT    
