@<TRIPOS>MOLECULE
3R540
247   249    1
SMALL
USER_CHARGES


@<TRIPOS>ATOM
      1 CA         -3.5081  -16.4203  -44.8300 C.3       0 UNK        -0.1800 
      2 C          -3.9498  -15.3049  -45.7622 C.2       0 UNK         0.5000 
      3 O          -5.0304  -15.3819  -46.3470 O.2       0 UNK        -0.5000 
      4 N          -3.1152  -14.2742  -45.9073 N.am      1 UNK        -0.5000 
      5 CA         -3.3340  -13.1349  -46.7978 C.3       1 UNK         0.1400 
      6 C6         -3.1337  -13.4977  -48.2960 C.3       23 UNK        -0.0398 
      7 S7         -1.5016  -14.2258  -48.6904 S.3       23 UNK        -0.2404 
      8 C8         -2.0050  -15.8779  -49.2706 C.3       23 UNK        -0.0205 
      9 C9         -0.8670  -16.6360  -49.9397 C.ar      23 UNK        -0.0193 
     10 C10        -0.2123  -16.0846  -51.0442 C.ar      23 UNK        -0.1150 
     11 C11         0.8034  -16.7872  -51.6966 C.ar      23 UNK        -0.0193 
     12 C12         1.1525  -18.0650  -51.2499 C.ar      23 UNK        -0.1150 
     13 C13         0.4977  -18.6348  -50.1532 C.ar      23 UNK        -0.0193 
     14 C14        -0.5017  -17.9099  -49.4947 C.ar      23 UNK        -0.1150 
     15 C15         0.8484  -20.0431  -49.6977 C.3       23 UNK        -0.0205 
     16 S16        -0.1747  -21.2601  -50.5713 S.3       23 UNK        -0.2404 
     17 C17         0.3480  -22.8433  -49.8273 C.3       23 UNK        -0.0398 
     18 CA         -0.3053  -23.2491  -48.4751 C.3       11 UNK         0.1400 
     19 N           0.5416  -22.8727  -47.3349 N.am      11 UNK        -0.5000 
     20 C           0.4246  -23.3562  -46.0922 C.2       10 UNK         0.5000 
     21 O          -0.4793  -24.1181  -45.7511 O.2       10 UNK        -0.5000 
     22 CA          1.4460  -22.8876  -45.0444 C.3       10 UNK         0.1400 
     23 CB          2.7936  -23.6143  -45.2031 C.3       10 UNK        -0.1800 
     24 N           1.6111  -21.4332  -44.9880 N.am      10 UNK        -0.5000 
     25 C           2.1643  -20.5956  -45.8766 C.2       9 UNK         0.5000 
     26 O           2.6145  -20.9462  -46.9677 O.2       9 UNK        -0.5000 
     27 CA          2.2059  -19.1090  -45.4743 C.3       9 UNK         0.1400 
     28 CB          0.9194  -18.3982  -45.9245 C.3       9 UNK        -0.1800 
     29 N           2.3625  -18.9271  -44.0318 N.am      9 UNK        -0.5000 
     30 C           3.4549  -19.2405  -43.3216 C.2       8 UNK         0.5000 
     31 O           4.5025  -19.6560  -43.8175 O.2       8 UNK        -0.5000 
     32 CA          3.3415  -19.0899  -41.7952 C.3       8 UNK         0.1400 
     33 CB          3.5657  -17.6314  -41.3647 C.3       8 UNK        -0.1800 
     34 N           2.0381  -19.5454  -41.3099 N.am      8 UNK        -0.5000 
     35 C           1.7249  -20.8239  -41.0585 C.2       7 UNK         0.5000 
     36 O           2.5212  -21.7563  -41.1687 O.2       7 UNK        -0.5000 
     37 CA          0.2794  -21.1172  -40.6089 C.3       7 UNK         0.1400 
     38 CB          0.1834  -21.1173  -39.0758 C.3       7 UNK        -0.1800 
     39 N          -0.6979  -20.1696  -41.1473 N.am      7 UNK        -0.5000 
     40 C          -1.0908  -20.1405  -42.4268 C.2       6 UNK         0.5000 
     41 O          -0.6807  -20.9177  -43.2880 O.2       6 UNK        -0.5000 
     42 CA         -2.0714  -19.0233  -42.8255 C.3       6 UNK         0.1400 
     43 CB         -3.5238  -19.4634  -42.5907 C.3       6 UNK        -0.1800 
     44 N          -1.8324  -17.7274  -42.1791 N.am      6 UNK        -0.5000 
     45 C          -0.6815  -17.0473  -42.2613 C.2       5 UNK         0.5000 
     46 O           0.3561  -17.5257  -42.7213 O.2       5 UNK        -0.5000 
     47 CA         -0.6735  -15.6047  -41.7258 C.3       5 UNK         0.1400 
     48 CB         -0.4506  -15.6040  -40.2059 C.3       5 UNK        -0.1800 
     49 N           0.3867  -14.8164  -42.3586 N.am      5 UNK        -0.5000 
     50 C           0.4149  -14.4738  -43.6533 C.2       4 UNK         0.5000 
     51 O          -0.5186  -14.6582  -44.4394 O.2       4 UNK        -0.5000 
     52 CA          1.7271  -13.8599  -44.1586 C.3       4 UNK         0.1400 
     53 CB          2.7121  -14.9663  -44.5858 C.3       4 UNK        -0.1800 
     54 N           1.4420  -12.9755  -45.2833 N.am      4 UNK        -0.5000 
     55 C           2.2789  -12.0512  -45.7743 C.2       3 UNK         0.5000 
     56 O           3.4039  -11.8374  -45.3209 O.2       3 UNK        -0.5000 
     57 CA          1.7688  -11.2005  -46.9463 C.3       3 UNK         0.1400 
     58 CB          1.8992  -11.9614  -48.2787 C.3       3 UNK        -0.1800 
     59 N           0.3851  -10.8052  -46.7100 N.am      3 UNK        -0.5000 
     60 C          -0.2686   -9.7926  -47.2836 C.2       2 UNK         0.5000 
     61 O           0.2349   -9.0435  -48.1228 O.2       2 UNK        -0.5000 
     62 CA         -1.7415   -9.6100  -46.8458 C.3       2 UNK         0.1400 
     63 CB         -2.4316   -8.4326  -47.5581 C.3       2 UNK        -0.1800 
     64 N          -2.5426  -10.8211  -47.0581 N.am      2 UNK        -0.5000 
     65 C          -2.4677  -11.9475  -46.3354 C.2       1 UNK         0.5000 
     66 O          -1.7327  -12.0628  -45.3503 O.2       1 UNK        -0.5000 
     67 C          -1.7813  -22.8061  -48.3155 C.2       11 UNK         0.5000 
     68 O          -2.6650  -23.3693  -48.9628 O.2       11 UNK        -0.5000 
     69 N          -2.0259  -21.8172  -47.4470 N.am      12 UNK        -0.5000 
     70 CA         -3.3556  -21.3422  -47.0724 C.3       12 UNK         0.1400 
     71 CB         -3.2433  -19.8708  -46.6498 C.3       12 UNK        -0.1800 
     72 C          -4.0046  -22.1807  -45.9526 C.2       12 UNK         0.5000 
     73 O          -5.2092  -22.0448  -45.7408 O.2       12 UNK        -0.5000 
     74 N          -3.2199  -23.0177  -45.2590 N.am      13 UNK        -0.5000 
     75 CA         -3.6740  -23.8508  -44.1453 C.3       13 UNK         0.1400 
     76 CB         -2.7741  -23.6036  -42.9222 C.3       13 UNK        -0.1800 
     77 C          -3.6743  -25.3399  -44.5205 C.2       13 UNK         0.5000 
     78 O          -4.6894  -26.0106  -44.3332 O.2       13 UNK        -0.5000 
     79 N          -2.5361  -25.8348  -45.0247 N.am      14 UNK        -0.5000 
     80 CA         -2.3077  -27.2469  -45.3258 C.3       14 UNK         0.1400 
     81 CB         -0.7952  -27.5200  -45.3786 C.3       14 UNK        -0.1800 
     82 C          -2.9965  -27.6721  -46.6305 C.2       14 UNK         0.5000 
     83 O          -3.7906  -28.6135  -46.6247 O.2       14 UNK        -0.5000 
     84 N          -2.6864  -26.9596  -47.7218 N.am      15 UNK        -0.5000 
     85 CA         -3.2827  -27.1885  -49.0401 C.3       15 UNK         0.1400 
     86 CB         -2.3081  -26.7105  -50.1289 C.3       15 UNK        -0.1800 
     87 C          -4.6505  -26.4980  -49.1914 C.2       15 UNK         0.5000 
     88 O          -5.4567  -26.9341  -50.0135 O.2       15 UNK        -0.5000 
     89 N          -4.8723  -25.4306  -48.4073 N.am      16 UNK        -0.5000 
     90 CA         -6.0427  -24.5439  -48.4112 C.3       16 UNK         0.1400 
     91 CB         -7.3010  -25.2957  -47.9314 C.3       16 UNK        -0.1800 
     92 C          -6.2488  -23.8118  -49.7566 C.2       16 UNK         0.5000 
     93 O          -7.3797  -23.4719  -50.1085 O.2       16 UNK        -0.5000 
     94 N          -5.1488  -23.5905  -50.4866 N.am      17 UNK        -0.5000 
     95 CA         -5.1318  -22.9654  -51.8060 C.3       17 UNK         0.1400 
     96 CB         -4.0241  -23.6156  -52.6477 C.3       17 UNK        -0.1800 
     97 C          -4.9127  -21.4498  -51.7061 C.2       17 UNK         0.5000 
     98 O          -5.5677  -20.6933  -52.4239 O.2       17 UNK        -0.5000 
     99 N          -3.9979  -21.0381  -50.8155 N.am      18 UNK        -0.5000 
    100 CA        -3.5585  -19.6573  -50.5981 C.3       18 UNK         0.1400 
    101 CB        -4.6713  -18.8443  -49.8973 C.3       18 UNK        -0.1800 
    102 C         -3.0256  -19.0150  -51.9001 C.2       18 UNK         0.5000 
    103 O         -2.2300  -19.6413  -52.6012 O.2       18 UNK        -0.5000 
    104 N         -3.4893  -17.8020  -52.2308 N.am      19 UNK        -0.5000 
    105 CA        -3.0603  -17.0237  -53.3971 C.3       19 UNK         0.1400 
    106 CB        -3.7531  -15.6537  -53.3652 C.3       19 UNK        -0.1800 
    107 C         -3.2778  -17.7165  -54.7599 C.2       19 UNK         0.5000 
    108 O         -2.5909  -17.3784  -55.7246 O.2       19 UNK        -0.5000 
    109 N         -4.1913  -18.6970  -54.8191 N.am      20 UNK        -0.5000 
    110 CA        -4.4252  -19.5334  -55.9968 C.3       20 UNK         0.1400 
    111 CB        -5.7184  -20.3397  -55.8036 C.3       20 UNK        -0.1800 
    112 C         -3.2480  -20.4742  -56.3269 C.2       20 UNK         0.5000 
    113 O         -3.1368  -20.9001  -57.4773 O.2       20 UNK        -0.5000 
    114 N         -2.3932  -20.7838  -55.3386 N.am      21 UNK        -0.5000 
    115 CA        -1.1875  -21.5873  -55.5365 C.3       21 UNK         0.1400 
    116 CB        -0.6973  -22.1448  -54.1925 C.3       21 UNK        -0.1800 
    117 C         -0.0700  -20.7821  -56.2186 C.2       21 UNK         0.5000 
    118 O          0.5591  -21.2925  -57.1470 O.2       21 UNK        -0.5000 
    119 N          0.1641  -19.5512  -55.7431 N.am      22 UNK        -0.5000 
    120 CA         1.2071  -18.6588  -56.2711 C.3       22 UNK         0.1400 
    121 C          0.7834  -17.8503  -57.5310 C.2       22 UNK         0.5000 
    122 N         -0.4978  -17.5777  -57.7471 N.am      22 UNK        -0.7600 
    123 O          1.6329  -17.4816  -58.3378 O.2       22 UNK        -0.5000 
    124 C124        1.8253  -17.7650  -55.1667 C.3       23 UNK        -0.0398 
    125 S125        0.6837  -16.5354  -54.4475 S.3       23 UNK        -0.2404 
    126 C126        1.5181  -16.1516  -52.8777 C.3       23 UNK        -0.0205 
    127 H127       -3.9858  -17.3599  -45.1049 H         1 UNK         0.0600 
    128 H128       -2.4287  -16.5639  -44.8795 H         1 UNK         0.0600 
    129 H129       -3.7833  -16.1821  -43.8031 H         1 UNK         0.0600 
    130 H130       -2.2413  -14.2390  -45.3849 H         1 UNK         0.3000 
    131 H131       -4.3672  -12.8071  -46.6658 H         1 UNK         0.0600 
    132 H132       -3.2802  -12.6267  -48.9356 H         1 UNK         0.0800 
    133 H133       -3.9184  -14.1927  -48.5963 H         1 UNK         0.0800 
    134 H134       -2.8146  -15.7753  -49.9938 H         1 UNK         0.0800 
    135 H135       -2.4056  -16.4401  -48.4255 H         1 UNK         0.0800 
    136 H136       -0.4976  -15.1040  -51.3986 H         1 UNK         0.1150 
    137 H137        1.9242  -18.6215  -51.7627 H         1 UNK         0.1150 
    138 H138       -1.0119  -18.3510  -48.6511 H         1 UNK         0.1150 
    139 H139        1.9053  -20.2503  -49.8719 H         1 UNK         0.0800 
    140 H140        0.6785  -20.1408  -48.6265 H         1 UNK         0.0800 
    141 H141        1.4367  -22.8646  -49.7582 H         1 UNK         0.0800 
    142 H142        0.1008  -23.6075  -50.5659 H         1 UNK         0.0800 
    143 H143       -0.3337  -24.3409  -48.4657 H         1 UNK         0.0600 
    144 H144        1.3075  -22.2281  -47.5125 H         1 UNK         0.3000 
    145 H145        1.0407  -23.1679  -44.0706 H         1 UNK         0.0600 
    146 H146        3.4915  -23.3199  -44.4190 H         1 UNK         0.0600 
    147 H147        2.6617  -24.6947  -45.1327 H         1 UNK         0.0600 
    148 H148        3.2631  -23.4066  -46.1648 H         1 UNK         0.0600 
    149 H149        1.1743  -21.0095  -44.1768 H         1 UNK         0.3000 
    150 H150        3.0576  -18.6415  -45.9723 H         1 UNK         0.0600 
    151 H151        0.8442  -18.3877  -47.0104 H         1 UNK         0.0600 
    152 H152        0.8969  -17.3608  -45.5916 H         1 UNK         0.0600 
    153 H153        0.0275  -18.8879  -45.5322 H         1 UNK         0.0600 
    154 H154        1.5677  -18.5226  -43.5389 H         1 UNK         0.3000 
    155 H155        4.1264  -19.6975  -41.3396 H         1 UNK         0.0600 
    156 H156        2.7875  -16.9703  -41.7451 H         1 UNK         0.0600 
    157 H157        4.5227  -17.2583  -41.7315 H         1 UNK         0.0600 
    158 H158        3.5762  -17.5412  -40.2785 H         1 UNK         0.0600 
    159 H159        1.3050  -18.8498  -41.2749 H         1 UNK         0.3000 
    160 H160        0.0199  -22.1166  -40.9657 H         1 UNK         0.0600 
    161 H161       -0.8162  -21.3977  -38.7434 H         1 UNK         0.0600 
    162 H162        0.4148  -20.1369  -38.6575 H         1 UNK         0.0600 
    163 H163        0.8820  -21.8332  -38.6407 H         1 UNK         0.0600 
    164 H164       -1.0765  -19.4855  -40.5088 H         1 UNK         0.3000 
    165 H165       -1.9366  -18.8573  -43.8936 H         1 UNK         0.0600 
    166 H166       -4.2297  -18.7100  -42.9395 H         1 UNK         0.0600 
    167 H167       -3.7453  -20.3835  -43.1331 H         1 UNK         0.0600 
    168 H168       -3.7232  -19.6463  -41.5342 H         1 UNK         0.0600 
    169 H169       -2.6316  -17.2879  -41.7462 H         1 UNK         0.3000 
    170 H170       -1.6355  -15.1395  -41.9507 H         1 UNK         0.0600 
    171 H171       -1.2389  -16.1556  -39.6922 H         1 UNK         0.0600 
    172 H172        0.5011  -16.0653  -39.9380 H         1 UNK         0.0600 
    173 H173       -0.4551  -14.5892  -39.8075 H         1 UNK         0.0600 
    174 H174        1.2091  -14.6533  -41.7974 H         1 UNK         0.3000 
    175 H175        2.1659  -13.2731  -43.3490 H         1 UNK         0.0600 
    176 H176        2.3590  -15.4937  -45.4720 H         1 UNK         0.0600 
    177 H177        3.6964  -14.5577  -44.8130 H         1 UNK         0.0600 
    178 H178        2.8457  -15.7064  -43.7966 H         1 UNK         0.0600 
    179 H179        0.5209  -13.1093  -45.6827 H         1 UNK         0.3000 
    180 H180        2.3843  -10.2996  -46.9935 H         1 UNK         0.0600 
    181 H181        1.2752  -12.8556  -48.2933 H         1 UNK         0.0600 
    182 H182        2.9294  -12.2766  -48.4483 H         1 UNK         0.0600 
    183 H183        1.6082  -11.3378  -49.1240 H         1 UNK         0.0600 
    184 H184       -0.1269  -11.3434  -46.0158 H         1 UNK         0.3000 
    185 H185       -1.7305   -9.3867  -45.7768 H         1 UNK         0.0600 
    186 H186       -3.4473   -8.2890  -47.1892 H         1 UNK         0.0600 
    187 H187       -1.8922   -7.5002  -47.3864 H         1 UNK         0.0600 
    188 H188       -2.4846   -8.5889  -48.6363 H         1 UNK         0.0600 
    189 H189       -3.1555  -10.7981  -47.8597 H         1 UNK         0.3000 
    190 H190       -1.2429  -21.4101  -46.9580 H         1 UNK         0.3000 
    191 H191       -4.0179  -21.3977  -47.9382 H         1 UNK         0.0600 
    192 H192       -2.5505  -19.7523  -45.8196 H         1 UNK         0.0600 
    193 H193       -4.2107  -19.4756  -46.3373 H         1 UNK         0.0600 
    194 H194       -2.8890  -19.2470  -47.4691 H         1 UNK         0.0600 
    195 H195       -2.2443  -23.1081  -45.5147 H         1 UNK         0.3000 
    196 H196       -4.6945  -23.5894  -43.8578 H         1 UNK         0.0600 
    197 H197       -1.7188  -23.7540  -43.1537 H         1 UNK         0.0600 
    198 H198       -3.0313  -24.2748  -42.1019 H         1 UNK         0.0600 
    199 H199       -2.8904  -22.5864  -42.5517 H         1 UNK         0.0600 
    200 H200       -1.7469  -25.2094  -45.1773 H         1 UNK         0.3000 
    201 H201       -2.7262  -27.8473  -44.5149 H         1 UNK         0.0600 
    202 H202       -0.3230  -27.2923  -44.4228 H         1 UNK         0.0600 
    203 H203       -0.2978  -26.9231  -46.1440 H         1 UNK         0.0600 
    204 H204       -0.5952  -28.5695  -45.5980 H         1 UNK         0.0600 
    205 H205       -2.0171  -26.2094  -47.6401 H         1 UNK         0.3000 
    206 H206       -3.4387  -28.2603  -49.1816 H         1 UNK         0.0600 
    207 H207       -1.3587  -27.2425  -50.0679 H         1 UNK         0.0600 
    208 H208       -2.7171  -26.8914  -51.1238 H         1 UNK         0.0600 
    209 H209       -2.0992  -25.6444  -50.0537 H         1 UNK         0.0600 
    210 H210       -4.1198  -25.1512  -47.7960 H         1 UNK         0.3000 
    211 H211       -5.8346  -23.7642  -47.6805 H         1 UNK         0.0600 
    212 H212       -7.6207  -26.0517  -48.6490 H         1 UNK         0.0600 
    213 H213       -8.1358  -24.6091  -47.7864 H         1 UNK         0.0600 
    214 H214       -7.1218  -25.7919  -46.9774 H         1 UNK         0.0600 
    215 H215       -4.2517  -23.8392  -50.0830 H         1 UNK         0.3000 
    216 H216       -6.0845  -23.1363  -52.3120 H         1 UNK         0.0600 
    217 H217       -3.9505  -23.1462  -53.6299 H         1 UNK         0.0600 
    218 H218       -4.2240  -24.6755  -52.8064 H         1 UNK         0.0600 
    219 H219       -3.0511  -23.5302  -52.1624 H         1 UNK         0.0600 
    220 H220       -3.4852  -21.7466  -50.3074 H         1 UNK         0.3000 
    221 H221       -2.7100  -19.7150  -49.9173 H         1 UNK         0.0600 
    222 H222       -5.5368  -18.6910  -50.5430 H         1 UNK         0.0600 
    223 H223       -5.0243  -19.3549  -49.0019 H         1 UNK         0.0600 
    224 H224       -4.3100  -17.8657  -49.5811 H         1 UNK         0.0600 
    225 H225       -4.1786  -17.3714  -51.6333 H         1 UNK         0.3000 
    226 H226       -1.9871  -16.8614  -53.2928 H         1 UNK         0.0600 
    227 H227       -3.5077  -15.1082  -52.4538 H         1 UNK         0.0600 
    228 H228       -3.4343  -15.0357  -54.2058 H         1 UNK         0.0600 
    229 H229       -4.8379  -15.7507  -53.4206 H         1 UNK         0.0600 
    230 H230       -4.6910  -18.9489  -53.9765 H         1 UNK         0.3000 
    231 H231       -4.5656  -18.8707  -56.8533 H         1 UNK         0.0600 
    232 H232       -6.5581  -19.6924  -55.5504 H         1 UNK         0.0600 
    233 H233       -5.6147  -21.0842  -55.0144 H         1 UNK         0.0600 
    234 H234       -5.9827  -20.8725  -56.7179 H         1 UNK         0.0600 
    235 H235       -2.5227  -20.3789  -54.4156 H         1 UNK         0.3000 
    236 H236       -1.4353  -22.4361  -56.1776 H         1 UNK         0.0600 
    237 H237        0.1657  -22.7967  -54.3323 H         1 UNK         0.0600 
    238 H238       -0.3953  -21.3475  -53.5140 H         1 UNK         0.0600 
    239 H239       -1.4695  -22.7310  -53.6991 H         1 UNK         0.0600 
    240 H240       -0.4063  -19.1880  -54.9930 H         1 UNK         0.3000 
    241 H241        2.0282  -19.2938  -56.6106 H         1 UNK         0.0600 
    242 H242       -1.1973  -17.7625  -57.0346 H         1 UNK         0.3800 
    243 H243       -0.7582  -17.0613  -58.5715 H         1 UNK         0.3800 
    244 H244        2.2034  -18.4018  -54.3657 H         1 UNK         0.0800 
    245 H245        2.6946  -17.2338  -55.5580 H         1 UNK         0.0800 
    246 H246        2.5614  -16.4693  -52.9065 H         1 UNK         0.0800 
    247 H247        1.5408  -15.0679  -52.7528 H         1 UNK         0.0800 
@<TRIPOS>BOND
     1    1    2 1    
     2    1  127 1    
     3    1  128 1    
     4    1  129 1    
     5    2    3 2    
     6    2    4 am   BACKBONE|DICT|INTERRES
     7    4    5 1    
     8    4  130 1    
     9    5    6 1    
    10    5   65 1    
    11    5  131 1    
    12    6    7 1    
    13    6  132 1    
    14    6  133 1    
    15    7    8 1    
    16    8    9 1    
    17    8  134 1    
    18    8  135 1    
    19    9   10 ar   
    20    9   14 ar   
    21   10   11 ar   
    22   10  136 1    
    23   11   12 ar   
    24   11  126 1    
    25   12   13 ar   
    26   12  137 1    
    27   13   14 ar   
    28   13   15 1    
    29   14  138 1    
    30   15   16 1    
    31   15  139 1    
    32   15  140 1    
    33   16   17 1    
    34   17   18 1    
    35   17  141 1    
    36   17  142 1    
    37   18   19 1    
    38   18   67 1    
    39   18  143 1    
    40   19   20 am   BACKBONE|DICT|INTERRES
    41   19  144 1    
    42   20   21 2    
    43   20   22 1    
    44   22   23 1    
    45   22   24 1    
    46   22  145 1    
    47   23  146 1    
    48   23  147 1    
    49   23  148 1    
    50   24   25 am   BACKBONE|DICT|INTERRES
    51   24  149 1    
    52   25   26 2    
    53   25   27 1    
    54   27   28 1    
    55   27   29 1    
    56   27  150 1    
    57   28  151 1    
    58   28  152 1    
    59   28  153 1    
    60   29   30 am   BACKBONE|DICT|INTERRES
    61   29  154 1    
    62   30   31 2    
    63   30   32 1    
    64   32   33 1    
    65   32   34 1    
    66   32  155 1    
    67   33  156 1    
    68   33  157 1    
    69   33  158 1    
    70   34   35 am   BACKBONE|DICT|INTERRES
    71   34  159 1    
    72   35   36 2    
    73   35   37 1    
    74   37   38 1    
    75   37   39 1    
    76   37  160 1    
    77   38  161 1    
    78   38  162 1    
    79   38  163 1    
    80   39   40 am   BACKBONE|DICT|INTERRES
    81   39  164 1    
    82   40   41 2    
    83   40   42 1    
    84   42   43 1    
    85   42   44 1    
    86   42  165 1    
    87   43  166 1    
    88   43  167 1    
    89   43  168 1    
    90   44   45 am   BACKBONE|DICT|INTERRES
    91   44  169 1    
    92   45   46 2    
    93   45   47 1    
    94   47   48 1    
    95   47   49 1    
    96   47  170 1    
    97   48  171 1    
    98   48  172 1    
    99   48  173 1    
   100   49   50 am   BACKBONE|DICT|INTERRES
   101   49  174 1    
   102   50   51 2    
   103   50   52 1    
   104   52   53 1    
   105   52   54 1    
   106   52  175 1    
   107   53  176 1    
   108   53  177 1    
   109   53  178 1    
   110   54   55 am   BACKBONE|DICT|INTERRES
   111   54  179 1    
   112   55   56 2    
   113   55   57 1    
   114   57   58 1    
   115   57   59 1    
   116   57  180 1    
   117   58  181 1    
   118   58  182 1    
   119   58  183 1    
   120   59   60 am   BACKBONE|DICT|INTERRES
   121   59  184 1    
   122   60   61 2    
   123   60   62 1    
   124   62   63 1    
   125   62   64 1    
   126   62  185 1    
   127   63  186 1    
   128   63  187 1    
   129   63  188 1    
   130   64   65 am   BACKBONE|DICT|INTERRES
   131   64  189 1    
   132   65   66 2    
   133   67   68 2    
   134   67   69 am   BACKBONE|DICT|INTERRES
   135   69   70 1    
   136   69  190 1    
   137   70   71 1    
   138   70   72 1    
   139   70  191 1    
   140   71  192 1    
   141   71  193 1    
   142   71  194 1    
   143   72   73 2    
   144   72   74 am   BACKBONE|DICT|INTERRES
   145   74   75 1    
   146   74  195 1    
   147   75   76 1    
   148   75   77 1    
   149   75  196 1    
   150   76  197 1    
   151   76  198 1    
   152   76  199 1    
   153   77   78 2    
   154   77   79 am   BACKBONE|DICT|INTERRES
   155   79   80 1    
   156   79  200 1    
   157   80   81 1    
   158   80   82 1    
   159   80  201 1    
   160   81  202 1    
   161   81  203 1    
   162   81  204 1    
   163   82   83 2    
   164   82   84 am   BACKBONE|DICT|INTERRES
   165   84   85 1    
   166   84  205 1    
   167   85   86 1    
   168   85   87 1    
   169   85  206 1    
   170   86  207 1    
   171   86  208 1    
   172   86  209 1    
   173   87   88 2    
   174   87   89 am   BACKBONE|DICT|INTERRES
   175   89   90 1    
   176   89  210 1    
   177   90   91 1    
   178   90   92 1    
   179   90  211 1    
   180   91  212 1    
   181   91  213 1    
   182   91  214 1    
   183   92   93 2    
   184   92   94 am   BACKBONE|DICT|INTERRES
   185   94   95 1    
   186   94  215 1    
   187   95   96 1    
   188   95   97 1    
   189   95  216 1    
   190   96  217 1    
   191   96  218 1    
   192   96  219 1    
   193   97   98 2    
   194   97   99 am   BACKBONE|DICT|INTERRES
   195   99  100 1    
   196   99  220 1    
   197  100  101 1    
   198  100  102 1    
   199  100  221 1    
   200  101  222 1    
   201  101  223 1    
   202  101  224 1    
   203  102  103 2    
   204  102  104 am   BACKBONE|DICT|INTERRES
   205  104  105 1    
   206  104  225 1    
   207  105  106 1    
   208  105  107 1    
   209  105  226 1    
   210  106  227 1    
   211  106  228 1    
   212  106  229 1    
   213  107  108 2    
   214  107  109 am   BACKBONE|DICT|INTERRES
   215  109  110 1    
   216  109  230 1    
   217  110  111 1    
   218  110  112 1    
   219  110  231 1    
   220  111  232 1    
   221  111  233 1    
   222  111  234 1    
   223  112  113 2    
   224  112  114 am   BACKBONE|DICT|INTERRES
   225  114  115 1    
   226  114  235 1    
   227  115  116 1    
   228  115  117 1    
   229  115  236 1    
   230  116  237 1    
   231  116  238 1    
   232  116  239 1    
   233  117  118 2    
   234  117  119 am   BACKBONE|DICT|INTERRES
   235  119  120 1    
   236  119  240 1    
   237  120  121 1    
   238  120  124 1    
   239  120  241 1    
   240  121  122 am   BACKBONE|DICT|INTERRES
   241  121  123 2    
   242  122  242 1    
   243  122  243 1    
   244  124  125 1    
   245  124  244 1    
   246  124  245 1    
   247  125  126 1    
   248  126  246 1    
   249  126  247 1    
@<TRIPOS>SUBSTRUCTURE
     1 UNK         1 GROUP             0       ****    0 ROOT    
