@<TRIPOS>MOLECULE
3R540
247   249    1
SMALL
USER_CHARGES


@<TRIPOS>ATOM
      1 CA          0.1152  -18.8010  -40.5093 C.3       0 UNK        -0.1800 
      2 C           0.3736  -17.3010  -40.4621 C.2       0 UNK         0.5000 
      3 O           1.1330  -16.8339  -39.6129 O.2       0 UNK        -0.5000 
      4 N          -0.2647  -16.5479  -41.3645 N.am      1 UNK        -0.5000 
      5 CA         -0.0895  -15.1056  -41.5435 C.3       1 UNK         0.1400 
      6 C6         -1.2378  -14.4928  -42.3842 C.3       23 UNK        -0.0398 
      7 S7         -1.3938  -15.2244  -44.0499 S.3       23 UNK        -0.2404 
      8 C8         -2.9320  -16.1911  -43.9131 C.3       23 UNK        -0.0205 
      9 C9         -2.9305  -17.4083  -44.8305 C.ar      23 UNK        -0.0193 
     10 C10        -2.6624  -17.2763  -46.1976 C.ar      23 UNK        -0.1150 
     11 C11        -2.6570  -18.3948  -47.0372 C.ar      23 UNK        -0.0193 
     12 C12        -2.9438  -19.6532  -46.4999 C.ar      23 UNK        -0.1150 
     13 C13        -3.2223  -19.7995  -45.1385 C.ar      23 UNK        -0.0193 
     14 C14        -3.2128  -18.6748  -44.3095 C.ar      23 UNK        -0.1150 
     15 C15        -3.5470  -21.1717  -44.5669 C.3       23 UNK        -0.0205 
     16 S16        -2.1885  -21.8614  -43.5655 S.3       23 UNK        -0.2404 
     17 C17        -0.7891  -21.8946  -44.7384 C.3       23 UNK        -0.0398 
     18 CA         -0.9056  -22.9230  -45.8841 C.3       11 UNK         0.1400 
     19 N           0.0726  -22.6315  -46.9394 N.am      11 UNK        -0.5000 
     20 C           0.0959  -23.1988  -48.1532 C.2       10 UNK         0.5000 
     21 O          -0.6946  -24.0821  -48.4912 O.2       10 UNK        -0.5000 
     22 CA          1.1708  -22.7134  -49.1431 C.3       10 UNK         0.1400 
     23 CB          0.6074  -22.5591  -50.5653 C.3       10 UNK        -0.1800 
     24 N           1.7597  -21.4380  -48.7234 N.am      10 UNK        -0.5000 
     25 C           3.0480  -21.2540  -48.4080 C.2       9 UNK         0.5000 
     26 O           3.8929  -22.1497  -48.4243 O.2       9 UNK        -0.5000 
     27 CA          3.4722  -19.8304  -48.0002 C.3       9 UNK         0.1400 
     28 CB          3.9510  -19.0421  -49.2289 C.3       9 UNK        -0.1800 
     29 N           2.4293  -19.0582  -47.3227 N.am      9 UNK        -0.5000 
     30 C           1.9080  -19.3202  -46.1195 C.2       8 UNK         0.5000 
     31 O           2.1842  -20.3392  -45.4842 O.2       8 UNK        -0.5000 
     32 CA          0.9105  -18.2869  -45.5354 C.3       8 UNK         0.1400 
     33 CB          0.6501  -18.5113  -44.0355 C.3       8 UNK        -0.1800 
     34 N           1.2783  -16.8749  -45.7181 N.am      8 UNK        -0.5000 
     35 C           1.3172  -16.1989  -46.8739 C.2       7 UNK         0.5000 
     36 O           1.1036  -16.7184  -47.9686 O.2       7 UNK        -0.5000 
     37 CA          1.6932  -14.7076  -46.7917 C.3       7 UNK         0.1400 
     38 CB          2.5644  -14.2678  -47.9878 C.3       7 UNK        -0.1800 
     39 N           0.5252  -13.8314  -46.6595 N.am      7 UNK        -0.5000 
     40 C          -0.4909  -13.6639  -47.5237 C.2       6 UNK         0.5000 
     41 O          -0.6080  -14.2748  -48.5856 O.2       6 UNK        -0.5000 
     42 CA         -1.5575  -12.6033  -47.1737 C.3       6 UNK         0.1400 
     43 CB         -2.9266  -13.2434  -46.8895 C.3       6 UNK        -0.1800 
     44 N          -1.1893  -11.7284  -46.0565 N.am      6 UNK        -0.5000 
     45 C          -0.3310  -10.7034  -46.1503 C.2       5 UNK         0.5000 
     46 O           0.2345  -10.3955  -47.2015 O.2       5 UNK        -0.5000 
     47 CA         -0.0665   -9.8738  -44.8769 C.3       5 UNK         0.1400 
     48 CB         -0.5953  -10.5208  -43.5808 C.3       5 UNK        -0.1800 
     49 N           1.3703   -9.6596  -44.7376 N.am      5 UNK        -0.5000 
     50 C           2.0293   -8.5402  -45.0662 C.2       4 UNK         0.5000 
     51 O           1.4763   -7.5125  -45.4614 O.2       4 UNK        -0.5000 
     52 CA          3.5659   -8.5524  -44.9161 C.3       4 UNK         0.1400 
     53 CB          3.9885   -7.7557  -43.6715 C.3       4 UNK        -0.1800 
     54 N           4.1285   -9.9001  -44.8185 N.am      4 UNK        -0.5000 
     55 C           4.2716  -10.7525  -45.8427 C.2       3 UNK         0.5000 
     56 O           4.0334  -10.4605  -47.0143 O.2       3 UNK        -0.5000 
     57 CA          4.7441  -12.1799  -45.4954 C.3       3 UNK         0.1400 
     58 CB          6.2542  -12.3208  -45.7384 C.3       3 UNK        -0.1800 
     59 N           4.4404  -12.5967  -44.1218 N.am      3 UNK        -0.5000 
     60 C           3.2118  -12.7126  -43.6004 C.2       2 UNK         0.5000 
     61 O           2.1772  -12.4618  -44.2239 O.2       2 UNK        -0.5000 
     62 CA          3.1511  -13.1010  -42.1118 C.3       2 UNK         0.1400 
     63 CB          3.4772  -11.8787  -41.2376 C.3       2 UNK        -0.1800 
     64 N           1.8477  -13.6226  -41.7027 N.am      2 UNK        -0.5000 
     65 C           1.3016  -14.7678  -42.1297 C.2       1 UNK         0.5000 
     66 O           1.8367  -15.5248  -42.9470 O.2       1 UNK        -0.5000 
     67 C          -0.8495  -24.3864  -45.3888 C.2       11 UNK         0.5000 
     68 O          -1.8798  -24.9297  -44.9911 O.2       11 UNK        -0.5000 
     69 N           0.3181  -25.0347  -45.5162 N.am      12 UNK        -0.5000 
     70 CA          0.5180  -26.4672  -45.2696 C.3       12 UNK         0.1400 
     71 CB          2.0157  -26.7865  -45.3904 C.3       12 UNK        -0.1800 
     72 C          -0.3049  -27.3843  -46.2026 C.2       12 UNK         0.5000 
     73 O          -0.6043  -28.5167  -45.8233 O.2       12 UNK        -0.5000 
     74 N          -0.6732  -26.8735  -47.3856 N.am      13 UNK        -0.5000 
     75 CA         -1.5517  -27.5198  -48.3614 C.3       13 UNK         0.1400 
     76 CB         -0.8678  -27.4594  -49.7392 C.3       13 UNK        -0.1800 
     77 C          -2.9394  -26.8462  -48.4048 C.2       13 UNK         0.5000 
     78 O          -3.6887  -27.0705  -49.3570 O.2       13 UNK        -0.5000 
     79 N          -3.2464  -25.9911  -47.4149 N.am      14 UNK        -0.5000 
     80 CA         -4.4432  -25.1478  -47.3117 C.3       14 UNK         0.1400 
     81 CB         -5.6958  -26.0116  -47.0562 C.3       14 UNK        -0.1800 
     82 C          -4.6026  -24.1994  -48.5188 C.2       14 UNK         0.5000 
     83 O          -5.7120  -24.0211  -49.0214 O.2       14 UNK        -0.5000 
     84 N          -3.4744  -23.6522  -48.9975 N.am      15 UNK        -0.5000 
     85 CA         -3.3372  -22.8371  -50.2087 C.3       15 UNK         0.1400 
     86 CB         -4.0775  -21.4959  -50.0620 C.3       15 UNK        -0.1800 
     87 C          -3.7139  -23.6130  -51.4874 C.2       15 UNK         0.5000 
     88 O          -4.3481  -23.0570  -52.3872 O.2       15 UNK        -0.5000 
     89 N          -3.3292  -24.8985  -51.5127 N.am      16 UNK        -0.5000 
     90 CA         -3.6835  -25.9256  -52.4976 C.3       16 UNK         0.1400 
     91 CB         -3.0766  -25.6037  -53.8777 C.3       16 UNK        -0.1800 
     92 C          -5.2074  -26.1477  -52.5426 C.2       16 UNK         0.5000 
     93 O          -5.8108  -26.0863  -53.6131 O.2       16 UNK        -0.5000 
     94 N          -5.8079  -26.3320  -51.3570 N.am      17 UNK        -0.5000 
     95 CA         -7.2554  -26.3761  -51.1058 C.3       17 UNK         0.1400 
     96 CB         -7.8589  -27.6877  -51.6480 C.3       17 UNK        -0.1800 
     97 C          -7.9761  -25.1119  -51.6302 C.2       17 UNK         0.5000 
     98 O          -9.0007  -25.2074  -52.3077 O.2       17 UNK        -0.5000 
     99 N          -7.3761  -23.9513  -51.3327 N.am      18 UNK        -0.5000 
    100 CA        -7.7406  -22.5919  -51.7425 C.3       18 UNK         0.1400 
    101 CB        -9.1318  -22.2107  -51.1964 C.3       18 UNK        -0.1800 
    102 C         -7.6081  -22.2911  -53.2528 C.2       18 UNK         0.5000 
    103 O         -7.9778  -21.1912  -53.6672 O.2       18 UNK        -0.5000 
    104 N         -7.0836  -23.2277  -54.0571 N.am      19 UNK        -0.5000 
    105 CA        -6.9579  -23.0705  -55.5076 C.3       19 UNK         0.1400 
    106 CB        -6.8442  -24.4499  -56.1731 C.3       19 UNK        -0.1800 
    107 C         -5.7741  -22.1801  -55.9247 C.2       19 UNK         0.5000 
    108 O         -5.8772  -21.4899  -56.9400 O.2       19 UNK        -0.5000 
    109 N         -4.6738  -22.2137  -55.1597 N.am      20 UNK        -0.5000 
    110 CA        -3.4587  -21.4495  -55.4537 C.3       20 UNK         0.1400 
    111 CB        -2.2223  -22.2577  -55.0284 C.3       20 UNK        -0.1800 
    112 C         -3.4510  -20.0758  -54.7672 C.2       20 UNK         0.5000 
    113 O         -2.7645  -19.1722  -55.2462 O.2       20 UNK        -0.5000 
    114 N         -4.1712  -19.9500  -53.6403 N.am      21 UNK        -0.5000 
    115 CA        -4.2872  -18.7477  -52.7978 C.3       21 UNK         0.1400 
    116 CB        -5.0842  -17.6540  -53.5380 C.3       21 UNK        -0.1800 
    117 C         -2.9292  -18.2311  -52.2596 C.2       21 UNK         0.5000 
    118 O         -2.7888  -17.0375  -51.9914 O.2       21 UNK        -0.5000 
    119 N         -1.9532  -19.1436  -52.1385 N.am      22 UNK        -0.5000 
    120 CA        -0.5322  -18.8836  -51.8445 C.3       22 UNK         0.1400 
    121 C          0.2349  -18.1261  -52.9747 C.2       22 UNK         0.5000 
    122 N         -0.2895  -18.0230  -54.1908 N.am      22 UNK        -0.7600 
    123 O          1.3480  -17.6532  -52.7627 O.2       22 UNK        -0.5000 
    124 C124       -0.2808  -18.2644  -50.4412 C.3       23 UNK        -0.0398 
    125 S125       -0.9419  -19.2595  -49.0566 S.3       23 UNK        -0.2404 
    126 C126       -2.3504  -18.2317  -48.5203 C.3       23 UNK        -0.0205 
    127 H127       -0.6500  -19.0587  -41.2424 H         1 UNK         0.0600 
    128 H128       -0.2171  -19.1570  -39.5342 H         1 UNK         0.0600 
    129 H129        1.0306  -19.3303  -40.7739 H         1 UNK         0.0600 
    130 H130       -0.8413  -16.9933  -42.0620 H         1 UNK         0.3000 
    131 H131       -0.1429  -14.6548  -40.5499 H         1 UNK         0.0600 
    132 H132       -2.1815  -14.6006  -41.8482 H         1 UNK         0.0800 
    133 H133       -1.0962  -13.4178  -42.4938 H         1 UNK         0.0800 
    134 H134       -3.0744  -16.5052  -42.8783 H         1 UNK         0.0800 
    135 H135       -3.7802  -15.5527  -44.1630 H         1 UNK         0.0800 
    136 H136       -2.4424  -16.2994  -46.6045 H         1 UNK         0.1150 
    137 H137       -2.9395  -20.5222  -47.1404 H         1 UNK         0.1150 
    138 H138       -3.4272  -18.7916  -43.2564 H         1 UNK         0.1150 
    139 H139       -4.4352  -21.0930  -43.9386 H         1 UNK         0.0800 
    140 H140       -3.8073  -21.8717  -45.3617 H         1 UNK         0.0800 
    141 H141        0.1318  -22.0535  -44.1745 H         1 UNK         0.0800 
    142 H142       -0.7051  -20.8981  -45.1685 H         1 UNK         0.0800 
    143 H143       -1.8858  -22.7955  -46.3463 H         1 UNK         0.0600 
    144 H144        0.7830  -21.9462  -46.7200 H         1 UNK         0.3000 
    145 H145        1.9287  -23.4984  -49.1701 H         1 UNK         0.0600 
    146 H146        1.3883  -22.2629  -51.2658 H         1 UNK         0.0600 
    147 H147        0.1846  -23.4959  -50.9310 H         1 UNK         0.0600 
    148 H148       -0.1758  -21.8045  -50.6018 H         1 UNK         0.0600 
    149 H149        1.1324  -20.6451  -48.6782 H         1 UNK         0.3000 
    150 H150        4.3118  -19.9260  -47.3088 H         1 UNK         0.0600 
    151 H151        4.7605  -19.5658  -49.7391 H         1 UNK         0.0600 
    152 H152        4.3282  -18.0594  -48.9451 H         1 UNK         0.0600 
    153 H153        3.1475  -18.8962  -49.9518 H         1 UNK         0.0600 
    154 H154        2.0932  -18.2188  -47.7915 H         1 UNK         0.3000 
    155 H155       -0.0290  -18.4547  -46.0617 H         1 UNK         0.0600 
    156 H156        0.4269  -19.5479  -43.7929 H         1 UNK         0.0600 
    157 H157       -0.2058  -17.9259  -43.7090 H         1 UNK         0.0600 
    158 H158        1.5114  -18.2213  -43.4333 H         1 UNK         0.0600 
    159 H159        1.4768  -16.3702  -44.8600 H         1 UNK         0.3000 
    160 H160        2.2862  -14.5694  -45.8874 H         1 UNK         0.0600 
    161 H161        2.0730  -14.4534  -48.9435 H         1 UNK         0.0600 
    162 H162        3.5105  -14.8098  -47.9985 H         1 UNK         0.0600 
    163 H163        2.7925  -13.2031  -47.9429 H         1 UNK         0.0600 
    164 H164        0.5098  -13.2789  -45.8127 H         1 UNK         0.3000 
    165 H165       -1.6746  -11.9836  -48.0654 H         1 UNK         0.0600 
    166 H166       -3.7034  -12.4833  -46.8068 H         1 UNK         0.0600 
    167 H167       -3.2208  -13.9183  -47.6943 H         1 UNK         0.0600 
    168 H168       -2.9267  -13.8175  -45.9658 H         1 UNK         0.0600 
    169 H169       -1.6144  -11.9315  -45.1637 H         1 UNK         0.3000 
    170 H170       -0.5821   -8.9205  -45.0070 H         1 UNK         0.0600 
    171 H171       -1.6792  -10.6386  -43.6038 H         1 UNK         0.0600 
    172 H172       -0.1500  -11.4998  -43.4077 H         1 UNK         0.0600 
    173 H173       -0.3635   -9.8993  -42.7157 H         1 UNK         0.0600 
    174 H174        1.9044  -10.4872  -44.4973 H         1 UNK         0.3000 
    175 H175        3.9863   -8.0617  -45.7964 H         1 UNK         0.0600 
    176 H176        3.6002   -8.2039  -42.7559 H         1 UNK         0.0600 
    177 H177        5.0740   -7.7026  -43.5864 H         1 UNK         0.0600 
    178 H178        3.6175   -6.7310  -43.7181 H         1 UNK         0.0600 
    179 H179        4.3674  -10.2233  -43.8931 H         1 UNK         0.3000 
    180 H180        4.2294  -12.8667  -46.1661 H         1 UNK         0.0600 
    181 H181        6.8306  -11.6774  -45.0724 H         1 UNK         0.0600 
    182 H182        6.5125  -12.0485  -46.7627 H         1 UNK         0.0600 
    183 H183        6.5852  -13.3481  -45.5845 H         1 UNK         0.0600 
    184 H184        5.2373  -12.8054  -43.5374 H         1 UNK         0.3000 
    185 H185        3.8966  -13.8776  -41.9289 H         1 UNK         0.0600 
    186 H186        2.7578  -11.0725  -41.3893 H         1 UNK         0.0600 
    187 H187        3.4713  -12.1380  -40.1787 H         1 UNK         0.0600 
    188 H188        4.4675  -11.4813  -41.4633 H         1 UNK         0.0600 
    189 H189        1.3302  -13.0485  -41.0540 H         1 UNK         0.3000 
    190 H190        1.1159  -24.5220  -45.8620 H         1 UNK         0.3000 
    191 H191        0.2031  -26.6765  -44.2452 H         1 UNK         0.0600 
    192 H192        2.3930  -26.5730  -46.3913 H         1 UNK         0.0600 
    193 H193        2.6024  -26.2060  -44.6782 H         1 UNK         0.0600 
    194 H194        2.2087  -27.8403  -45.1849 H         1 UNK         0.0600 
    195 H195       -0.4050  -25.9225  -47.6125 H         1 UNK         0.3000 
    196 H196       -1.7113  -28.5682  -48.1027 H         1 UNK         0.0600 
    197 H197        0.1133  -27.9336  -49.7109 H         1 UNK         0.0600 
    198 H198       -0.7316  -26.4314  -50.0775 H         1 UNK         0.0600 
    199 H199       -1.4547  -27.9815  -50.4959 H         1 UNK         0.0600 
    200 H200       -2.5799  -25.8757  -46.6596 H         1 UNK         0.3000 
    201 H201       -4.2986  -24.5082  -46.4400 H         1 UNK         0.0600 
    202 H202       -6.5701  -25.3874  -46.8677 H         1 UNK         0.0600 
    203 H203       -5.5606  -26.6502  -46.1834 H         1 UNK         0.0600 
    204 H204       -5.9294  -26.6526  -47.9065 H         1 UNK         0.0600 
    205 H205       -2.5925  -23.9057  -48.5611 H         1 UNK         0.3000 
    206 H206       -2.2778  -22.6096  -50.3041 H         1 UNK         0.0600 
    207 H207       -3.7296  -20.9504  -49.1883 H         1 UNK         0.0600 
    208 H208       -5.1539  -21.6242  -49.9659 H         1 UNK         0.0600 
    209 H209       -3.8949  -20.8635  -50.9257 H         1 UNK         0.0600 
    210 H210       -2.8562  -25.2499  -50.6926 H         1 UNK         0.3000 
    211 H211       -3.2402  -26.8596  -52.1497 H         1 UNK         0.0600 
    212 H212       -2.0097  -25.3939  -53.8037 H         1 UNK         0.0600 
    213 H213       -3.1981  -26.4461  -54.5592 H         1 UNK         0.0600 
    214 H214       -3.5595  -24.7443  -54.3402 H         1 UNK         0.0600 
    215 H215       -5.2125  -26.3929  -50.5369 H         1 UNK         0.3000 
    216 H216       -7.3823  -26.3745  -50.0223 H         1 UNK         0.0600 
    217 H217       -8.9105  -27.7764  -51.3729 H         1 UNK         0.0600 
    218 H218       -7.7994  -27.7428  -52.7354 H         1 UNK         0.0600 
    219 H219       -7.3425  -28.5564  -51.2396 H         1 UNK         0.0600 
    220 H220       -6.5714  -24.0009  -50.7125 H         1 UNK         0.3000 
    221 H221       -7.0161  -21.9395  -51.2569 H         1 UNK         0.0600 
    222 H222       -9.9280  -22.7719  -51.6860 H         1 UNK         0.0600 
    223 H223       -9.1986  -22.3968  -50.1244 H         1 UNK         0.0600 
    224 H224       -9.3383  -21.1513  -51.3525 H         1 UNK         0.0600 
    225 H225       -6.7726  -24.1075  -53.6625 H         1 UNK         0.3000 
    226 H226       -7.8719  -22.6025  -55.8799 H         1 UNK         0.0600 
    227 H227       -7.6475  -25.1140  -55.8533 H         1 UNK         0.0600 
    228 H228       -6.9052  -24.3620  -57.2584 H         1 UNK         0.0600 
    229 H229       -5.8943  -24.9323  -55.9414 H         1 UNK         0.0600 
    230 H230       -4.6760  -22.7629  -54.3047 H         1 UNK         0.3000 
    231 H231       -3.3815  -21.2763  -56.5292 H         1 UNK         0.0600 
    232 H232       -1.3045  -21.7062  -55.2371 H         1 UNK         0.0600 
    233 H233       -2.1614  -23.1979  -55.5762 H         1 UNK         0.0600 
    234 H234       -2.2291  -22.4866  -53.9630 H         1 UNK         0.0600 
    235 H235       -4.6794  -20.7648  -53.3235 H         1 UNK         0.3000 
    236 H236       -4.8733  -19.0338  -51.9242 H         1 UNK         0.0600 
    237 H237       -6.0372  -18.0397  -53.9008 H         1 UNK         0.0600 
    238 H238       -5.3063  -16.8147  -52.8779 H         1 UNK         0.0600 
    239 H239       -4.5340  -17.2605  -54.3932 H         1 UNK         0.0600 
    240 H240       -2.1726  -20.0925  -52.3981 H         1 UNK         0.3000 
    241 H241       -0.0638  -19.8666  -51.8397 H         1 UNK         0.0600 
    242 H242        0.2301  -17.5410  -54.9067 H         1 UNK         0.3800 
    243 H243       -1.1991  -18.4141  -54.4177 H         1 UNK         0.3800 
    244 H244        0.7912  -18.1738  -50.2630 H         1 UNK         0.0800 
    245 H245       -0.6619  -17.2439  -50.3978 H         1 UNK         0.0800 
    246 H246       -3.2320  -18.4939  -49.1053 H         1 UNK         0.0800 
    247 H247       -2.1395  -17.1830  -48.7348 H         1 UNK         0.0800 
@<TRIPOS>BOND
     1    1    2 1    
     2    1  127 1    
     3    1  128 1    
     4    1  129 1    
     5    2    3 2    
     6    2    4 am   BACKBONE|DICT|INTERRES
     7    4    5 1    
     8    4  130 1    
     9    5    6 1    
    10    5   65 1    
    11    5  131 1    
    12    6    7 1    
    13    6  132 1    
    14    6  133 1    
    15    7    8 1    
    16    8    9 1    
    17    8  134 1    
    18    8  135 1    
    19    9   10 ar   
    20    9   14 ar   
    21   10   11 ar   
    22   10  136 1    
    23   11   12 ar   
    24   11  126 1    
    25   12   13 ar   
    26   12  137 1    
    27   13   14 ar   
    28   13   15 1    
    29   14  138 1    
    30   15   16 1    
    31   15  139 1    
    32   15  140 1    
    33   16   17 1    
    34   17   18 1    
    35   17  141 1    
    36   17  142 1    
    37   18   19 1    
    38   18   67 1    
    39   18  143 1    
    40   19   20 am   BACKBONE|DICT|INTERRES
    41   19  144 1    
    42   20   21 2    
    43   20   22 1    
    44   22   23 1    
    45   22   24 1    
    46   22  145 1    
    47   23  146 1    
    48   23  147 1    
    49   23  148 1    
    50   24   25 am   BACKBONE|DICT|INTERRES
    51   24  149 1    
    52   25   26 2    
    53   25   27 1    
    54   27   28 1    
    55   27   29 1    
    56   27  150 1    
    57   28  151 1    
    58   28  152 1    
    59   28  153 1    
    60   29   30 am   BACKBONE|DICT|INTERRES
    61   29  154 1    
    62   30   31 2    
    63   30   32 1    
    64   32   33 1    
    65   32   34 1    
    66   32  155 1    
    67   33  156 1    
    68   33  157 1    
    69   33  158 1    
    70   34   35 am   BACKBONE|DICT|INTERRES
    71   34  159 1    
    72   35   36 2    
    73   35   37 1    
    74   37   38 1    
    75   37   39 1    
    76   37  160 1    
    77   38  161 1    
    78   38  162 1    
    79   38  163 1    
    80   39   40 am   BACKBONE|DICT|INTERRES
    81   39  164 1    
    82   40   41 2    
    83   40   42 1    
    84   42   43 1    
    85   42   44 1    
    86   42  165 1    
    87   43  166 1    
    88   43  167 1    
    89   43  168 1    
    90   44   45 am   BACKBONE|DICT|INTERRES
    91   44  169 1    
    92   45   46 2    
    93   45   47 1    
    94   47   48 1    
    95   47   49 1    
    96   47  170 1    
    97   48  171 1    
    98   48  172 1    
    99   48  173 1    
   100   49   50 am   BACKBONE|DICT|INTERRES
   101   49  174 1    
   102   50   51 2    
   103   50   52 1    
   104   52   53 1    
   105   52   54 1    
   106   52  175 1    
   107   53  176 1    
   108   53  177 1    
   109   53  178 1    
   110   54   55 am   BACKBONE|DICT|INTERRES
   111   54  179 1    
   112   55   56 2    
   113   55   57 1    
   114   57   58 1    
   115   57   59 1    
   116   57  180 1    
   117   58  181 1    
   118   58  182 1    
   119   58  183 1    
   120   59   60 am   BACKBONE|DICT|INTERRES
   121   59  184 1    
   122   60   61 2    
   123   60   62 1    
   124   62   63 1    
   125   62   64 1    
   126   62  185 1    
   127   63  186 1    
   128   63  187 1    
   129   63  188 1    
   130   64   65 am   BACKBONE|DICT|INTERRES
   131   64  189 1    
   132   65   66 2    
   133   67   68 2    
   134   67   69 am   BACKBONE|DICT|INTERRES
   135   69   70 1    
   136   69  190 1    
   137   70   71 1    
   138   70   72 1    
   139   70  191 1    
   140   71  192 1    
   141   71  193 1    
   142   71  194 1    
   143   72   73 2    
   144   72   74 am   BACKBONE|DICT|INTERRES
   145   74   75 1    
   146   74  195 1    
   147   75   76 1    
   148   75   77 1    
   149   75  196 1    
   150   76  197 1    
   151   76  198 1    
   152   76  199 1    
   153   77   78 2    
   154   77   79 am   BACKBONE|DICT|INTERRES
   155   79   80 1    
   156   79  200 1    
   157   80   81 1    
   158   80   82 1    
   159   80  201 1    
   160   81  202 1    
   161   81  203 1    
   162   81  204 1    
   163   82   83 2    
   164   82   84 am   BACKBONE|DICT|INTERRES
   165   84   85 1    
   166   84  205 1    
   167   85   86 1    
   168   85   87 1    
   169   85  206 1    
   170   86  207 1    
   171   86  208 1    
   172   86  209 1    
   173   87   88 2    
   174   87   89 am   BACKBONE|DICT|INTERRES
   175   89   90 1    
   176   89  210 1    
   177   90   91 1    
   178   90   92 1    
   179   90  211 1    
   180   91  212 1    
   181   91  213 1    
   182   91  214 1    
   183   92   93 2    
   184   92   94 am   BACKBONE|DICT|INTERRES
   185   94   95 1    
   186   94  215 1    
   187   95   96 1    
   188   95   97 1    
   189   95  216 1    
   190   96  217 1    
   191   96  218 1    
   192   96  219 1    
   193   97   98 2    
   194   97   99 am   BACKBONE|DICT|INTERRES
   195   99  100 1    
   196   99  220 1    
   197  100  101 1    
   198  100  102 1    
   199  100  221 1    
   200  101  222 1    
   201  101  223 1    
   202  101  224 1    
   203  102  103 2    
   204  102  104 am   BACKBONE|DICT|INTERRES
   205  104  105 1    
   206  104  225 1    
   207  105  106 1    
   208  105  107 1    
   209  105  226 1    
   210  106  227 1    
   211  106  228 1    
   212  106  229 1    
   213  107  108 2    
   214  107  109 am   BACKBONE|DICT|INTERRES
   215  109  110 1    
   216  109  230 1    
   217  110  111 1    
   218  110  112 1    
   219  110  231 1    
   220  111  232 1    
   221  111  233 1    
   222  111  234 1    
   223  112  113 2    
   224  112  114 am   BACKBONE|DICT|INTERRES
   225  114  115 1    
   226  114  235 1    
   227  115  116 1    
   228  115  117 1    
   229  115  236 1    
   230  116  237 1    
   231  116  238 1    
   232  116  239 1    
   233  117  118 2    
   234  117  119 am   BACKBONE|DICT|INTERRES
   235  119  120 1    
   236  119  240 1    
   237  120  121 1    
   238  120  124 1    
   239  120  241 1    
   240  121  122 am   BACKBONE|DICT|INTERRES
   241  121  123 2    
   242  122  242 1    
   243  122  243 1    
   244  124  125 1    
   245  124  244 1    
   246  124  245 1    
   247  125  126 1    
   248  126  246 1    
   249  126  247 1    
@<TRIPOS>SUBSTRUCTURE
     1 UNK         1 GROUP             0       ****    0 ROOT    
