@<TRIPOS>MOLECULE
3R540
247   249    1
SMALL
USER_CHARGES


@<TRIPOS>ATOM
      1 CA          0.7744  -13.7051  -54.1536 C.3       0 UNK        -0.1800 
      2 C           1.7136  -13.1563  -53.0890 C.2       0 UNK         0.5000 
      3 O           2.8836  -12.9004  -53.3740 O.2       0 UNK        -0.5000 
      4 N           1.2085  -12.9779  -51.8662 N.am      1 UNK        -0.5000 
      5 CA          1.9289  -12.4512  -50.7097 C.3       1 UNK         0.1400 
      6 C6          2.9276  -13.4781  -50.0952 C.3       23 UNK        -0.0398 
      7 S7          2.1593  -14.9038  -49.2431 S.3       23 UNK        -0.2404 
      8 C8          2.1472  -16.1494  -50.5694 C.3       23 UNK        -0.0205 
      9 C9          1.1828  -17.2828  -50.2589 C.ar      23 UNK        -0.0193 
     10 C10        -0.1844  -17.0162  -50.1465 C.ar      23 UNK        -0.1150 
     11 C11        -1.0944  -18.0444  -49.8912 C.ar      23 UNK        -0.0193 
     12 C12        -0.6224  -19.3537  -49.7541 C.ar      23 UNK        -0.1150 
     13 C13         0.7437  -19.6352  -49.8571 C.ar      23 UNK        -0.0193 
     14 C14         1.6428  -18.5948  -50.1100 C.ar      23 UNK        -0.1150 
     15 C15         1.2381  -21.0680  -49.7283 C.3       23 UNK        -0.0205 
     16 S16         1.9782  -21.4056  -48.0966 S.3       23 UNK        -0.2404 
     17 C17         1.4980  -23.1549  -47.9193 C.3       23 UNK        -0.0398 
     18 CA          2.1901  -23.9204  -46.7624 C.3       11 UNK         0.1400 
     19 N           1.9802  -23.3104  -45.4424 N.am      11 UNK        -0.5000 
     20 C           2.6134  -23.7084  -44.3240 C.2       10 UNK         0.5000 
     21 O           3.5216  -24.5408  -44.3238 O.2       10 UNK        -0.5000 
     22 CA          2.1782  -23.1045  -42.9734 C.3       10 UNK         0.1400 
     23 CB          3.2511  -22.1387  -42.4464 C.3       10 UNK        -0.1800 
     24 N           0.8902  -22.4152  -43.0284 N.am      10 UNK        -0.5000 
     25 C          -0.3036  -23.0211  -43.1203 C.2       9 UNK         0.5000 
     26 O          -0.4461  -24.2433  -43.0810 O.2       9 UNK        -0.5000 
     27 CA         -1.5450  -22.1204  -43.3173 C.3       9 UNK         0.1400 
     28 CB         -2.2989  -21.9439  -41.9911 C.3       9 UNK        -0.1800 
     29 N          -1.2358  -20.7963  -43.8675 N.am      9 UNK        -0.5000 
     30 C          -0.6633  -20.5851  -45.0603 C.2       8 UNK         0.5000 
     31 O          -0.4460  -21.4919  -45.8619 O.2       8 UNK        -0.5000 
     32 CA         -0.2030  -19.1512  -45.3986 C.3       8 UNK         0.1400 
     33 CB         -1.2172  -18.4754  -46.3267 C.3       8 UNK        -0.1800 
     34 N           0.0544  -18.2618  -44.2583 N.am      8 UNK        -0.5000 
     35 C           0.8513  -18.5132  -43.2107 C.2       7 UNK         0.5000 
     36 O           1.4210  -19.5878  -43.0246 O.2       7 UNK        -0.5000 
     37 CA          1.0402  -17.3487  -42.2232 C.3       7 UNK         0.1400 
     38 CB          1.7863  -17.7535  -40.9346 C.3       7 UNK        -0.1800 
     39 N           1.6859  -16.2082  -42.8739 N.am      7 UNK        -0.5000 
     40 C           2.9108  -16.1507  -43.4200 C.2       6 UNK         0.5000 
     41 O           3.7231  -17.0758  -43.4073 O.2       6 UNK        -0.5000 
     42 CA          3.2999  -14.8248  -44.1033 C.3       6 UNK         0.1400 
     43 CB          3.1612  -14.9513  -45.6285 C.3       6 UNK        -0.1800 
     44 N           2.4976  -13.6869  -43.6539 N.am      6 UNK        -0.5000 
     45 C           2.5598  -13.1185  -42.4422 C.2       5 UNK         0.5000 
     46 O           3.3552  -13.4548  -41.5646 O.2       5 UNK        -0.5000 
     47 CA          1.5349  -12.0075  -42.1604 C.3       5 UNK         0.1400 
     48 CB          2.0307  -10.6588  -42.7049 C.3       5 UNK        -0.1800 
     49 N           0.2337  -12.3217  -42.7534 N.am      5 UNK        -0.5000 
     50 C          -0.6982  -13.0932  -42.1776 C.2       4 UNK         0.5000 
     51 O          -0.5704  -13.6023  -41.0641 O.2       4 UNK        -0.5000 
     52 CA         -1.9887  -13.3482  -42.9804 C.3       4 UNK         0.1400 
     53 CB         -3.0245  -12.2502  -42.6952 C.3       4 UNK        -0.1800 
     54 N          -1.7594  -13.4269  -44.4237 N.am      4 UNK        -0.5000 
     55 C          -1.1780  -14.4634  -45.0413 C.2       3 UNK         0.5000 
     56 O          -0.8014  -15.4823  -44.4601 O.2       3 UNK        -0.5000 
     57 CA         -0.9614  -14.3368  -46.5618 C.3       3 UNK         0.1400 
     58 CB         -2.1886  -14.8630  -47.3197 C.3       3 UNK        -0.1800 
     59 N          -0.6601  -12.9878  -47.0536 N.am      3 UNK        -0.5000 
     60 C           0.2897  -12.1579  -46.6046 C.2       2 UNK         0.5000 
     61 O           0.9672  -12.3708  -45.5999 O.2       2 UNK        -0.5000 
     62 CA          0.5602  -10.9073  -47.4636 C.3       2 UNK         0.1400 
     63 CB          1.2999   -9.8089  -46.6794 C.3       2 UNK        -0.1800 
     64 N           1.3599  -11.2766  -48.6314 N.am      2 UNK        -0.5000 
     65 C           0.8874  -11.9306  -49.6999 C.2       1 UNK         0.5000 
     66 O          -0.3150  -12.1546  -49.8818 O.2       1 UNK        -0.5000 
     67 C           1.7084  -25.3880  -46.7520 C.2       11 UNK         0.5000 
     68 O           2.4621  -26.2841  -47.1320 O.2       11 UNK        -0.5000 
     69 N           0.4680  -25.5738  -46.2830 N.am      12 UNK        -0.5000 
     70 CA         -0.2965  -26.8019  -46.0730 C.3       12 UNK         0.1400 
     71 CB         -0.1837  -27.7888  -47.2584 C.3       12 UNK        -0.1800 
     72 C          -1.7585  -26.3823  -45.8233 C.2       12 UNK         0.5000 
     73 O          -2.0718  -25.1866  -45.8732 O.2       12 UNK        -0.5000 
     74 N          -2.6301  -27.3662  -45.5643 N.am      13 UNK        -0.5000 
     75 CA         -4.0605  -27.1957  -45.2923 C.3       13 UNK         0.1400 
     76 CB         -4.7050  -28.5802  -45.1280 C.3       13 UNK        -0.1800 
     77 C          -4.8035  -26.3862  -46.3743 C.2       13 UNK         0.5000 
     78 O          -4.5425  -26.5662  -47.5673 O.2       13 UNK        -0.5000 
     79 N          -5.7035  -25.5002  -45.9235 N.am      14 UNK        -0.5000 
     80 CA         -6.4977  -24.5648  -46.7304 C.3       14 UNK         0.1400 
     81 CB         -7.5420  -25.3286  -47.5724 C.3       14 UNK        -0.1800 
     82 C          -5.6260  -23.6106  -47.5759 C.2       14 UNK         0.5000 
     83 O          -5.9666  -23.3231  -48.7233 O.2       14 UNK        -0.5000 
     84 N          -4.4938  -23.1707  -47.0035 N.am      15 UNK        -0.5000 
     85 CA         -3.4502  -22.3545  -47.6376 C.3       15 UNK         0.1400 
     86 CB         -3.9821  -20.9431  -47.9573 C.3       15 UNK        -0.1800 
     87 C          -2.8231  -23.0649  -48.8565 C.2       15 UNK         0.5000 
     88 O          -2.6773  -22.4698  -49.9268 O.2       15 UNK        -0.5000 
     89 N          -2.5262  -24.3591  -48.6655 N.am      16 UNK        -0.5000 
     90 CA         -2.1108  -25.3408  -49.6714 C.3       16 UNK         0.1400 
     91 CB         -0.6573  -25.0853  -50.1151 C.3       16 UNK        -0.1800 
     92 C          -3.1149  -25.4521  -50.8363 C.2       16 UNK         0.5000 
     93 O          -2.7247  -25.4160  -52.0040 O.2       16 UNK        -0.5000 
     94 N          -4.4018  -25.5604  -50.4724 N.am      17 UNK        -0.5000 
     95 CA         -5.5761  -25.5353  -51.3512 C.3       17 UNK         0.1400 
     96 CB         -5.6490  -26.8224  -52.1984 C.3       17 UNK        -0.1800 
     97 C          -5.6513  -24.2416  -52.1930 C.2       17 UNK         0.5000 
     98 O          -5.8684  -24.3008  -53.4049 O.2       17 UNK        -0.5000 
     99 N          -5.4572  -23.1007  -51.5145 N.am      18 UNK        -0.5000 
    100 CA        -5.4136  -21.7332  -52.0380 C.3       18 UNK         0.1400 
    101 CB        -6.8232  -21.2913  -52.4752 C.3       18 UNK        -0.1800 
    102 C         -4.3501  -21.5572  -53.1425 C.2       18 UNK         0.5000 
    103 O         -4.6732  -21.1510  -54.2613 O.2       18 UNK        -0.5000 
    104 N         -3.0974  -21.8988  -52.8091 N.am      19 UNK        -0.5000 
    105 CA        -1.9697  -22.0115  -53.7413 C.3       19 UNK         0.1400 
    106 CB        -0.7312  -22.5010  -52.9797 C.3       19 UNK        -0.1800 
    107 C         -1.6284  -20.7378  -54.5383 C.2       19 UNK         0.5000 
    108 O         -1.1667  -20.8491  -55.6748 O.2       19 UNK        -0.5000 
    109 N         -1.8661  -19.5634  -53.9439 N.am      20 UNK        -0.5000 
    110 CA        -1.6338  -18.2528  -54.5536 C.3       20 UNK         0.1400 
    111 CB        -0.6866  -17.4500  -53.6459 C.3       20 UNK        -0.1800 
    112 C         -2.9640  -17.5124  -54.7918 C.2       20 UNK         0.5000 
    113 O         -2.9933  -16.2821  -54.7335 O.2       20 UNK        -0.5000 
    114 N         -4.0565  -18.2668  -54.9923 N.am      21 UNK        -0.5000 
    115 CA        -5.4649  -17.8498  -55.0883 C.3       21 UNK         0.1400 
    116 CB        -5.6970  -16.8051  -56.1967 C.3       21 UNK        -0.1800 
    117 C         -6.0529  -17.3947  -53.7381 C.2       21 UNK         0.5000 
    118 O         -7.1751  -17.7785  -53.4104 O.2       21 UNK        -0.5000 
    119 N         -5.2639  -16.6428  -52.9618 N.am      22 UNK        -0.5000 
    120 CA        -5.4186  -16.3960  -51.5182 C.3       22 UNK         0.1400 
    121 C         -6.6908  -15.5978  -51.0973 C.2       22 UNK         0.5000 
    122 N         -7.3578  -14.8950  -52.0041 N.am      22 UNK        -0.7600 
    123 O         -7.0618  -15.5818  -49.9268 O.2       22 UNK        -0.5000 
    124 C124       -5.2061  -17.6918  -50.6811 C.3       23 UNK        -0.0398 
    125 S125       -3.5971  -18.4931  -51.0265 S.3       23 UNK        -0.2404 
    126 C126       -2.5750  -17.7241  -49.7360 C.3       23 UNK        -0.0205 
    127 H127        0.6302  -12.9680  -54.9435 H         1 UNK         0.0600 
    128 H128       -0.2027  -13.9584  -53.7407 H         1 UNK         0.0600 
    129 H129        1.1984  -14.6050  -54.5989 H         1 UNK         0.0600 
    130 H130        0.2278  -13.1483  -51.6773 H         1 UNK         0.3000 
    131 H131        2.4960  -11.5798  -51.0441 H         1 UNK         0.0600 
    132 H132        3.6111  -13.8447  -50.8619 H         1 UNK         0.0800 
    133 H133        3.5663  -12.9751  -49.3682 H         1 UNK         0.0800 
    134 H134        1.8446  -15.6906  -51.5103 H         1 UNK         0.0800 
    135 H135        3.1609  -16.5245  -50.7170 H         1 UNK         0.0800 
    136 H136       -0.5360  -16.0002  -50.2591 H         1 UNK         0.1150 
    137 H137       -1.3192  -20.1573  -49.5693 H         1 UNK         0.1150 
    138 H138        2.6982  -18.8112  -50.1980 H         1 UNK         0.1150 
    139 H139        0.4054  -21.7519  -49.8995 H         1 UNK         0.0800 
    140 H140        1.9711  -21.2798  -50.5078 H         1 UNK         0.0800 
    141 H141        1.7261  -23.6487  -48.8655 H         1 UNK         0.0800 
    142 H142        0.4122  -23.1864  -47.8086 H         1 UNK         0.0800 
    143 H143        3.2644  -23.9229  -46.9592 H         1 UNK         0.0600 
    144 H144        1.2463  -22.6133  -45.3837 H         1 UNK         0.3000 
    145 H145        2.0901  -23.9283  -42.2620 H         1 UNK         0.0600 
    146 H146        2.9560  -21.6986  -41.4936 H         1 UNK         0.0600 
    147 H147        4.1976  -22.6564  -42.2867 H         1 UNK         0.0600 
    148 H148        3.4391  -21.3256  -43.1485 H         1 UNK         0.0600 
    149 H149        0.9353  -21.3989  -43.0598 H         1 UNK         0.3000 
    150 H150       -2.2042  -22.6297  -44.0237 H         1 UNK         0.0600 
    151 H151       -2.5721  -22.9104  -41.5653 H         1 UNK         0.0600 
    152 H152       -3.2213  -21.3805  -42.1328 H         1 UNK         0.0600 
    153 H153       -1.6927  -21.4186  -41.2519 H         1 UNK         0.0600 
    154 H154       -1.3715  -20.0050  -43.2564 H         1 UNK         0.3000 
    155 H155        0.7375  -19.2514  -45.9440 H         1 UNK         0.0600 
    156 H156       -1.5076  -19.1465  -47.1330 H         1 UNK         0.0600 
    157 H157       -0.7895  -17.5841  -46.7853 H         1 UNK         0.0600 
    158 H158       -2.1251  -18.1878  -45.7955 H         1 UNK         0.0600 
    159 H159       -0.3400  -17.3266  -44.3294 H         1 UNK         0.3000 
    160 H160        0.0426  -17.0153  -41.9332 H         1 UNK         0.0600 
    161 H161        2.7883  -18.1308  -41.1407 H         1 UNK         0.0600 
    162 H162        1.2466  -18.5400  -40.4060 H         1 UNK         0.0600 
    163 H163        1.8803  -16.9079  -40.2532 H         1 UNK         0.0600 
    164 H164        1.0924  -15.4009  -43.0062 H         1 UNK         0.3000 
    165 H165        4.3460  -14.6213  -43.8659 H         1 UNK         0.0600 
    166 H166        3.4653  -14.0337  -46.1327 H         1 UNK         0.0600 
    167 H167        3.7859  -15.7575  -46.0149 H         1 UNK         0.0600 
    168 H168        2.1329  -15.1663  -45.9201 H         1 UNK         0.0600 
    169 H169        1.8532  -13.2923  -44.3368 H         1 UNK         0.3000 
    170 H170        1.4249  -11.9144  -41.0778 H         1 UNK         0.0600 
    171 H171        2.9838  -10.3832  -42.2520 H         1 UNK         0.0600 
    172 H172        2.1777  -10.6867  -43.7849 H         1 UNK         0.0600 
    173 H173        1.3224   -9.8602  -42.4838 H         1 UNK         0.0600 
    174 H174        0.0922  -12.0168  -43.7080 H         1 UNK         0.3000 
    175 H175       -2.4043  -14.3012  -42.6455 H         1 UNK         0.0600 
    176 H176       -2.6756  -11.2708  -43.0248 H         1 UNK         0.0600 
    177 H177       -3.9684  -12.4582  -43.1993 H         1 UNK         0.0600 
    178 H178       -3.2361  -12.1811  -41.6273 H         1 UNK         0.0600 
    179 H179       -2.0389  -12.6314  -44.9785 H         1 UNK         0.3000 
    180 H180       -0.1091  -14.9681  -46.8192 H         1 UNK         0.0600 
    181 H181       -3.0641  -14.2352  -47.1500 H         1 UNK         0.0600 
    182 H182       -2.4483  -15.8746  -47.0080 H         1 UNK         0.0600 
    183 H183       -1.9996  -14.8885  -48.3923 H         1 UNK         0.0600 
    184 H184       -1.0981  -12.7368  -47.9317 H         1 UNK         0.3000 
    185 H185       -0.3992  -10.5007  -47.7906 H         1 UNK         0.0600 
    186 H186        2.2880  -10.1370  -46.3540 H         1 UNK         0.0600 
    187 H187        1.4288   -8.9122  -47.2856 H         1 UNK         0.0600 
    188 H188        0.7397   -9.5209  -45.7889 H         1 UNK         0.0600 
    189 H189        2.3563  -11.1421  -48.5405 H         1 UNK         0.3000 
    190 H190       -0.0632  -24.7580  -45.9986 H         1 UNK         0.3000 
    191 H191        0.0711  -27.2808  -45.1642 H         1 UNK         0.0600 
    192 H192       -0.3470  -27.3005  -48.2157 H         1 UNK         0.0600 
    193 H193        0.8014  -28.2530  -47.2912 H         1 UNK         0.0600 
    194 H194       -0.9003  -28.6066  -47.1821 H         1 UNK         0.0600 
    195 H195       -2.2949  -28.3180  -45.5629 H         1 UNK         0.3000 
    196 H196       -4.1423  -26.6627  -44.3429 H         1 UNK         0.0600 
    197 H197       -4.2430  -29.1384  -44.3135 H         1 UNK         0.0600 
    198 H198       -4.6141  -29.1748  -46.0381 H         1 UNK         0.0600 
    199 H199       -5.7678  -28.4931  -44.8983 H         1 UNK         0.0600 
    200 H200       -5.8437  -25.4304  -44.9250 H         1 UNK         0.3000 
    201 H201       -7.0412  -23.9318  -46.0276 H         1 UNK         0.0600 
    202 H202       -8.2068  -24.6389  -48.0938 H         1 UNK         0.0600 
    203 H203       -8.1655  -25.9635  -46.9431 H         1 UNK         0.0600 
    204 H204       -7.0732  -25.9627  -48.3249 H         1 UNK         0.0600 
    205 H205       -4.2788  -23.5037  -46.0741 H         1 UNK         0.3000 
    206 H206       -2.6542  -22.2519  -46.9019 H         1 UNK         0.0600 
    207 H207       -4.3818  -20.4600  -47.0660 H         1 UNK         0.0600 
    208 H208       -4.7667  -20.9589  -48.7135 H         1 UNK         0.0600 
    209 H209       -3.1846  -20.3104  -48.3368 H         1 UNK         0.0600 
    210 H210       -2.6817  -24.7339  -47.7352 H         1 UNK         0.3000 
    211 H211       -2.1425  -26.3132  -49.1808 H         1 UNK         0.0600 
    212 H212        0.0304  -25.2544  -49.2900 H         1 UNK         0.0600 
    213 H213       -0.3583  -25.7584  -50.9192 H         1 UNK         0.0600 
    214 H214       -0.5107  -24.0638  -50.4609 H         1 UNK         0.0600 
    215 H215       -4.5984  -25.6148  -49.4787 H         1 UNK         0.3000 
    216 H216       -6.4488  -25.5227  -50.6971 H         1 UNK         0.0600 
    217 H217       -6.5775  -26.8613  -52.7691 H         1 UNK         0.0600 
    218 H218       -4.8252  -26.8880  -52.9097 H         1 UNK         0.0600 
    219 H219       -5.6191  -27.7107  -51.5675 H         1 UNK         0.0600 
    220 H220       -5.3423  -23.1773  -50.5068 H         1 UNK         0.3000 
    221 H221       -5.1097  -21.0967  -51.2066 H         1 UNK         0.0600 
    222 H222       -7.1950  -21.8828  -53.3122 H         1 UNK         0.0600 
    223 H223       -7.5361  -21.3814  -51.6557 H         1 UNK         0.0600 
    224 H224       -6.8201  -20.2495  -52.7884 H         1 UNK         0.0600 
    225 H225       -2.9234  -22.2002  -51.8530 H         1 UNK         0.3000 
    226 H226       -2.2379  -22.7773  -54.4717 H         1 UNK         0.0600 
    227 H227       -0.8799  -23.5175  -52.6213 H         1 UNK         0.0600 
    228 H228        0.1518  -22.5154  -53.6201 H         1 UNK         0.0600 
    229 H229       -0.5100  -21.8625  -52.1244 H         1 UNK         0.0600 
    230 H230       -2.2669  -19.5615  -53.0149 H         1 UNK         0.3000 
    231 H231       -1.1541  -18.3577  -55.5284 H         1 UNK         0.0600 
    232 H232       -0.3677  -16.5282  -54.1319 H         1 UNK         0.0600 
    233 H233        0.2119  -18.0171  -53.4014 H         1 UNK         0.0600 
    234 H234       -1.1758  -17.1753  -52.7123 H         1 UNK         0.0600 
    235 H235       -3.9327  -19.2729  -54.9509 H         1 UNK         0.3000 
    236 H236       -6.0096  -18.7510  -55.3745 H         1 UNK         0.0600 
    237 H237       -5.2882  -17.1429  -57.1490 H         1 UNK         0.0600 
    238 H238       -6.7636  -16.6316  -56.3437 H         1 UNK         0.0600 
    239 H239       -5.2450  -15.8422  -55.9584 H         1 UNK         0.0600 
    240 H240       -4.3809  -16.3476  -53.3660 H         1 UNK         0.3000 
    241 H241       -4.5991  -15.7232  -51.2645 H         1 UNK         0.0600 
    242 H242       -8.1738  -14.3714  -51.7286 H         1 UNK         0.3800 
    243 H243       -7.0683  -14.9065  -52.9692 H         1 UNK         0.3800 
    244 H244       -5.2675  -17.4814  -49.6122 H         1 UNK         0.0800 
    245 H245       -5.9995  -18.4108  -50.8897 H         1 UNK         0.0800 
    246 H246       -2.9204  -18.0443  -48.7538 H         1 UNK         0.0800 
    247 H247       -2.7317  -16.6463  -49.7764 H         1 UNK         0.0800 
@<TRIPOS>BOND
     1    1    2 1    
     2    1  127 1    
     3    1  128 1    
     4    1  129 1    
     5    2    3 2    
     6    2    4 am   BACKBONE|DICT|INTERRES
     7    4    5 1    
     8    4  130 1    
     9    5    6 1    
    10    5   65 1    
    11    5  131 1    
    12    6    7 1    
    13    6  132 1    
    14    6  133 1    
    15    7    8 1    
    16    8    9 1    
    17    8  134 1    
    18    8  135 1    
    19    9   10 ar   
    20    9   14 ar   
    21   10   11 ar   
    22   10  136 1    
    23   11   12 ar   
    24   11  126 1    
    25   12   13 ar   
    26   12  137 1    
    27   13   14 ar   
    28   13   15 1    
    29   14  138 1    
    30   15   16 1    
    31   15  139 1    
    32   15  140 1    
    33   16   17 1    
    34   17   18 1    
    35   17  141 1    
    36   17  142 1    
    37   18   19 1    
    38   18   67 1    
    39   18  143 1    
    40   19   20 am   BACKBONE|DICT|INTERRES
    41   19  144 1    
    42   20   21 2    
    43   20   22 1    
    44   22   23 1    
    45   22   24 1    
    46   22  145 1    
    47   23  146 1    
    48   23  147 1    
    49   23  148 1    
    50   24   25 am   BACKBONE|DICT|INTERRES
    51   24  149 1    
    52   25   26 2    
    53   25   27 1    
    54   27   28 1    
    55   27   29 1    
    56   27  150 1    
    57   28  151 1    
    58   28  152 1    
    59   28  153 1    
    60   29   30 am   BACKBONE|DICT|INTERRES
    61   29  154 1    
    62   30   31 2    
    63   30   32 1    
    64   32   33 1    
    65   32   34 1    
    66   32  155 1    
    67   33  156 1    
    68   33  157 1    
    69   33  158 1    
    70   34   35 am   BACKBONE|DICT|INTERRES
    71   34  159 1    
    72   35   36 2    
    73   35   37 1    
    74   37   38 1    
    75   37   39 1    
    76   37  160 1    
    77   38  161 1    
    78   38  162 1    
    79   38  163 1    
    80   39   40 am   BACKBONE|DICT|INTERRES
    81   39  164 1    
    82   40   41 2    
    83   40   42 1    
    84   42   43 1    
    85   42   44 1    
    86   42  165 1    
    87   43  166 1    
    88   43  167 1    
    89   43  168 1    
    90   44   45 am   BACKBONE|DICT|INTERRES
    91   44  169 1    
    92   45   46 2    
    93   45   47 1    
    94   47   48 1    
    95   47   49 1    
    96   47  170 1    
    97   48  171 1    
    98   48  172 1    
    99   48  173 1    
   100   49   50 am   BACKBONE|DICT|INTERRES
   101   49  174 1    
   102   50   51 2    
   103   50   52 1    
   104   52   53 1    
   105   52   54 1    
   106   52  175 1    
   107   53  176 1    
   108   53  177 1    
   109   53  178 1    
   110   54   55 am   BACKBONE|DICT|INTERRES
   111   54  179 1    
   112   55   56 2    
   113   55   57 1    
   114   57   58 1    
   115   57   59 1    
   116   57  180 1    
   117   58  181 1    
   118   58  182 1    
   119   58  183 1    
   120   59   60 am   BACKBONE|DICT|INTERRES
   121   59  184 1    
   122   60   61 2    
   123   60   62 1    
   124   62   63 1    
   125   62   64 1    
   126   62  185 1    
   127   63  186 1    
   128   63  187 1    
   129   63  188 1    
   130   64   65 am   BACKBONE|DICT|INTERRES
   131   64  189 1    
   132   65   66 2    
   133   67   68 2    
   134   67   69 am   BACKBONE|DICT|INTERRES
   135   69   70 1    
   136   69  190 1    
   137   70   71 1    
   138   70   72 1    
   139   70  191 1    
   140   71  192 1    
   141   71  193 1    
   142   71  194 1    
   143   72   73 2    
   144   72   74 am   BACKBONE|DICT|INTERRES
   145   74   75 1    
   146   74  195 1    
   147   75   76 1    
   148   75   77 1    
   149   75  196 1    
   150   76  197 1    
   151   76  198 1    
   152   76  199 1    
   153   77   78 2    
   154   77   79 am   BACKBONE|DICT|INTERRES
   155   79   80 1    
   156   79  200 1    
   157   80   81 1    
   158   80   82 1    
   159   80  201 1    
   160   81  202 1    
   161   81  203 1    
   162   81  204 1    
   163   82   83 2    
   164   82   84 am   BACKBONE|DICT|INTERRES
   165   84   85 1    
   166   84  205 1    
   167   85   86 1    
   168   85   87 1    
   169   85  206 1    
   170   86  207 1    
   171   86  208 1    
   172   86  209 1    
   173   87   88 2    
   174   87   89 am   BACKBONE|DICT|INTERRES
   175   89   90 1    
   176   89  210 1    
   177   90   91 1    
   178   90   92 1    
   179   90  211 1    
   180   91  212 1    
   181   91  213 1    
   182   91  214 1    
   183   92   93 2    
   184   92   94 am   BACKBONE|DICT|INTERRES
   185   94   95 1    
   186   94  215 1    
   187   95   96 1    
   188   95   97 1    
   189   95  216 1    
   190   96  217 1    
   191   96  218 1    
   192   96  219 1    
   193   97   98 2    
   194   97   99 am   BACKBONE|DICT|INTERRES
   195   99  100 1    
   196   99  220 1    
   197  100  101 1    
   198  100  102 1    
   199  100  221 1    
   200  101  222 1    
   201  101  223 1    
   202  101  224 1    
   203  102  103 2    
   204  102  104 am   BACKBONE|DICT|INTERRES
   205  104  105 1    
   206  104  225 1    
   207  105  106 1    
   208  105  107 1    
   209  105  226 1    
   210  106  227 1    
   211  106  228 1    
   212  106  229 1    
   213  107  108 2    
   214  107  109 am   BACKBONE|DICT|INTERRES
   215  109  110 1    
   216  109  230 1    
   217  110  111 1    
   218  110  112 1    
   219  110  231 1    
   220  111  232 1    
   221  111  233 1    
   222  111  234 1    
   223  112  113 2    
   224  112  114 am   BACKBONE|DICT|INTERRES
   225  114  115 1    
   226  114  235 1    
   227  115  116 1    
   228  115  117 1    
   229  115  236 1    
   230  116  237 1    
   231  116  238 1    
   232  116  239 1    
   233  117  118 2    
   234  117  119 am   BACKBONE|DICT|INTERRES
   235  119  120 1    
   236  119  240 1    
   237  120  121 1    
   238  120  124 1    
   239  120  241 1    
   240  121  122 am   BACKBONE|DICT|INTERRES
   241  121  123 2    
   242  122  242 1    
   243  122  243 1    
   244  124  125 1    
   245  124  244 1    
   246  124  245 1    
   247  125  126 1    
   248  126  246 1    
   249  126  247 1    
@<TRIPOS>SUBSTRUCTURE
     1 UNK         1 GROUP             0       ****    0 ROOT    
