@<TRIPOS>MOLECULE
3R540
247   249    1
SMALL
USER_CHARGES


@<TRIPOS>ATOM
      1 CA          4.7068  -14.5595  -47.1379 C.3       0 UNK        -0.1800 
      2 C           3.2591  -14.8755  -46.7941 C.2       0 UNK         0.5000 
      3 O           2.8827  -14.8337  -45.6238 O.2       0 UNK        -0.5000 
      4 N           2.4416  -15.1930  -47.8050 N.am      1 UNK        -0.5000 
      5 CA          1.0250  -15.5547  -47.6794 C.3       1 UNK         0.1400 
      6 C6          0.5399  -16.3817  -48.8946 C.3       23 UNK        -0.0398 
      7 S7          1.2081  -18.0711  -48.8613 S.3       23 UNK        -0.2404 
      8 C8          2.4351  -18.0879  -50.2002 C.3       23 UNK        -0.0205 
      9 C9          2.5244  -19.4870  -50.7875 C.ar      23 UNK        -0.0193 
     10 C10         2.0400  -19.7423  -52.0733 C.ar      23 UNK        -0.1150 
     11 C11         2.0428  -21.0419  -52.5867 C.ar      23 UNK        -0.0193 
     12 C12         2.5323  -22.0913  -51.8036 C.ar      23 UNK        -0.1150 
     13 C13         3.0265  -21.8471  -50.5188 C.ar      23 UNK        -0.0193 
     14 C14         3.0381  -20.5402  -50.0239 C.ar      23 UNK        -0.1150 
     15 C15         3.5306  -22.9993  -49.6638 C.3       23 UNK        -0.0205 
     16 S16         2.2130  -23.6674  -48.5977 S.3       23 UNK        -0.2404 
     17 C17         2.2668  -22.5100  -47.1875 C.3       23 UNK        -0.0398 
     18 CA          1.5609  -23.0929  -45.9346 C.3       11 UNK         0.1400 
     19 N           2.0469  -22.4755  -44.7053 N.am      11 UNK        -0.5000 
     20 C           3.0097  -22.9694  -43.9160 C.2       10 UNK         0.5000 
     21 O           3.5379  -24.0688  -44.0905 O.2       10 UNK        -0.5000 
     22 CA          3.4698  -22.0583  -42.7553 C.3       10 UNK         0.1400 
     23 CB          4.7954  -22.5084  -42.1071 C.3       10 UNK        -0.1800 
     24 N           3.5284  -20.6504  -43.1623 N.am      10 UNK        -0.5000 
     25 C           4.2798  -20.1175  -44.1388 C.2       9 UNK         0.5000 
     26 O           5.1854  -20.7180  -44.7179 O.2       9 UNK        -0.5000 
     27 CA          3.9306  -18.6871  -44.5852 C.3       9 UNK         0.1400 
     28 CB          3.2626  -18.7277  -45.9700 C.3       9 UNK        -0.1800 
     29 N           3.0231  -18.0164  -43.6489 N.am      9 UNK        -0.5000 
     30 C           3.3664  -16.9833  -42.8684 C.2       8 UNK         0.5000 
     31 O           4.4986  -16.4998  -42.8267 O.2       8 UNK        -0.5000 
     32 CA          2.2661  -16.3946  -41.9661 C.3       8 UNK         0.1400 
     33 CB          1.4027  -15.3817  -42.7351 C.3       8 UNK        -0.1800 
     34 N           1.3964  -17.4038  -41.3608 N.am      8 UNK        -0.5000 
     35 C           1.7682  -18.2293  -40.3717 C.2       7 UNK         0.5000 
     36 O           2.9222  -18.3184  -39.9528 O.2       7 UNK        -0.5000 
     37 CA          0.6661  -19.0875  -39.7303 C.3       7 UNK         0.1400 
     38 CB         -0.1750  -18.2415  -38.7608 C.3       7 UNK        -0.1800 
     39 N          -0.2127  -19.6593  -40.7465 N.am      7 UNK        -0.5000 
     40 C          -0.2345  -20.9505  -41.1017 C.2       6 UNK         0.5000 
     41 O           0.4500  -21.8237  -40.5687 O.2       6 UNK        -0.5000 
     42 CA         -1.1641  -21.3359  -42.2703 C.3       6 UNK         0.1400 
     43 CB         -2.5326  -21.7828  -41.7337 C.3       6 UNK        -0.1800 
     44 N          -1.3652  -20.2587  -43.2416 N.am      6 UNK        -0.5000 
     45 C          -0.3935  -19.6622  -43.9450 C.2       5 UNK         0.5000 
     46 O           0.7872  -20.0042  -43.9041 O.2       5 UNK        -0.5000 
     47 CA         -0.7860  -18.4452  -44.7980 C.3       5 UNK         0.1400 
     48 CB         -1.0229  -18.8944  -46.2387 C.3       5 UNK        -0.1800 
     49 N          -1.9620  -17.7115  -44.3203 N.am      5 UNK        -0.5000 
     50 C          -2.1136  -17.1619  -43.1079 C.2       4 UNK         0.5000 
     51 O          -1.2882  -17.2878  -42.2006 O.2       4 UNK        -0.5000 
     52 CA         -3.3967  -16.3359  -42.8888 C.3       4 UNK         0.1400 
     53 CB         -3.4672  -15.7256  -41.4779 C.3       4 UNK        -0.1800 
     54 N          -3.5177  -15.2587  -43.8707 N.am      4 UNK        -0.5000 
     55 C          -3.9326  -15.3781  -45.1359 C.2       3 UNK         0.5000 
     56 O          -4.2528  -16.4527  -45.6485 O.2       3 UNK        -0.5000 
     57 CA         -3.9513  -14.0947  -45.9857 C.3       3 UNK         0.1400 
     58 CB         -4.9761  -13.0714  -45.4615 C.3       3 UNK        -0.1800 
     59 N          -2.6216  -13.5013  -46.1626 N.am      3 UNK        -0.5000 
     60 C          -1.8080  -12.9474  -45.2529 C.2       2 UNK         0.5000 
     61 O          -2.1012  -12.8082  -44.0636 O.2       2 UNK        -0.5000 
     62 CA         -0.4157  -12.5214  -45.7689 C.3       2 UNK         0.1400 
     63 CB          0.4249  -11.8136  -44.6914 C.3       2 UNK        -0.1800 
     64 N           0.3473  -13.6641  -46.2746 N.am      2 UNK        -0.5000 
     65 C           0.1413  -14.3138  -47.4261 C.2       1 UNK         0.5000 
     66 O          -0.7127  -13.9747  -48.2484 O.2       1 UNK        -0.5000 
     67 C           0.0317  -22.9467  -45.9654 C.2       11 UNK         0.5000 
     68 O          -0.5020  -22.0911  -46.6709 O.2       11 UNK        -0.5000 
     69 N          -0.6592  -23.7801  -45.1750 N.am      12 UNK        -0.5000 
     70 CA         -2.1215  -23.7862  -45.0369 C.3       12 UNK         0.1400 
     71 CB         -2.5168  -24.7850  -43.9394 C.3       12 UNK        -0.1800 
     72 C          -2.8859  -24.0836  -46.3436 C.2       12 UNK         0.5000 
     73 O          -4.0402  -23.6787  -46.4761 O.2       12 UNK        -0.5000 
     74 N          -2.2203  -24.7420  -47.3022 N.am      13 UNK        -0.5000 
     75 CA         -2.7135  -24.9757  -48.6607 C.3       13 UNK         0.1400 
     76 CB         -1.7610  -25.9524  -49.3677 C.3       13 UNK        -0.1800 
     77 C          -2.8711  -23.6857  -49.4943 C.2       13 UNK         0.5000 
     78 O          -3.6334  -23.6891  -50.4601 O.2       13 UNK        -0.5000 
     79 N          -2.1612  -22.6166  -49.1102 N.am      14 UNK        -0.5000 
     80 CA         -2.1592  -21.3136  -49.7717 C.3       14 UNK         0.1400 
     81 CB         -0.6996  -20.9130  -50.0313 C.3       14 UNK        -0.1800 
     82 C          -2.9075  -20.2473  -48.9464 C.2       14 UNK         0.5000 
     83 O          -2.6934  -19.0516  -49.1620 O.2       14 UNK        -0.5000 
     84 N          -3.7669  -20.6782  -48.0096 N.am      15 UNK        -0.5000 
     85 CA         -4.6162  -19.8088  -47.1924 C.3       15 UNK         0.1400 
     86 CB         -5.3619  -20.6550  -46.1513 C.3       15 UNK        -0.1800 
     87 C          -5.5993  -18.9772  -48.0372 C.2       15 UNK         0.5000 
     88 O          -6.0488  -19.4353  -49.0893 O.2       15 UNK        -0.5000 
     89 N          -5.8934  -17.7659  -47.5470 N.am      16 UNK        -0.5000 
     90 CA         -6.6257  -16.6902  -48.2216 C.3       16 UNK         0.1400 
     91 CB         -8.0747  -17.0975  -48.5639 C.3       16 UNK        -0.1800 
     92 C          -5.8334  -16.1070  -49.4118 C.2       16 UNK         0.5000 
     93 O          -6.4263  -15.7199  -50.4193 O.2       16 UNK        -0.5000 
     94 N          -4.5029  -16.0312  -49.2385 N.am      17 UNK        -0.5000 
     95 CA         -3.5072  -15.4556  -50.1479 C.3       17 UNK         0.1400 
     96 CB         -3.7096  -13.9326  -50.2897 C.3       17 UNK        -0.1800 
     97 C          -3.4612  -16.1910  -51.5002 C.2       17 UNK         0.5000 
     98 O          -3.8299  -15.6282  -52.5329 O.2       17 UNK        -0.5000 
     99 N          -3.0463  -17.4636  -51.4498 N.am      18 UNK        -0.5000 
    100 CA        -2.9325  -18.4465  -52.5349 C.3       18 UNK         0.1400 
    101 CB        -2.0305  -17.9512  -53.6813 C.3       18 UNK        -0.1800 
    102 C         -4.2869  -18.9576  -53.0564 C.2       18 UNK         0.5000 
    103 O         -4.4188  -20.1583  -53.2912 O.2       18 UNK        -0.5000 
    104 N         -5.2614  -18.0521  -53.2289 N.am      19 UNK        -0.5000 
    105 CA        -6.6769  -18.2910  -53.5475 C.3       19 UNK         0.1400 
    106 CB        -7.3810  -18.9067  -52.3229 C.3       19 UNK        -0.1800 
    107 C         -6.9276  -19.1141  -54.8318 C.2       19 UNK         0.5000 
    108 O         -7.9734  -19.7537  -54.9546 O.2       19 UNK        -0.5000 
    109 N         -5.9498  -19.1036  -55.7505 N.am      20 UNK        -0.5000 
    110 CA        -5.8552  -19.9200  -56.9669 C.3       20 UNK         0.1400 
    111 CB        -6.9808  -19.5669  -57.9619 C.3       20 UNK        -0.1800 
    112 C         -5.7500  -21.4417  -56.7019 C.2       20 UNK         0.5000 
    113 O         -5.9574  -22.2304  -57.6257 O.2       20 UNK        -0.5000 
    114 N         -5.4080  -21.8382  -55.4659 N.am      21 UNK        -0.5000 
    115 CA        -5.1492  -23.2287  -55.0846 C.3       21 UNK         0.1400 
    116 CB        -5.3541  -23.3880  -53.5704 C.3       21 UNK        -0.1800 
    117 C         -3.7330  -23.6754  -55.4925 C.2       21 UNK         0.5000 
    118 O         -3.5196  -24.8599  -55.7545 O.2       21 UNK        -0.5000 
    119 N         -2.8009  -22.7159  -55.5516 N.am      22 UNK        -0.5000 
    120 CA        -1.4373  -22.8744  -56.0726 C.3       22 UNK         0.1400 
    121 C         -1.4280  -23.2077  -57.5909 C.2       22 UNK         0.5000 
    122 N         -0.6081  -24.1564  -58.0220 N.am      22 UNK        -0.7600 
    123 O         -2.1244  -22.5802  -58.3860 O.2       22 UNK        -0.5000 
    124 C124       -0.5934  -21.6047  -55.8021 C.3       23 UNK        -0.0398 
    125 S125       -0.3060  -21.3232  -54.0215 S.3       23 UNK        -0.2404 
    126 C126        1.5129  -21.3072  -53.9853 C.3       23 UNK        -0.0205 
    127 H127        4.9502  -13.5412  -46.8348 H         1 UNK         0.0600 
    128 H128        5.3723  -15.2424  -46.6097 H         1 UNK         0.0600 
    129 H129        4.9001  -14.6538  -48.2066 H         1 UNK         0.0600 
    130 H130        2.8044  -15.1861  -48.7469 H         1 UNK         0.3000 
    131 H131        0.9118  -16.1832  -46.7927 H         1 UNK         0.0600 
    132 H132       -0.5438  -16.5011  -48.8724 H         1 UNK         0.0800 
    133 H133        0.7723  -15.8832  -49.8366 H         1 UNK         0.0800 
    134 H134        2.1614  -17.3686  -50.9730 H         1 UNK         0.0800 
    135 H135        3.4066  -17.7821  -49.8100 H         1 UNK         0.0800 
    136 H136        1.6352  -18.9358  -52.6684 H         1 UNK         0.1150 
    137 H137        2.5192  -23.1008  -52.1898 H         1 UNK         0.1150 
    138 H138        3.4052  -20.3454  -49.0262 H         1 UNK         0.1150 
    139 H139        3.8974  -23.8010  -50.3065 H         1 UNK         0.0800 
    140 H140        4.3837  -22.6832  -49.0618 H         1 UNK         0.0800 
    141 H141        3.3170  -22.3250  -46.9567 H         1 UNK         0.0800 
    142 H142        1.8543  -21.5430  -47.4810 H         1 UNK         0.0800 
    143 H143        1.7697  -24.1643  -45.8949 H         1 UNK         0.0600 
    144 H144        1.6374  -21.5734  -44.4716 H         1 UNK         0.3000 
    145 H145        2.6947  -22.1245  -41.9921 H         1 UNK         0.0600 
    146 H146        5.0859  -21.8369  -41.2991 H         1 UNK         0.0600 
    147 H147        4.6996  -23.5071  -41.6796 H         1 UNK         0.0600 
    148 H148        5.6128  -22.5403  -42.8278 H         1 UNK         0.0600 
    149 H149        2.7901  -20.0694  -42.7923 H         1 UNK         0.3000 
    150 H150        4.8684  -18.1361  -44.6786 H         1 UNK         0.0600 
    151 H151        3.9341  -19.1499  -46.7184 H         1 UNK         0.0600 
    152 H152        2.9929  -17.7287  -46.3064 H         1 UNK         0.0600 
    153 H153        2.3559  -19.3328  -45.9693 H         1 UNK         0.0600 
    154 H154        2.0809  -18.3814  -43.6027 H         1 UNK         0.3000 
    155 H155        2.7612  -15.8560  -41.1551 H         1 UNK         0.0600 
    156 H156        0.9131  -15.8353  -43.5969 H         1 UNK         0.0600 
    157 H157        2.0123  -14.5551  -43.1009 H         1 UNK         0.0600 
    158 H158        0.6285  -14.9539  -42.0978 H         1 UNK         0.0600 
    159 H159        0.4165  -17.3701  -41.6332 H         1 UNK         0.3000 
    160 H160        1.1529  -19.8760  -39.1525 H         1 UNK         0.0600 
    161 H161       -0.9206  -18.8534  -38.2530 H         1 UNK         0.0600 
    162 H162       -0.6998  -17.4358  -39.2762 H         1 UNK         0.0600 
    163 H163        0.4520  -17.7880  -37.9920 H         1 UNK         0.0600 
    164 H164       -0.7886  -19.0023  -41.2612 H         1 UNK         0.3000 
    165 H165       -0.7020  -22.1752  -42.7926 H         1 UNK         0.0600 
    166 H166       -3.1958  -22.0990  -42.5383 H         1 UNK         0.0600 
    167 H167       -2.4267  -22.6268  -41.0509 H         1 UNK         0.0600 
    168 H168       -3.0307  -20.9804  -41.1879 H         1 UNK         0.0600 
    169 H169       -2.3041  -19.9015  -43.3332 H         1 UNK         0.3000 
    170 H170        0.0568  -17.7524  -44.7914 H         1 UNK         0.0600 
    171 H171       -0.1218  -19.3436  -46.6559 H         1 UNK         0.0600 
    172 H172       -1.7988  -19.6555  -46.2864 H         1 UNK         0.0600 
    173 H173       -1.3100  -18.0647  -46.8843 H         1 UNK         0.0600 
    174 H174       -2.6953  -17.5324  -44.9974 H         1 UNK         0.3000 
    175 H175       -4.2436  -17.0155  -43.0033 H         1 UNK         0.0600 
    176 H176       -2.6453  -15.0307  -41.2996 H         1 UNK         0.0600 
    177 H177       -4.4015  -15.1841  -41.3294 H         1 UNK         0.0600 
    178 H178       -3.4163  -16.5000  -40.7113 H         1 UNK         0.0600 
    179 H179       -3.1684  -14.3468  -43.5885 H         1 UNK         0.3000 
    180 H180       -4.2777  -14.3861  -46.9837 H         1 UNK         0.0600 
    181 H181       -4.7327  -12.7147  -44.4606 H         1 UNK         0.0600 
    182 H182       -5.9734  -13.5107  -45.4155 H         1 UNK         0.0600 
    183 H183       -5.0342  -12.2041  -46.1191 H         1 UNK         0.0600 
    184 H184       -2.2250  -13.6072  -47.0924 H         1 UNK         0.3000 
    185 H185       -0.5728  -11.8159  -46.5875 H         1 UNK         0.0600 
    186 H186       -0.0907  -10.9320  -44.3087 H         1 UNK         0.0600 
    187 H187        0.6293  -12.4697  -43.8443 H         1 UNK         0.0600 
    188 H188        1.3816  -11.4803  -45.0940 H         1 UNK         0.0600 
    189 H189        1.1074  -13.9973  -45.6885 H         1 UNK         0.3000 
    190 H190       -0.1526  -24.4520  -44.6162 H         1 UNK         0.3000 
    191 H191       -2.4226  -22.7865  -44.7192 H         1 UNK         0.0600 
    192 H192       -2.2334  -25.8045  -44.2036 H         1 UNK         0.0600 
    193 H193       -3.5949  -24.7761  -43.7733 H         1 UNK         0.0600 
    194 H194       -2.0417  -24.5402  -42.9895 H         1 UNK         0.0600 
    195 H195       -1.2772  -25.0425  -47.1069 H         1 UNK         0.3000 
    196 H196       -3.6975  -25.4436  -48.5888 H         1 UNK         0.0600 
    197 H197       -2.1094  -26.1768  -50.3768 H         1 UNK         0.0600 
    198 H198       -1.6943  -26.8988  -48.8306 H         1 UNK         0.0600 
    199 H199       -0.7542  -25.5407  -49.4524 H         1 UNK         0.0600 
    200 H200       -1.5826  -22.6755  -48.2780 H         1 UNK         0.3000 
    201 H201       -2.6658  -21.3764  -50.7367 H         1 UNK         0.0600 
    202 H202       -0.1889  -21.6630  -50.6347 H         1 UNK         0.0600 
    203 H203       -0.1424  -20.8005  -49.1009 H         1 UNK         0.0600 
    204 H204       -0.6329  -19.9680  -50.5708 H         1 UNK         0.0600 
    205 H205       -3.8956  -21.6739  -47.8955 H         1 UNK         0.3000 
    206 H206       -3.9663  -19.1130  -46.6606 H         1 UNK         0.0600 
    207 H207       -6.0113  -20.0348  -45.5320 H         1 UNK         0.0600 
    208 H208       -4.6643  -21.1598  -45.4827 H         1 UNK         0.0600 
    209 H209       -5.9849  -21.4151  -46.6244 H         1 UNK         0.0600 
    210 H210       -5.4402  -17.4804  -46.6818 H         1 UNK         0.3000 
    211 H211       -6.6907  -15.8800  -47.4938 H         1 UNK         0.0600 
    212 H212       -8.1176  -17.8732  -49.3268 H         1 UNK         0.0600 
    213 H213       -8.6405  -16.2438  -48.9384 H         1 UNK         0.0600 
    214 H214       -8.5961  -17.4684  -47.6816 H         1 UNK         0.0600 
    215 H215       -4.1285  -16.4445  -48.3964 H         1 UNK         0.3000 
    216 H216       -2.5356  -15.6065  -49.6784 H         1 UNK         0.0600 
    217 H217       -2.9227  -13.4941  -50.9043 H         1 UNK         0.0600 
    218 H218       -3.6733  -13.4381  -49.3192 H         1 UNK         0.0600 
    219 H219       -4.6635  -13.6866  -50.7567 H         1 UNK         0.0600 
    220 H220       -2.8532  -17.8581  -50.5298 H         1 UNK         0.3000 
    221 H221       -2.4333  -19.3085  -52.0923 H         1 UNK         0.0600 
    222 H222       -2.4503  -17.0873  -54.1960 H         1 UNK         0.0600 
    223 H223       -1.0420  -17.6777  -53.3121 H         1 UNK         0.0600 
    224 H224       -1.8918  -18.7327  -54.4288 H         1 UNK         0.0600 
    225 H225       -5.0120  -17.0848  -53.0402 H         1 UNK         0.3000 
    226 H226       -7.1179  -17.3094  -53.7255 H         1 UNK         0.0600 
    227 H227       -7.2030  -18.3060  -51.4323 H         1 UNK         0.0600 
    228 H228       -8.4606  -18.9585  -52.4675 H         1 UNK         0.0600 
    229 H229       -7.0248  -19.9171  -52.1185 H         1 UNK         0.0600 
    230 H230       -5.1367  -18.5421  -55.5413 H         1 UNK         0.3000 
    231 H231       -4.9106  -19.6407  -57.4357 H         1 UNK         0.0600 
    232 H232       -7.0332  -18.4918  -58.1337 H         1 UNK         0.0600 
    233 H233       -7.9567  -19.8989  -57.6072 H         1 UNK         0.0600 
    234 H234       -6.8099  -20.0396  -58.9298 H         1 UNK         0.0600 
    235 H235       -5.2371  -21.1390  -54.7482 H         1 UNK         0.3000 
    236 H236       -5.8669  -23.8764  -55.5925 H         1 UNK         0.0600 
    237 H237       -5.2378  -24.4297  -53.2690 H         1 UNK         0.0600 
    238 H238       -4.6310  -22.8036  -53.0004 H         1 UNK         0.0600 
    239 H239       -6.3527  -23.0702  -53.2700 H         1 UNK         0.0600 
    240 H240       -3.0735  -21.7779  -55.3010 H         1 UNK         0.3000 
    241 H241       -0.9798  -23.7101  -55.5392 H         1 UNK         0.0600 
    242 H242       -0.5820  -24.3701  -59.0072 H         1 UNK         0.3800 
    243 H243       -0.0241  -24.6807  -57.3885 H         1 UNK         0.3800 
    244 H244        0.3706  -21.6772  -56.3091 H         1 UNK         0.0800 
    245 H245       -1.0821  -20.7218  -56.2179 H         1 UNK         0.0800 
    246 H246        1.8832  -20.5367  -54.6634 H         1 UNK         0.0800 
    247 H247        1.8908  -22.2596  -54.3608 H         1 UNK         0.0800 
@<TRIPOS>BOND
     1    1    2 1    
     2    1  127 1    
     3    1  128 1    
     4    1  129 1    
     5    2    3 2    
     6    2    4 am   BACKBONE|DICT|INTERRES
     7    4    5 1    
     8    4  130 1    
     9    5    6 1    
    10    5   65 1    
    11    5  131 1    
    12    6    7 1    
    13    6  132 1    
    14    6  133 1    
    15    7    8 1    
    16    8    9 1    
    17    8  134 1    
    18    8  135 1    
    19    9   10 ar   
    20    9   14 ar   
    21   10   11 ar   
    22   10  136 1    
    23   11   12 ar   
    24   11  126 1    
    25   12   13 ar   
    26   12  137 1    
    27   13   14 ar   
    28   13   15 1    
    29   14  138 1    
    30   15   16 1    
    31   15  139 1    
    32   15  140 1    
    33   16   17 1    
    34   17   18 1    
    35   17  141 1    
    36   17  142 1    
    37   18   19 1    
    38   18   67 1    
    39   18  143 1    
    40   19   20 am   BACKBONE|DICT|INTERRES
    41   19  144 1    
    42   20   21 2    
    43   20   22 1    
    44   22   23 1    
    45   22   24 1    
    46   22  145 1    
    47   23  146 1    
    48   23  147 1    
    49   23  148 1    
    50   24   25 am   BACKBONE|DICT|INTERRES
    51   24  149 1    
    52   25   26 2    
    53   25   27 1    
    54   27   28 1    
    55   27   29 1    
    56   27  150 1    
    57   28  151 1    
    58   28  152 1    
    59   28  153 1    
    60   29   30 am   BACKBONE|DICT|INTERRES
    61   29  154 1    
    62   30   31 2    
    63   30   32 1    
    64   32   33 1    
    65   32   34 1    
    66   32  155 1    
    67   33  156 1    
    68   33  157 1    
    69   33  158 1    
    70   34   35 am   BACKBONE|DICT|INTERRES
    71   34  159 1    
    72   35   36 2    
    73   35   37 1    
    74   37   38 1    
    75   37   39 1    
    76   37  160 1    
    77   38  161 1    
    78   38  162 1    
    79   38  163 1    
    80   39   40 am   BACKBONE|DICT|INTERRES
    81   39  164 1    
    82   40   41 2    
    83   40   42 1    
    84   42   43 1    
    85   42   44 1    
    86   42  165 1    
    87   43  166 1    
    88   43  167 1    
    89   43  168 1    
    90   44   45 am   BACKBONE|DICT|INTERRES
    91   44  169 1    
    92   45   46 2    
    93   45   47 1    
    94   47   48 1    
    95   47   49 1    
    96   47  170 1    
    97   48  171 1    
    98   48  172 1    
    99   48  173 1    
   100   49   50 am   BACKBONE|DICT|INTERRES
   101   49  174 1    
   102   50   51 2    
   103   50   52 1    
   104   52   53 1    
   105   52   54 1    
   106   52  175 1    
   107   53  176 1    
   108   53  177 1    
   109   53  178 1    
   110   54   55 am   BACKBONE|DICT|INTERRES
   111   54  179 1    
   112   55   56 2    
   113   55   57 1    
   114   57   58 1    
   115   57   59 1    
   116   57  180 1    
   117   58  181 1    
   118   58  182 1    
   119   58  183 1    
   120   59   60 am   BACKBONE|DICT|INTERRES
   121   59  184 1    
   122   60   61 2    
   123   60   62 1    
   124   62   63 1    
   125   62   64 1    
   126   62  185 1    
   127   63  186 1    
   128   63  187 1    
   129   63  188 1    
   130   64   65 am   BACKBONE|DICT|INTERRES
   131   64  189 1    
   132   65   66 2    
   133   67   68 2    
   134   67   69 am   BACKBONE|DICT|INTERRES
   135   69   70 1    
   136   69  190 1    
   137   70   71 1    
   138   70   72 1    
   139   70  191 1    
   140   71  192 1    
   141   71  193 1    
   142   71  194 1    
   143   72   73 2    
   144   72   74 am   BACKBONE|DICT|INTERRES
   145   74   75 1    
   146   74  195 1    
   147   75   76 1    
   148   75   77 1    
   149   75  196 1    
   150   76  197 1    
   151   76  198 1    
   152   76  199 1    
   153   77   78 2    
   154   77   79 am   BACKBONE|DICT|INTERRES
   155   79   80 1    
   156   79  200 1    
   157   80   81 1    
   158   80   82 1    
   159   80  201 1    
   160   81  202 1    
   161   81  203 1    
   162   81  204 1    
   163   82   83 2    
   164   82   84 am   BACKBONE|DICT|INTERRES
   165   84   85 1    
   166   84  205 1    
   167   85   86 1    
   168   85   87 1    
   169   85  206 1    
   170   86  207 1    
   171   86  208 1    
   172   86  209 1    
   173   87   88 2    
   174   87   89 am   BACKBONE|DICT|INTERRES
   175   89   90 1    
   176   89  210 1    
   177   90   91 1    
   178   90   92 1    
   179   90  211 1    
   180   91  212 1    
   181   91  213 1    
   182   91  214 1    
   183   92   93 2    
   184   92   94 am   BACKBONE|DICT|INTERRES
   185   94   95 1    
   186   94  215 1    
   187   95   96 1    
   188   95   97 1    
   189   95  216 1    
   190   96  217 1    
   191   96  218 1    
   192   96  219 1    
   193   97   98 2    
   194   97   99 am   BACKBONE|DICT|INTERRES
   195   99  100 1    
   196   99  220 1    
   197  100  101 1    
   198  100  102 1    
   199  100  221 1    
   200  101  222 1    
   201  101  223 1    
   202  101  224 1    
   203  102  103 2    
   204  102  104 am   BACKBONE|DICT|INTERRES
   205  104  105 1    
   206  104  225 1    
   207  105  106 1    
   208  105  107 1    
   209  105  226 1    
   210  106  227 1    
   211  106  228 1    
   212  106  229 1    
   213  107  108 2    
   214  107  109 am   BACKBONE|DICT|INTERRES
   215  109  110 1    
   216  109  230 1    
   217  110  111 1    
   218  110  112 1    
   219  110  231 1    
   220  111  232 1    
   221  111  233 1    
   222  111  234 1    
   223  112  113 2    
   224  112  114 am   BACKBONE|DICT|INTERRES
   225  114  115 1    
   226  114  235 1    
   227  115  116 1    
   228  115  117 1    
   229  115  236 1    
   230  116  237 1    
   231  116  238 1    
   232  116  239 1    
   233  117  118 2    
   234  117  119 am   BACKBONE|DICT|INTERRES
   235  119  120 1    
   236  119  240 1    
   237  120  121 1    
   238  120  124 1    
   239  120  241 1    
   240  121  122 am   BACKBONE|DICT|INTERRES
   241  121  123 2    
   242  122  242 1    
   243  122  243 1    
   244  124  125 1    
   245  124  244 1    
   246  124  245 1    
   247  125  126 1    
   248  126  246 1    
   249  126  247 1    
@<TRIPOS>SUBSTRUCTURE
     1 UNK         1 GROUP             0       ****    0 ROOT    
