@<TRIPOS>MOLECULE
3R540
247   249    1
SMALL
USER_CHARGES


@<TRIPOS>ATOM
      1 CA         -2.9391  -12.5882  -49.9544 C.3       0 UNK        -0.1800 
      2 C          -2.9804  -13.4435  -48.6963 C.2       0 UNK         0.5000 
      3 O          -4.0522  -13.9054  -48.3073 O.2       0 UNK        -0.5000 
      4 N          -1.8177  -13.6505  -48.0605 N.am      1 UNK        -0.5000 
      5 CA         -1.6277  -14.4592  -46.8465 C.3       1 UNK         0.1400 
      6 C6         -2.0063  -15.9518  -47.0610 C.3       23 UNK        -0.0398 
      7 S7         -0.9694  -17.1015  -46.0980 S.3       23 UNK        -0.2404 
      8 C8          0.2751  -17.6189  -47.3189 C.3       23 UNK        -0.0205 
      9 C9         -0.2975  -18.5381  -48.3874 C.ar      23 UNK        -0.0193 
     10 C10        -0.4658  -18.0818  -49.6985 C.ar      23 UNK        -0.1150 
     11 C11        -0.9596  -18.9372  -50.6877 C.ar      23 UNK        -0.0193 
     12 C12        -1.2812  -20.2569  -50.3586 C.ar      23 UNK        -0.1150 
     13 C13        -1.1346  -20.7205  -49.0490 C.ar      23 UNK        -0.0193 
     14 C14        -0.6374  -19.8561  -48.0688 C.ar      23 UNK        -0.1150 
     15 C15        -1.5431  -22.1436  -48.6974 C.3       23 UNK        -0.0205 
     16 S16        -0.1401  -23.2979  -48.7779 S.3       23 UNK        -0.2404 
     17 C17         0.7254  -22.9117  -47.2189 C.3       23 UNK        -0.0398 
     18 CA          1.3549  -24.1499  -46.5344 C.3       11 UNK         0.1400 
     19 N           2.4326  -23.7364  -45.6296 N.am      11 UNK        -0.5000 
     20 C           3.3939  -24.5360  -45.1504 C.2       10 UNK         0.5000 
     21 O           3.5175  -25.7211  -45.4612 O.2       10 UNK        -0.5000 
     22 CA          4.3661  -23.9079  -44.1333 C.3       10 UNK         0.1400 
     23 CB          5.4597  -23.1011  -44.8496 C.3       10 UNK        -0.1800 
     24 N           3.6900  -23.0544  -43.1527 N.am      10 UNK        -0.5000 
     25 C           2.8418  -23.5019  -42.2149 C.2       9 UNK         0.5000 
     26 O           2.5570  -24.6894  -42.0606 O.2       9 UNK        -0.5000 
     27 CA          2.1739  -22.4469  -41.3141 C.3       9 UNK         0.1400 
     28 CB          3.1146  -22.0285  -40.1743 C.3       9 UNK        -0.1800 
     29 N           1.7399  -21.2621  -42.0533 N.am      9 UNK        -0.5000 
     30 C           0.7816  -21.2580  -42.9910 C.2       8 UNK         0.5000 
     31 O           0.1266  -22.2512  -43.3018 O.2       8 UNK        -0.5000 
     32 CA          0.5523  -19.9339  -43.7397 C.3       8 UNK         0.1400 
     33 CB         -0.3133  -18.9838  -42.8979 C.3       8 UNK        -0.1800 
     34 N           1.8071  -19.2795  -44.1090 N.am      8 UNK        -0.5000 
     35 C           2.7372  -19.8142  -44.9134 C.2       7 UNK         0.5000 
     36 O           2.6171  -20.9044  -45.4694 O.2       7 UNK        -0.5000 
     37 CA          4.0457  -19.0264  -45.0818 C.3       7 UNK         0.1400 
     38 CB          3.8993  -17.9286  -46.1449 C.3       7 UNK        -0.1800 
     39 N           4.4865  -18.4408  -43.8170 N.am      7 UNK        -0.5000 
     40 C           4.9696  -19.1518  -42.7885 C.2       6 UNK         0.5000 
     41 O           5.1336  -20.3719  -42.8173 O.2       6 UNK        -0.5000 
     42 CA          5.2817  -18.3698  -41.4994 C.3       6 UNK         0.1400 
     43 CB          6.6600  -17.6983  -41.5906 C.3       6 UNK        -0.1800 
     44 N           4.2660  -17.3591  -41.1973 N.am      6 UNK        -0.5000 
     45 C           3.0037  -17.6441  -40.8486 C.2       5 UNK         0.5000 
     46 O           2.5755  -18.7902  -40.7172 O.2       5 UNK        -0.5000 
     47 CA          2.0476  -16.4526  -40.6517 C.3       5 UNK         0.1400 
     48 CB          2.1433  -15.9147  -39.2165 C.3       5 UNK        -0.1800 
     49 N           2.2525  -15.3492  -41.5949 N.am      5 UNK        -0.5000 
     50 C           2.1912  -15.4423  -42.9294 C.2       4 UNK         0.5000 
     51 O           2.0374  -16.5064  -43.5283 O.2       4 UNK        -0.5000 
     52 CA          2.2960  -14.1189  -43.7126 C.3       4 UNK         0.1400 
     53 CB          2.3252  -14.3326  -45.2368 C.3       4 UNK        -0.1800 
     54 N           1.1842  -13.2256  -43.3833 N.am      4 UNK        -0.5000 
     55 C           1.1275  -12.4244  -42.3103 C.2       3 UNK         0.5000 
     56 O           2.0167  -12.3835  -41.4580 O.2       3 UNK        -0.5000 
     57 CA         -0.1166  -11.5302  -42.1501 C.3       3 UNK         0.1400 
     58 CB          0.2708  -10.0574  -41.9250 C.3       3 UNK        -0.1800 
     59 N          -1.0210  -11.6165  -43.3010 N.am      3 UNK        -0.5000 
     60 C          -2.3563  -11.6756  -43.2195 C.2       2 UNK         0.5000 
     61 O          -2.9813  -11.6828  -42.1582 O.2       2 UNK        -0.5000 
     62 CA         -3.1286  -11.7330  -44.5508 C.3       2 UNK         0.1400 
     63 CB         -3.4146  -10.3152  -45.0696 C.3       2 UNK        -0.1800 
     64 N          -2.4420  -12.4959  -45.5965 N.am      2 UNK        -0.5000 
     65 C          -2.2891  -13.8290  -45.5930 C.2       1 UNK         0.5000 
     66 O          -2.6498  -14.5416  -44.6557 O.2       1 UNK        -0.5000 
     67 C           0.2903  -25.0187  -45.8197 C.2       11 UNK         0.5000 
     68 O          -0.4039  -25.7944  -46.4775 O.2       11 UNK        -0.5000 
     69 N           0.1942  -24.8755  -44.4894 N.am      12 UNK        -0.5000 
     70 CA         -0.7727  -25.4901  -43.5750 C.3       12 UNK         0.1400 
     71 CB         -0.6517  -27.0283  -43.5741 C.3       12 UNK        -0.1800 
     72 C          -2.2137  -24.9854  -43.8032 C.2       12 UNK         0.5000 
     73 O          -3.1722  -25.7241  -43.5692 O.2       12 UNK        -0.5000 
     74 N          -2.3379  -23.7262  -44.2370 N.am      13 UNK        -0.5000 
     75 CA         -3.5797  -23.0126  -44.5112 C.3       13 UNK         0.1400 
     76 CB         -4.2929  -23.6041  -45.7429 C.3       13 UNK        -0.1800 
     77 C          -3.2395  -21.5378  -44.7557 C.2       13 UNK         0.5000 
     78 O          -2.1826  -21.2441  -45.3156 O.2       13 UNK        -0.5000 
     79 N          -4.1441  -20.6364  -44.3616 N.am      14 UNK        -0.5000 
     80 CA         -4.0618  -19.2133  -44.6773 C.3       14 UNK         0.1400 
     81 CB         -4.7509  -18.4037  -43.5662 C.3       14 UNK        -0.1800 
     82 C          -4.7094  -18.9803  -46.0524 C.2       14 UNK         0.5000 
     83 O          -5.9383  -18.9405  -46.1436 O.2       14 UNK        -0.5000 
     84 N          -3.8633  -18.8718  -47.0845 N.am      15 UNK        -0.5000 
     85 CA         -4.1885  -18.7615  -48.5109 C.3       15 UNK         0.1400 
     86 CB         -5.0993  -17.5469  -48.7971 C.3       15 UNK        -0.1800 
     87 C          -4.7615  -20.0640  -49.1096 C.2       15 UNK         0.5000 
     88 O          -4.9768  -21.0526  -48.4040 O.2       15 UNK        -0.5000 
     89 N          -4.9781  -20.0341  -50.4269 N.am      16 UNK        -0.5000 
     90 CA         -5.5975  -21.0909  -51.2146 C.3       16 UNK         0.1400 
     91 CB         -4.5039  -21.9019  -51.9409 C.3       16 UNK        -0.1800 
     92 C          -6.6170  -20.4186  -52.1475 C.2       16 UNK         0.5000 
     93 O          -7.6374  -19.9232  -51.6664 O.2       16 UNK        -0.5000 
     94 N          -6.3201  -20.3810  -53.4486 N.am      17 UNK        -0.5000 
     95 CA         -7.0984  -19.7238  -54.4894 C.3       17 UNK         0.1400 
     96 CB         -8.2296  -20.6530  -54.9649 C.3       17 UNK        -0.1800 
     97 C          -6.1502  -19.3869  -55.6451 C.2       17 UNK         0.5000 
     98 O          -5.0959  -20.0182  -55.7715 O.2       17 UNK        -0.5000 
     99 N          -6.5544  -18.4310  -56.4908 N.am      18 UNK        -0.5000 
    100 CA        -5.8140  -17.9968  -57.6821 C.3       18 UNK         0.1400 
    101 CB        -6.4702  -16.7267  -58.2440 C.3       18 UNK        -0.1800 
    102 C         -5.7102  -19.0805  -58.7754 C.2       18 UNK         0.5000 
    103 O         -4.7751  -19.0536  -59.5755 O.2       18 UNK        -0.5000 
    104 N         -6.6630  -20.0218  -58.7751 N.am      19 UNK        -0.5000 
    105 CA        -6.6678  -21.2170  -59.6200 C.3       19 UNK         0.1400 
    106 CB        -8.1282  -21.6396  -59.8502 C.3       19 UNK        -0.1800 
    107 C         -5.8570  -22.3822  -59.0116 C.2       19 UNK         0.5000 
    108 O         -5.6883  -23.4050  -59.6775 O.2       19 UNK        -0.5000 
    109 N         -5.3950  -22.2252  -57.7645 N.am      20 UNK        -0.5000 
    110 CA        -4.6259  -23.2027  -57.0034 C.3       20 UNK         0.1400 
    111 CB        -5.4291  -23.5885  -55.7437 C.3       20 UNK        -0.1800 
    112 C         -3.2311  -22.6207  -56.7027 C.2       20 UNK         0.5000 
    113 O         -2.6282  -22.0002  -57.5821 O.2       20 UNK        -0.5000 
    114 N         -2.7320  -22.8301  -55.4765 N.am      21 UNK        -0.5000 
    115 CA        -1.3813  -22.4760  -55.0294 C.3       21 UNK         0.1400 
    116 CB        -1.1659  -23.0210  -53.6083 C.3       21 UNK        -0.1800 
    117 C         -1.0350  -20.9745  -55.0882 C.2       21 UNK         0.5000 
    118 O          0.1504  -20.6449  -55.1508 O.2       21 UNK        -0.5000 
    119 N         -2.0480  -20.0979  -55.0746 N.am      22 UNK        -0.5000 
    120 CA        -1.8806  -18.6435  -55.2367 C.3       22 UNK         0.1400 
    121 C         -1.9731  -18.1759  -56.7192 C.2       22 UNK         0.5000 
    122 N         -2.1681  -19.0580  -57.6926 N.am      22 UNK        -0.7600 
    123 O         -1.8600  -16.9849  -56.9955 O.2       22 UNK        -0.5000 
    124 C124       -2.8354  -17.8245  -54.3228 C.3       23 UNK        -0.0398 
    125 S125       -2.8985  -18.3349  -52.5671 S.3       23 UNK        -0.2404 
    126 C126       -1.1366  -18.4497  -52.1159 C.3       23 UNK        -0.0205 
    127 H127       -3.3032  -13.1603  -50.8078 H         1 UNK         0.0600 
    128 H128       -1.9288  -12.2463  -50.1805 H         1 UNK         0.0600 
    129 H129       -3.5759  -11.7119  -49.8332 H         1 UNK         0.0600 
    130 H130       -0.9764  -13.2370  -48.4387 H         1 UNK         0.3000 
    131 H131       -0.5549  -14.4110  -46.6611 H         1 UNK         0.0600 
    132 H132       -3.0506  -16.1266  -46.8011 H         1 UNK         0.0800 
    133 H133       -1.9247  -16.2182  -48.1145 H         1 UNK         0.0800 
    134 H134        0.7399  -16.7375  -47.7632 H         1 UNK         0.0800 
    135 H135        1.0671  -18.1504  -46.7936 H         1 UNK         0.0800 
    136 H136       -0.2067  -17.0630  -49.9501 H         1 UNK         0.1150 
    137 H137       -1.6646  -20.9176  -51.1226 H         1 UNK         0.1150 
    138 H138       -0.5161  -20.2041  -47.0536 H         1 UNK         0.1150 
    139 H139       -1.9998  -22.1747  -47.7092 H         1 UNK         0.0800 
    140 H140       -2.3146  -22.4872  -49.3870 H         1 UNK         0.0800 
    141 H141        1.5031  -22.1932  -47.4810 H         1 UNK         0.0800 
    142 H142        0.0618  -22.3924  -46.5256 H         1 UNK         0.0800 
    143 H143        1.8096  -24.7710  -47.3093 H         1 UNK         0.0600 
    144 H144        2.4475  -22.7512  -45.3732 H         1 UNK         0.3000 
    145 H145        4.8499  -24.7228  -43.5906 H         1 UNK         0.0600 
    146 H146        6.1916  -22.7138  -44.1405 H         1 UNK         0.0600 
    147 H147        5.0442  -22.2545  -45.3964 H         1 UNK         0.0600 
    148 H148        5.9978  -23.7230  -45.5660 H         1 UNK         0.0600 
    149 H149        3.9053  -22.0641  -43.1853 H         1 UNK         0.3000 
    150 H150        1.2876  -22.9046  -40.8699 H         1 UNK         0.0600 
    151 H151        3.4459  -22.8956  -39.6017 H         1 UNK         0.0600 
    152 H152        2.6148  -21.3524  -39.4803 H         1 UNK         0.0600 
    153 H153        4.0042  -21.5224  -40.5504 H         1 UNK         0.0600 
    154 H154        2.1920  -20.3851  -41.8125 H         1 UNK         0.3000 
    155 H155        0.0234  -20.1515  -44.6674 H         1 UNK         0.0600 
    156 H156       -1.3052  -19.4078  -42.7372 H         1 UNK         0.0600 
    157 H157       -0.4460  -18.0205  -43.3881 H         1 UNK         0.0600 
    158 H158        0.1259  -18.7979  -41.9184 H         1 UNK         0.0600 
    159 H159        1.9598  -18.3423  -43.7435 H         1 UNK         0.3000 
    160 H160        4.8150  -19.7227  -45.4220 H         1 UNK         0.0600 
    161 H161        3.1231  -17.2119  -45.8801 H         1 UNK         0.0600 
    162 H162        3.6320  -18.3581  -47.1112 H         1 UNK         0.0600 
    163 H163        4.8319  -17.3806  -46.2793 H         1 UNK         0.0600 
    164 H164        4.3134  -17.4549  -43.6885 H         1 UNK         0.3000 
    165 H165        5.3055  -19.0856  -40.6747 H         1 UNK         0.0600 
    166 H166        6.9222  -17.2081  -40.6528 H         1 UNK         0.0600 
    167 H167        7.4383  -18.4333  -41.8005 H         1 UNK         0.0600 
    168 H168        6.6937  -16.9491  -42.3825 H         1 UNK         0.0600 
    169 H169        4.5364  -16.3907  -41.2852 H         1 UNK         0.3000 
    170 H170        1.0324  -16.8227  -40.8059 H         1 UNK         0.0600 
    171 H171        1.9711  -16.7090  -38.4888 H         1 UNK         0.0600 
    172 H172        3.1257  -15.4877  -39.0115 H         1 UNK         0.0600 
    173 H173        1.3967  -15.1414  -39.0346 H         1 UNK         0.0600 
    174 H174        2.3572  -14.4220  -41.1979 H         1 UNK         0.3000 
    175 H175        3.2360  -13.6408  -43.4289 H         1 UNK         0.0600 
    176 H176        1.4653  -14.9059  -45.5834 H         1 UNK         0.0600 
    177 H177        2.3358  -13.3827  -45.7714 H         1 UNK         0.0600 
    178 H178        3.2228  -14.8761  -45.5319 H         1 UNK         0.0600 
    179 H179        0.3751  -13.2811  -43.9813 H         1 UNK         0.3000 
    180 H180       -0.6228  -11.8916  -41.2527 H         1 UNK         0.0600 
    181 H181        0.9170   -9.9467  -41.0533 H         1 UNK         0.0600 
    182 H182       -0.6113   -9.4407  -41.7516 H         1 UNK         0.0600 
    183 H183        0.8026   -9.6475  -42.7843 H         1 UNK         0.0600 
    184 H184       -0.5960  -11.5708  -44.2159 H         1 UNK         0.3000 
    185 H185       -4.0865  -12.2192  -44.3537 H         1 UNK         0.0600 
    186 H186       -3.9492   -9.7267  -44.3227 H         1 UNK         0.0600 
    187 H187       -2.4954   -9.7805  -45.3120 H         1 UNK         0.0600 
    188 H188       -4.0352  -10.3409  -45.9656 H         1 UNK         0.0600 
    189 H189       -2.1362  -11.9810  -46.4093 H         1 UNK         0.3000 
    190 H190        0.7767  -24.1661  -44.0619 H         1 UNK         0.3000 
    191 H191       -0.4924  -25.1437  -42.5792 H         1 UNK         0.0600 
    192 H192       -1.2463  -27.4650  -42.7710 H         1 UNK         0.0600 
    193 H193        0.3810  -27.3412  -43.4190 H         1 UNK         0.0600 
    194 H194       -0.9996  -27.4654  -44.5101 H         1 UNK         0.0600 
    195 H195       -1.5002  -23.1594  -44.3375 H         1 UNK         0.3000 
    196 H196       -4.2286  -23.0885  -43.6366 H         1 UNK         0.0600 
    197 H197       -3.6370  -23.6232  -46.6139 H         1 UNK         0.0600 
    198 H198       -4.6343  -24.6226  -45.5601 H         1 UNK         0.0600 
    199 H199       -5.1708  -23.0139  -46.0090 H         1 UNK         0.0600 
    200 H200       -5.0106  -20.9516  -43.9498 H         1 UNK         0.3000 
    201 H201       -3.0171  -18.8964  -44.7134 H         1 UNK         0.0600 
    202 H202       -4.7171  -17.3363  -43.7890 H         1 UNK         0.0600 
    203 H203       -4.2525  -18.5512  -42.6080 H         1 UNK         0.0600 
    204 H204       -5.7983  -18.6830  -43.4457 H         1 UNK         0.0600 
    205 H205       -2.8779  -18.9861  -46.8878 H         1 UNK         0.3000 
    206 H206       -3.2398  -18.5762  -49.0110 H         1 UNK         0.0600 
    207 H207       -4.7395  -16.6477  -48.3000 H         1 UNK         0.0600 
    208 H208       -5.1346  -17.3241  -49.8639 H         1 UNK         0.0600 
    209 H209       -6.1248  -17.7206  -48.4702 H         1 UNK         0.0600 
    210 H210       -4.7688  -19.1857  -50.9358 H         1 UNK         0.3000 
    211 H211       -6.1612  -21.7679  -50.5695 H         1 UNK         0.0600 
    212 H212       -3.8750  -21.2710  -52.5698 H         1 UNK         0.0600 
    213 H213       -4.9404  -22.6797  -52.5683 H         1 UNK         0.0600 
    214 H214       -3.8542  -22.4013  -51.2231 H         1 UNK         0.0600 
    215 H215       -5.4353  -20.7480  -53.7728 H         1 UNK         0.3000 
    216 H216       -7.5173  -18.7934  -54.1001 H         1 UNK         0.0600 
    217 H217       -8.9028  -20.9071  -54.1461 H         1 UNK         0.0600 
    218 H218       -7.8396  -21.5847  -55.3765 H         1 UNK         0.0600 
    219 H219       -8.8314  -20.1771  -55.7399 H         1 UNK         0.0600 
    220 H220       -7.4333  -17.9640  -56.3182 H         1 UNK         0.3000 
    221 H221       -4.7989  -17.7447  -57.3729 H         1 UNK         0.0600 
    222 H222       -5.9260  -16.3589  -59.1150 H         1 UNK         0.0600 
    223 H223       -7.5003  -16.9083  -58.5528 H         1 UNK         0.0600 
    224 H224       -6.4758  -15.9254  -57.5049 H         1 UNK         0.0600 
    225 H225       -7.4040  -19.9497  -58.0941 H         1 UNK         0.3000 
    226 H226       -6.2243  -20.9785  -60.5889 H         1 UNK         0.0600 
    227 H227       -8.7020  -20.8380  -60.3157 H         1 UNK         0.0600 
    228 H228       -8.1870  -22.5046  -60.5120 H         1 UNK         0.0600 
    229 H229       -8.6218  -21.9076  -58.9151 H         1 UNK         0.0600 
    230 H230       -5.4888  -21.3196  -57.3208 H         1 UNK         0.3000 
    231 H231       -4.4642  -24.1072  -57.5924 H         1 UNK         0.0600 
    232 H232       -4.9440  -24.3927  -55.1893 H         1 UNK         0.0600 
    233 H233       -6.4230  -23.9469  -56.0125 H         1 UNK         0.0600 
    234 H234       -5.5580  -22.7420  -55.0694 H         1 UNK         0.0600 
    235 H235       -3.2967  -23.3426  -54.8157 H         1 UNK         0.3000 
    236 H236       -0.6804  -22.9857  -55.6936 H         1 UNK         0.0600 
    237 H237       -1.2976  -24.1025  -53.5742 H         1 UNK         0.0600 
    238 H238       -0.1560  -22.8081  -53.2550 H         1 UNK         0.0600 
    239 H239       -1.8590  -22.5756  -52.8962 H         1 UNK         0.0600 
    240 H240       -3.0016  -20.4346  -55.0860 H         1 UNK         0.3000 
    241 H241       -0.8664  -18.3738  -54.9399 H         1 UNK         0.0600 
    242 H242       -2.2759  -20.0478  -57.4964 H         1 UNK         0.3800 
    243 H243       -2.2499  -18.7361  -58.6439 H         1 UNK         0.3800 
    244 H244       -2.5556  -16.7700  -54.3458 H         1 UNK         0.0800 
    245 H245       -3.8532  -17.8653  -54.7089 H         1 UNK         0.0800 
    246 H246       -0.6639  -17.4768  -52.2580 H         1 UNK         0.0800 
    247 H247       -0.6209  -19.1479  -52.7738 H         1 UNK         0.0800 
@<TRIPOS>BOND
     1    1    2 1    
     2    1  127 1    
     3    1  128 1    
     4    1  129 1    
     5    2    3 2    
     6    2    4 am   BACKBONE|DICT|INTERRES
     7    4    5 1    
     8    4  130 1    
     9    5    6 1    
    10    5   65 1    
    11    5  131 1    
    12    6    7 1    
    13    6  132 1    
    14    6  133 1    
    15    7    8 1    
    16    8    9 1    
    17    8  134 1    
    18    8  135 1    
    19    9   10 ar   
    20    9   14 ar   
    21   10   11 ar   
    22   10  136 1    
    23   11   12 ar   
    24   11  126 1    
    25   12   13 ar   
    26   12  137 1    
    27   13   14 ar   
    28   13   15 1    
    29   14  138 1    
    30   15   16 1    
    31   15  139 1    
    32   15  140 1    
    33   16   17 1    
    34   17   18 1    
    35   17  141 1    
    36   17  142 1    
    37   18   19 1    
    38   18   67 1    
    39   18  143 1    
    40   19   20 am   BACKBONE|DICT|INTERRES
    41   19  144 1    
    42   20   21 2    
    43   20   22 1    
    44   22   23 1    
    45   22   24 1    
    46   22  145 1    
    47   23  146 1    
    48   23  147 1    
    49   23  148 1    
    50   24   25 am   BACKBONE|DICT|INTERRES
    51   24  149 1    
    52   25   26 2    
    53   25   27 1    
    54   27   28 1    
    55   27   29 1    
    56   27  150 1    
    57   28  151 1    
    58   28  152 1    
    59   28  153 1    
    60   29   30 am   BACKBONE|DICT|INTERRES
    61   29  154 1    
    62   30   31 2    
    63   30   32 1    
    64   32   33 1    
    65   32   34 1    
    66   32  155 1    
    67   33  156 1    
    68   33  157 1    
    69   33  158 1    
    70   34   35 am   BACKBONE|DICT|INTERRES
    71   34  159 1    
    72   35   36 2    
    73   35   37 1    
    74   37   38 1    
    75   37   39 1    
    76   37  160 1    
    77   38  161 1    
    78   38  162 1    
    79   38  163 1    
    80   39   40 am   BACKBONE|DICT|INTERRES
    81   39  164 1    
    82   40   41 2    
    83   40   42 1    
    84   42   43 1    
    85   42   44 1    
    86   42  165 1    
    87   43  166 1    
    88   43  167 1    
    89   43  168 1    
    90   44   45 am   BACKBONE|DICT|INTERRES
    91   44  169 1    
    92   45   46 2    
    93   45   47 1    
    94   47   48 1    
    95   47   49 1    
    96   47  170 1    
    97   48  171 1    
    98   48  172 1    
    99   48  173 1    
   100   49   50 am   BACKBONE|DICT|INTERRES
   101   49  174 1    
   102   50   51 2    
   103   50   52 1    
   104   52   53 1    
   105   52   54 1    
   106   52  175 1    
   107   53  176 1    
   108   53  177 1    
   109   53  178 1    
   110   54   55 am   BACKBONE|DICT|INTERRES
   111   54  179 1    
   112   55   56 2    
   113   55   57 1    
   114   57   58 1    
   115   57   59 1    
   116   57  180 1    
   117   58  181 1    
   118   58  182 1    
   119   58  183 1    
   120   59   60 am   BACKBONE|DICT|INTERRES
   121   59  184 1    
   122   60   61 2    
   123   60   62 1    
   124   62   63 1    
   125   62   64 1    
   126   62  185 1    
   127   63  186 1    
   128   63  187 1    
   129   63  188 1    
   130   64   65 am   BACKBONE|DICT|INTERRES
   131   64  189 1    
   132   65   66 2    
   133   67   68 2    
   134   67   69 am   BACKBONE|DICT|INTERRES
   135   69   70 1    
   136   69  190 1    
   137   70   71 1    
   138   70   72 1    
   139   70  191 1    
   140   71  192 1    
   141   71  193 1    
   142   71  194 1    
   143   72   73 2    
   144   72   74 am   BACKBONE|DICT|INTERRES
   145   74   75 1    
   146   74  195 1    
   147   75   76 1    
   148   75   77 1    
   149   75  196 1    
   150   76  197 1    
   151   76  198 1    
   152   76  199 1    
   153   77   78 2    
   154   77   79 am   BACKBONE|DICT|INTERRES
   155   79   80 1    
   156   79  200 1    
   157   80   81 1    
   158   80   82 1    
   159   80  201 1    
   160   81  202 1    
   161   81  203 1    
   162   81  204 1    
   163   82   83 2    
   164   82   84 am   BACKBONE|DICT|INTERRES
   165   84   85 1    
   166   84  205 1    
   167   85   86 1    
   168   85   87 1    
   169   85  206 1    
   170   86  207 1    
   171   86  208 1    
   172   86  209 1    
   173   87   88 2    
   174   87   89 am   BACKBONE|DICT|INTERRES
   175   89   90 1    
   176   89  210 1    
   177   90   91 1    
   178   90   92 1    
   179   90  211 1    
   180   91  212 1    
   181   91  213 1    
   182   91  214 1    
   183   92   93 2    
   184   92   94 am   BACKBONE|DICT|INTERRES
   185   94   95 1    
   186   94  215 1    
   187   95   96 1    
   188   95   97 1    
   189   95  216 1    
   190   96  217 1    
   191   96  218 1    
   192   96  219 1    
   193   97   98 2    
   194   97   99 am   BACKBONE|DICT|INTERRES
   195   99  100 1    
   196   99  220 1    
   197  100  101 1    
   198  100  102 1    
   199  100  221 1    
   200  101  222 1    
   201  101  223 1    
   202  101  224 1    
   203  102  103 2    
   204  102  104 am   BACKBONE|DICT|INTERRES
   205  104  105 1    
   206  104  225 1    
   207  105  106 1    
   208  105  107 1    
   209  105  226 1    
   210  106  227 1    
   211  106  228 1    
   212  106  229 1    
   213  107  108 2    
   214  107  109 am   BACKBONE|DICT|INTERRES
   215  109  110 1    
   216  109  230 1    
   217  110  111 1    
   218  110  112 1    
   219  110  231 1    
   220  111  232 1    
   221  111  233 1    
   222  111  234 1    
   223  112  113 2    
   224  112  114 am   BACKBONE|DICT|INTERRES
   225  114  115 1    
   226  114  235 1    
   227  115  116 1    
   228  115  117 1    
   229  115  236 1    
   230  116  237 1    
   231  116  238 1    
   232  116  239 1    
   233  117  118 2    
   234  117  119 am   BACKBONE|DICT|INTERRES
   235  119  120 1    
   236  119  240 1    
   237  120  121 1    
   238  120  124 1    
   239  120  241 1    
   240  121  122 am   BACKBONE|DICT|INTERRES
   241  121  123 2    
   242  122  242 1    
   243  122  243 1    
   244  124  125 1    
   245  124  244 1    
   246  124  245 1    
   247  125  126 1    
   248  126  246 1    
   249  126  247 1    
@<TRIPOS>SUBSTRUCTURE
     1 UNK         1 GROUP             0       ****    0 ROOT    
