@<TRIPOS>MOLECULE
3R540
247   249    1
SMALL
USER_CHARGES


@<TRIPOS>ATOM
      1 CA         -4.1278  -11.8339  -46.8496 C.3       0 UNK        -0.1800 
      2 C          -3.7100  -13.2189  -47.3217 C.2       0 UNK         0.5000 
      3 O          -2.5220  -13.4613  -47.5217 O.2       0 UNK        -0.5000 
      4 N          -4.6806  -14.1267  -47.4860 N.am      1 UNK        -0.5000 
      5 CA         -4.4783  -15.5173  -47.9234 C.3       1 UNK         0.1400 
      6 C6         -5.6698  -16.0287  -48.7728 C.3       23 UNK        -0.0398 
      7 S7         -5.7369  -15.1901  -50.3937 S.3       23 UNK        -0.2404 
      8 C8         -4.9473  -16.4203  -51.4853 C.3       23 UNK        -0.0205 
      9 C9         -3.5010  -16.6964  -51.0974 C.ar      23 UNK        -0.0193 
     10 C10        -2.4763  -15.8437  -51.5188 C.ar      23 UNK        -0.1150 
     11 C11        -1.1467  -16.0961  -51.1588 C.ar      23 UNK        -0.0193 
     12 C12        -0.8575  -17.1999  -50.3524 C.ar      23 UNK        -0.1150 
     13 C13        -1.8712  -18.0570  -49.9192 C.ar      23 UNK        -0.0193 
     14 C14        -3.1880  -17.8044  -50.3058 C.ar      23 UNK        -0.1150 
     15 C15        -1.5590  -19.2136  -48.9820 C.3       23 UNK        -0.0205 
     16 S16        -0.3545  -20.3904  -49.6803 S.3       23 UNK        -0.2404 
     17 C17         0.5215  -20.9283  -48.1663 C.3       23 UNK        -0.0398 
     18 CA         -0.0455  -22.2205  -47.5296 C.3       11 UNK         0.1400 
     19 N           0.8367  -22.7322  -46.4816 N.am      11 UNK        -0.5000 
     20 C           0.9971  -24.0270  -46.1792 C.2       10 UNK         0.5000 
     21 O           0.4987  -24.9482  -46.8253 O.2       10 UNK        -0.5000 
     22 CA          1.8596  -24.3566  -44.9430 C.3       10 UNK         0.1400 
     23 CB          3.3114  -24.6350  -45.3611 C.3       10 UNK        -0.1800 
     24 N           1.8533  -23.3068  -43.9211 N.am      10 UNK        -0.5000 
     25 C           0.7862  -22.9616  -43.1879 C.2       9 UNK         0.5000 
     26 O          -0.3142  -23.5046  -43.2834 O.2       9 UNK        -0.5000 
     27 CA          0.9632  -21.7721  -42.2220 C.3       9 UNK         0.1400 
     28 CB          1.5165  -22.2587  -40.8744 C.3       9 UNK        -0.1800 
     29 N           1.8040  -20.6742  -42.7202 N.am      9 UNK        -0.5000 
     30 C           1.6800  -20.0574  -43.9039 C.2       8 UNK         0.5000 
     31 O           0.9072  -20.4323  -44.7883 O.2       8 UNK        -0.5000 
     32 CA          2.6024  -18.8449  -44.1482 C.3       8 UNK         0.1400 
     33 CB          4.0489  -19.3106  -44.3799 C.3       8 UNK        -0.1800 
     34 N           2.1915  -18.0362  -45.2983 N.am      8 UNK        -0.5000 
     35 C           1.0181  -17.4035  -45.4278 C.2       7 UNK         0.5000 
     36 O           0.1567  -17.3552  -44.5458 O.2       7 UNK        -0.5000 
     37 CA          0.7966  -16.7062  -46.7775 C.3       7 UNK         0.1400 
     38 CB         -0.5965  -16.0729  -46.8992 C.3       7 UNK        -0.1800 
     39 N           1.8086  -15.6741  -46.9793 N.am      7 UNK        -0.5000 
     40 C           2.4362  -15.4311  -48.1378 C.2       6 UNK         0.5000 
     41 O           2.3065  -16.1392  -49.1346 O.2       6 UNK        -0.5000 
     42 CA          3.3354  -14.1811  -48.2353 C.3       6 UNK         0.1400 
     43 CB          2.7734  -13.2034  -49.2816 C.3       6 UNK        -0.1800 
     44 N           3.4731  -13.4668  -46.9663 N.am      6 UNK        -0.5000 
     45 C           4.3894  -13.7330  -46.0268 C.2       5 UNK         0.5000 
     46 O           5.2702  -14.5844  -46.1500 O.2       5 UNK        -0.5000 
     47 CA          4.2839  -12.9277  -44.7137 C.3       5 UNK         0.1400 
     48 CB          5.2051  -11.6991  -44.7618 C.3       5 UNK        -0.1800 
     49 N           2.9197  -12.4922  -44.3825 N.am      5 UNK        -0.5000 
     50 C           1.8896  -13.3213  -44.1687 C.2       4 UNK         0.5000 
     51 O           1.9788  -14.5452  -44.2776 O.2       4 UNK        -0.5000 
     52 CA          0.5308  -12.6721  -43.8417 C.3       4 UNK         0.1400 
     53 CB         -0.1336  -12.1496  -45.1256 C.3       4 UNK        -0.1800 
     54 N          -0.3836  -13.6137  -43.1959 N.am      4 UNK        -0.5000 
     55 C          -0.2268  -14.1342  -41.9732 C.2       3 UNK         0.5000 
     56 O           0.6705  -13.7855  -41.2033 O.2       3 UNK        -0.5000 
     57 CA         -1.2118  -15.2328  -41.5160 C.3       3 UNK         0.1400 
     58 CB         -2.2209  -14.6786  -40.4908 C.3       3 UNK        -0.1800 
     59 N          -1.9003  -15.9751  -42.5845 N.am      3 UNK        -0.5000 
     60 C          -2.8301  -15.5427  -43.4450 C.2       2 UNK         0.5000 
     61 O          -3.2032  -14.3695  -43.5305 O.2       2 UNK        -0.5000 
     62 CA         -3.4505  -16.6022  -44.3657 C.3       2 UNK         0.1400 
     63 CB         -4.5885  -17.3583  -43.6583 C.3       2 UNK        -0.1800 
     64 N          -3.9597  -15.9239  -45.5486 N.am      2 UNK        -0.5000 
     65 C          -4.1496  -16.4725  -46.7522 C.2       1 UNK         0.5000 
     66 O          -4.0418  -17.6812  -46.9631 O.2       1 UNK        -0.5000 
     67 C          -1.4615  -22.0035  -46.9647 C.2       11 UNK         0.5000 
     68 O          -2.4266  -22.2887  -47.6615 O.2       11 UNK        -0.5000 
     69 N          -1.5764  -21.4979  -45.7278 N.am      12 UNK        -0.5000 
     70 CA         -2.8569  -21.2195  -45.0705 C.3       12 UNK         0.1400 
     71 CB         -2.5983  -20.4927  -43.7434 C.3       12 UNK        -0.1800 
     72 C          -3.7138  -22.4825  -44.8437 C.2       12 UNK         0.5000 
     73 O          -4.9349  -22.4289  -45.0051 O.2       12 UNK        -0.5000 
     74 N          -3.0556  -23.5958  -44.4931 N.am      13 UNK        -0.5000 
     75 CA         -3.6516  -24.9256  -44.3664 C.3       13 UNK         0.1400 
     76 CB         -2.6038  -25.8734  -43.7614 C.3       13 UNK        -0.1800 
     77 C          -4.1642  -25.4836  -45.7103 C.2       13 UNK         0.5000 
     78 O          -3.6966  -25.0725  -46.7725 O.2       13 UNK        -0.5000 
     79 N          -5.0984  -26.4422  -45.6290 N.am      14 UNK        -0.5000 
     80 CA         -5.7190  -27.1556  -46.7532 C.3       14 UNK         0.1400 
     81 CB         -4.6848  -28.0423  -47.4802 C.3       14 UNK        -0.1800 
     82 C          -6.4813  -26.2092  -47.7043 C.2       14 UNK         0.5000 
     83 O          -6.2406  -26.2117  -48.9130 O.2       14 UNK        -0.5000 
     84 N          -7.3804  -25.4025  -47.1190 N.am      15 UNK        -0.5000 
     85 CA         -8.2787  -24.4489  -47.7845 C.3       15 UNK         0.1400 
     86 CB         -9.3512  -25.2001  -48.6015 C.3       15 UNK        -0.1800 
     87 C          -7.5237  -23.3879  -48.6126 C.2       15 UNK         0.5000 
     88 O          -7.8718  -23.1325  -49.7670 O.2       15 UNK        -0.5000 
     89 N          -6.4776  -22.8129  -48.0021 N.am      16 UNK        -0.5000 
     90 CA         -5.5667  -21.8090  -48.5647 C.3       16 UNK         0.1400 
     91 CB         -6.3220  -20.5108  -48.9191 C.3       16 UNK        -0.1800 
     92 C          -4.6927  -22.3297  -49.7299 C.2       16 UNK         0.5000 
     93 O          -4.1461  -21.5201  -50.4816 O.2       16 UNK        -0.5000 
     94 N          -4.5737  -23.6630  -49.8573 N.am      17 UNK        -0.5000 
     95 CA         -3.6754  -24.4234  -50.7377 C.3       17 UNK         0.1400 
     96 CB         -2.2293  -24.3287  -50.2100 C.3       17 UNK        -0.1800 
     97 C          -3.7592  -24.0663  -52.2379 C.2       17 UNK         0.5000 
     98 O          -2.7913  -24.2826  -52.9679 O.2       17 UNK        -0.5000 
     99 N          -4.8946  -23.4964  -52.6688 N.am      18 UNK        -0.5000 
    100 CA        -5.1253  -22.8932  -53.9872 C.3       18 UNK         0.1400 
    101 CB        -5.1585  -23.9735  -55.0889 C.3       18 UNK        -0.1800 
    102 C         -4.1496  -21.7328  -54.3029 C.2       18 UNK         0.5000 
    103 O         -3.7965  -21.5264  -55.4653 O.2       18 UNK        -0.5000 
    104 N         -3.7449  -20.9954  -53.2562 N.am      19 UNK        -0.5000 
    105 CA        -2.8339  -19.8485  -53.2648 C.3       19 UNK         0.1400 
    106 CB        -3.4412  -18.6703  -54.0552 C.3       19 UNK        -0.1800 
    107 C         -1.4012  -20.2116  -53.7022 C.2       19 UNK         0.5000 
    108 O         -0.7890  -19.4788  -54.4798 O.2       19 UNK        -0.5000 
    109 N         -0.8961  -21.3425  -53.1871 N.am      20 UNK        -0.5000 
    110 CA         0.3931  -21.9535  -53.5250 C.3       20 UNK         0.1400 
    111 CB         0.6133  -23.1927  -52.6424 C.3       20 UNK        -0.1800 
    112 C          1.6065  -21.0084  -53.4322 C.2       20 UNK         0.5000 
    113 O          2.3729  -20.9081  -54.3916 O.2       20 UNK        -0.5000 
    114 N          1.7486  -20.3094  -52.2975 N.am      21 UNK        -0.5000 
    115 CA         2.8599  -19.3868  -52.0353 C.3       21 UNK         0.1400 
    116 CB         2.9492  -19.1038  -50.5292 C.3       21 UNK        -0.1800 
    117 C          2.7902  -18.0786  -52.8498 C.2       21 UNK         0.5000 
    118 O          3.8086  -17.3993  -52.9854 O.2       21 UNK        -0.5000 
    119 N          1.6123  -17.7696  -53.4045 N.am      22 UNK        -0.5000 
    120 CA         1.3963  -16.6971  -54.3860 C.3       22 UNK         0.1400 
    121 C          1.7401  -17.1183  -55.8482 C.2       22 UNK         0.5000 
    122 N          2.0973  -18.3666  -56.1319 N.am      22 UNK        -0.7600 
    123 O          1.7038  -16.2840  -56.7486 O.2       22 UNK        -0.5000 
    124 C124       -0.0429  -16.1191  -54.2645 C.3       23 UNK        -0.0398 
    125 S125       -0.1127  -14.5707  -53.3023 S.3       23 UNK        -0.2404 
    126 C126       -0.0106  -15.1692  -51.5815 C.3       23 UNK        -0.0205 
    127 H127       -3.8033  -11.0799  -47.5666 H         1 UNK         0.0600 
    128 H128       -3.6657  -11.6127  -45.8874 H         1 UNK         0.0600 
    129 H129       -5.2090  -11.7522  -46.7353 H         1 UNK         0.0600 
    130 H130       -5.6388  -13.8618  -47.3070 H         1 UNK         0.3000 
    131 H131       -3.5886  -15.5451  -48.5552 H         1 UNK         0.0600 
    132 H132       -5.6185  -17.1047  -48.9417 H         1 UNK         0.0800 
    133 H133       -6.6122  -15.8589  -48.2503 H         1 UNK         0.0800 
    134 H134       -5.5288  -17.3436  -51.4725 H         1 UNK         0.0800 
    135 H135       -4.9835  -16.0545  -52.5124 H         1 UNK         0.0800 
    136 H136       -2.7175  -14.9797  -52.1214 H         1 UNK         0.1150 
    137 H137        0.1596  -17.3821  -50.0406 H         1 UNK         0.1150 
    138 H138       -3.9734  -18.4653  -49.9733 H         1 UNK         0.1150 
    139 H139       -1.1911  -18.8012  -48.0442 H         1 UNK         0.0800 
    140 H140       -2.4709  -19.7589  -48.7333 H         1 UNK         0.0800 
    141 H141        0.5594  -20.1145  -47.4412 H         1 UNK         0.0800 
    142 H142        1.5582  -21.1053  -48.4535 H         1 UNK         0.0800 
    143 H143       -0.1198  -22.9696  -48.3212 H         1 UNK         0.0600 
    144 H144        1.2214  -22.0351  -45.8533 H         1 UNK         0.3000 
    145 H145        1.4528  -25.2653  -44.4938 H         1 UNK         0.0600 
    146 H146        3.3580  -25.4324  -46.1040 H         1 UNK         0.0600 
    147 H147        3.7807  -23.7522  -45.7971 H         1 UNK         0.0600 
    148 H148        3.9140  -24.9510  -44.5094 H         1 UNK         0.0600 
    149 H149        2.7139  -22.7972  -43.7853 H         1 UNK         0.3000 
    150 H150       -0.0270  -21.3529  -42.0411 H         1 UNK         0.0600 
    151 H151        0.9016  -23.0617  -40.4654 H         1 UNK         0.0600 
    152 H152        1.5279  -21.4549  -40.1380 H         1 UNK         0.0600 
    153 H153        2.5335  -22.6408  -40.9714 H         1 UNK         0.0600 
    154 H154        2.4840  -20.3158  -42.0654 H         1 UNK         0.3000 
    155 H155        2.5688  -18.2075  -43.2625 H         1 UNK         0.0600 
    156 H156        4.4273  -19.8744  -43.5264 H         1 UNK         0.0600 
    157 H157        4.7175  -18.4615  -44.5241 H         1 UNK         0.0600 
    158 H158        4.1282  -19.9526  -45.2584 H         1 UNK         0.0600 
    159 H159        2.8356  -18.0062  -46.0742 H         1 UNK         0.3000 
    160 H160        0.8852  -17.4795  -47.5431 H         1 UNK         0.0600 
    161 H161       -0.7633  -15.3107  -46.1377 H         1 UNK         0.0600 
    162 H162       -1.3661  -16.8322  -46.7805 H         1 UNK         0.0600 
    163 H163       -0.7415  -15.6106  -47.8755 H         1 UNK         0.0600 
    164 H164        2.0120  -15.1061  -46.1620 H         1 UNK         0.3000 
    165 H165        4.3187  -14.5129  -48.5750 H         1 UNK         0.0600 
    166 H166        3.4163  -12.3300  -49.3916 H         1 UNK         0.0600 
    167 H167        2.7012  -13.6759  -50.2623 H         1 UNK         0.0600 
    168 H168        1.7752  -12.8556  -49.0118 H         1 UNK         0.0600 
    169 H169        2.7879  -12.7510  -46.7752 H         1 UNK         0.3000 
    170 H170        4.6264  -13.5791  -43.9069 H         1 UNK         0.0600 
    171 H171        6.2335  -11.9899  -44.9805 H         1 UNK         0.0600 
    172 H172        4.8932  -10.9922  -45.5316 H         1 UNK         0.0600 
    173 H173        5.2144  -11.1744  -43.8063 H         1 UNK         0.0600 
    174 H174        2.7764  -11.4963  -44.2925 H         1 UNK         0.3000 
    175 H175        0.6984  -11.8349  -43.1611 H         1 UNK         0.0600 
    176 H176       -1.1033  -11.6983  -44.9141 H         1 UNK         0.0600 
    177 H177        0.4797  -11.3862  -45.6054 H         1 UNK         0.0600 
    178 H178       -0.2900  -12.9477  -45.8524 H         1 UNK         0.0600 
    179 H179       -1.1775  -13.9295  -43.7376 H         1 UNK         0.3000 
    180 H180       -0.6036  -15.9775  -41.0001 H         1 UNK         0.0600 
    181 H181       -2.8512  -13.8989  -40.9196 H         1 UNK         0.0600 
    182 H182       -1.7056  -14.2429  -39.6340 H         1 UNK         0.0600 
    183 H183       -2.8715  -15.4665  -40.1111 H         1 UNK         0.0600 
    184 H184       -1.5951  -16.9346  -42.6810 H         1 UNK         0.3000 
    185 H185       -2.6692  -17.3050  -44.6623 H         1 UNK         0.0600 
    186 H186       -4.2345  -17.8333  -42.7428 H         1 UNK         0.0600 
    187 H187       -5.4049  -16.6884  -43.3861 H         1 UNK         0.0600 
    188 H188       -4.9970  -18.1437  -44.2946 H         1 UNK         0.0600 
    189 H189       -4.0320  -14.9191  -45.4469 H         1 UNK         0.3000 
    190 H190       -0.7323  -21.2293  -45.2305 H         1 UNK         0.3000 
    191 H191       -3.4199  -20.5464  -45.7211 H         1 UNK         0.0600 
    192 H192       -1.9923  -19.5982  -43.8901 H         1 UNK         0.0600 
    193 H193       -3.5369  -20.1847  -43.2822 H         1 UNK         0.0600 
    194 H194       -2.0840  -21.1365  -43.0313 H         1 UNK         0.0600 
    195 H195       -2.0517  -23.5403  -44.3597 H         1 UNK         0.3000 
    196 H196       -4.4968  -24.8503  -43.6794 H         1 UNK         0.0600 
    197 H197       -3.0068  -26.8781  -43.6284 H         1 UNK         0.0600 
    198 H198       -2.2753  -25.5242  -42.7823 H         1 UNK         0.0600 
    199 H199       -1.7227  -25.9536  -44.3999 H         1 UNK         0.0600 
    200 H200       -5.4198  -26.7194  -44.7118 H         1 UNK         0.3000 
    201 H201       -6.4682  -27.8208  -46.3214 H         1 UNK         0.0600 
    202 H202       -4.1859  -28.7168  -46.7845 H         1 UNK         0.0600 
    203 H203       -3.9180  -27.4503  -47.9808 H         1 UNK         0.0600 
    204 H204       -5.1669  -28.6585  -48.2400 H         1 UNK         0.0600 
    205 H205       -7.4734  -25.4568  -46.1142 H         1 UNK         0.3000 
    206 H206       -8.7938  -23.9040  -46.9920 H         1 UNK         0.0600 
    207 H207       -9.8892  -25.9168  -47.9810 H         1 UNK         0.0600 
    208 H208      -10.0888  -24.5075  -49.0086 H         1 UNK         0.0600 
    209 H209       -8.9154  -25.7437  -49.4403 H         1 UNK         0.0600 
    210 H210       -6.2493  -23.1121  -47.0626 H         1 UNK         0.3000 
    211 H211       -4.8779  -21.5599  -47.7584 H         1 UNK         0.0600 
    212 H212       -6.9488  -20.6310  -49.8029 H         1 UNK         0.0600 
    213 H213       -5.6240  -19.7009  -49.1231 H         1 UNK         0.0600 
    214 H214       -6.9565  -20.1843  -48.0953 H         1 UNK         0.0600 
    215 H215       -5.0933  -24.2336  -49.2022 H         1 UNK         0.3000 
    216 H216       -3.9890  -25.4650  -50.6584 H         1 UNK         0.0600 
    217 H217       -1.5564  -24.9833  -50.7646 H         1 UNK         0.0600 
    218 H218       -2.1737  -24.6269  -49.1628 H         1 UNK         0.0600 
    219 H219       -1.8415  -23.3123  -50.2883 H         1 UNK         0.0600 
    220 H220       -5.6253  -23.3530  -51.9850 H         1 UNK         0.3000 
    221 H221       -6.1178  -22.4430  -53.9419 H         1 UNK         0.0600 
    222 H222       -4.1775  -24.4216  -55.2487 H         1 UNK         0.0600 
    223 H223       -5.8557  -24.7725  -54.8370 H         1 UNK         0.0600 
    224 H224       -5.4821  -23.5509  -56.0407 H         1 UNK         0.0600 
    225 H225       -4.0534  -21.2741  -52.3262 H         1 UNK         0.3000 
    226 H226       -2.7480  -19.5435  -52.2251 H         1 UNK         0.0600 
    227 H227       -2.8599  -17.7608  -53.9091 H         1 UNK         0.0600 
    228 H228       -3.4702  -18.8705  -55.1264 H         1 UNK         0.0600 
    229 H229       -4.4579  -18.4579  -53.7258 H         1 UNK         0.0600 
    230 H230       -1.4890  -21.8792  -52.5703 H         1 UNK         0.3000 
    231 H231        0.3229  -22.2869  -54.5621 H         1 UNK         0.0600 
    232 H232        0.5841  -22.9440  -51.5808 H         1 UNK         0.0600 
    233 H233        1.5807  -23.6537  -52.8460 H         1 UNK         0.0600 
    234 H234       -0.1471  -23.9500  -52.8293 H         1 UNK         0.0600 
    235 H235        1.0610  -20.4199  -51.5631 H         1 UNK         0.3000 
    236 H236        3.7853  -19.8875  -52.3282 H         1 UNK         0.0600 
    237 H237        3.1323  -20.0190  -49.9672 H         1 UNK         0.0600 
    238 H238        3.7678  -18.4183  -50.3061 H         1 UNK         0.0600 
    239 H239        2.0354  -18.6509  -50.1495 H         1 UNK         0.0600 
    240 H240        0.8439  -18.4175  -53.2932 H         1 UNK         0.3000 
    241 H241        2.1033  -15.8947  -54.1678 H         1 UNK         0.0600 
    242 H242        2.3203  -18.6092  -57.0838 H         1 UNK         0.3800 
    243 H243        2.1264  -19.0829  -55.4168 H         1 UNK         0.3800 
    244 H244       -0.4695  -15.8841  -55.2412 H         1 UNK         0.0800 
    245 H245       -0.7260  -16.8476  -53.8297 H         1 UNK         0.0800 
    246 H246       -0.0031  -14.3092  -50.9110 H         1 UNK         0.0800 
    247 H247        0.9528  -15.6647  -51.4522 H         1 UNK         0.0800 
@<TRIPOS>BOND
     1    1    2 1    
     2    1  127 1    
     3    1  128 1    
     4    1  129 1    
     5    2    3 2    
     6    2    4 am   BACKBONE|DICT|INTERRES
     7    4    5 1    
     8    4  130 1    
     9    5    6 1    
    10    5   65 1    
    11    5  131 1    
    12    6    7 1    
    13    6  132 1    
    14    6  133 1    
    15    7    8 1    
    16    8    9 1    
    17    8  134 1    
    18    8  135 1    
    19    9   10 ar   
    20    9   14 ar   
    21   10   11 ar   
    22   10  136 1    
    23   11   12 ar   
    24   11  126 1    
    25   12   13 ar   
    26   12  137 1    
    27   13   14 ar   
    28   13   15 1    
    29   14  138 1    
    30   15   16 1    
    31   15  139 1    
    32   15  140 1    
    33   16   17 1    
    34   17   18 1    
    35   17  141 1    
    36   17  142 1    
    37   18   19 1    
    38   18   67 1    
    39   18  143 1    
    40   19   20 am   BACKBONE|DICT|INTERRES
    41   19  144 1    
    42   20   21 2    
    43   20   22 1    
    44   22   23 1    
    45   22   24 1    
    46   22  145 1    
    47   23  146 1    
    48   23  147 1    
    49   23  148 1    
    50   24   25 am   BACKBONE|DICT|INTERRES
    51   24  149 1    
    52   25   26 2    
    53   25   27 1    
    54   27   28 1    
    55   27   29 1    
    56   27  150 1    
    57   28  151 1    
    58   28  152 1    
    59   28  153 1    
    60   29   30 am   BACKBONE|DICT|INTERRES
    61   29  154 1    
    62   30   31 2    
    63   30   32 1    
    64   32   33 1    
    65   32   34 1    
    66   32  155 1    
    67   33  156 1    
    68   33  157 1    
    69   33  158 1    
    70   34   35 am   BACKBONE|DICT|INTERRES
    71   34  159 1    
    72   35   36 2    
    73   35   37 1    
    74   37   38 1    
    75   37   39 1    
    76   37  160 1    
    77   38  161 1    
    78   38  162 1    
    79   38  163 1    
    80   39   40 am   BACKBONE|DICT|INTERRES
    81   39  164 1    
    82   40   41 2    
    83   40   42 1    
    84   42   43 1    
    85   42   44 1    
    86   42  165 1    
    87   43  166 1    
    88   43  167 1    
    89   43  168 1    
    90   44   45 am   BACKBONE|DICT|INTERRES
    91   44  169 1    
    92   45   46 2    
    93   45   47 1    
    94   47   48 1    
    95   47   49 1    
    96   47  170 1    
    97   48  171 1    
    98   48  172 1    
    99   48  173 1    
   100   49   50 am   BACKBONE|DICT|INTERRES
   101   49  174 1    
   102   50   51 2    
   103   50   52 1    
   104   52   53 1    
   105   52   54 1    
   106   52  175 1    
   107   53  176 1    
   108   53  177 1    
   109   53  178 1    
   110   54   55 am   BACKBONE|DICT|INTERRES
   111   54  179 1    
   112   55   56 2    
   113   55   57 1    
   114   57   58 1    
   115   57   59 1    
   116   57  180 1    
   117   58  181 1    
   118   58  182 1    
   119   58  183 1    
   120   59   60 am   BACKBONE|DICT|INTERRES
   121   59  184 1    
   122   60   61 2    
   123   60   62 1    
   124   62   63 1    
   125   62   64 1    
   126   62  185 1    
   127   63  186 1    
   128   63  187 1    
   129   63  188 1    
   130   64   65 am   BACKBONE|DICT|INTERRES
   131   64  189 1    
   132   65   66 2    
   133   67   68 2    
   134   67   69 am   BACKBONE|DICT|INTERRES
   135   69   70 1    
   136   69  190 1    
   137   70   71 1    
   138   70   72 1    
   139   70  191 1    
   140   71  192 1    
   141   71  193 1    
   142   71  194 1    
   143   72   73 2    
   144   72   74 am   BACKBONE|DICT|INTERRES
   145   74   75 1    
   146   74  195 1    
   147   75   76 1    
   148   75   77 1    
   149   75  196 1    
   150   76  197 1    
   151   76  198 1    
   152   76  199 1    
   153   77   78 2    
   154   77   79 am   BACKBONE|DICT|INTERRES
   155   79   80 1    
   156   79  200 1    
   157   80   81 1    
   158   80   82 1    
   159   80  201 1    
   160   81  202 1    
   161   81  203 1    
   162   81  204 1    
   163   82   83 2    
   164   82   84 am   BACKBONE|DICT|INTERRES
   165   84   85 1    
   166   84  205 1    
   167   85   86 1    
   168   85   87 1    
   169   85  206 1    
   170   86  207 1    
   171   86  208 1    
   172   86  209 1    
   173   87   88 2    
   174   87   89 am   BACKBONE|DICT|INTERRES
   175   89   90 1    
   176   89  210 1    
   177   90   91 1    
   178   90   92 1    
   179   90  211 1    
   180   91  212 1    
   181   91  213 1    
   182   91  214 1    
   183   92   93 2    
   184   92   94 am   BACKBONE|DICT|INTERRES
   185   94   95 1    
   186   94  215 1    
   187   95   96 1    
   188   95   97 1    
   189   95  216 1    
   190   96  217 1    
   191   96  218 1    
   192   96  219 1    
   193   97   98 2    
   194   97   99 am   BACKBONE|DICT|INTERRES
   195   99  100 1    
   196   99  220 1    
   197  100  101 1    
   198  100  102 1    
   199  100  221 1    
   200  101  222 1    
   201  101  223 1    
   202  101  224 1    
   203  102  103 2    
   204  102  104 am   BACKBONE|DICT|INTERRES
   205  104  105 1    
   206  104  225 1    
   207  105  106 1    
   208  105  107 1    
   209  105  226 1    
   210  106  227 1    
   211  106  228 1    
   212  106  229 1    
   213  107  108 2    
   214  107  109 am   BACKBONE|DICT|INTERRES
   215  109  110 1    
   216  109  230 1    
   217  110  111 1    
   218  110  112 1    
   219  110  231 1    
   220  111  232 1    
   221  111  233 1    
   222  111  234 1    
   223  112  113 2    
   224  112  114 am   BACKBONE|DICT|INTERRES
   225  114  115 1    
   226  114  235 1    
   227  115  116 1    
   228  115  117 1    
   229  115  236 1    
   230  116  237 1    
   231  116  238 1    
   232  116  239 1    
   233  117  118 2    
   234  117  119 am   BACKBONE|DICT|INTERRES
   235  119  120 1    
   236  119  240 1    
   237  120  121 1    
   238  120  124 1    
   239  120  241 1    
   240  121  122 am   BACKBONE|DICT|INTERRES
   241  121  123 2    
   242  122  242 1    
   243  122  243 1    
   244  124  125 1    
   245  124  244 1    
   246  124  245 1    
   247  125  126 1    
   248  126  246 1    
   249  126  247 1    
@<TRIPOS>SUBSTRUCTURE
     1 UNK         1 GROUP             0       ****    0 ROOT    
