@<TRIPOS>MOLECULE
3R540
247   249    1
SMALL
USER_CHARGES


@<TRIPOS>ATOM
      1 CA          0.1454   -9.9499  -46.3633 C.3       0 UNK        -0.1800 
      2 C          -1.2935   -9.9748  -46.8768 C.2       0 UNK         0.5000 
      3 O          -2.0688   -9.0808  -46.5433 O.2       0 UNK        -0.5000 
      4 N          -1.6968  -10.9519  -47.7023 N.am      1 UNK        -0.5000 
      5 CA         -0.9118  -12.1107  -48.1474 C.3       1 UNK         0.1400 
      6 C6         -1.5035  -12.7090  -49.4470 C.3       23 UNK        -0.0398 
      7 S7         -0.3106  -13.7376  -50.3665 S.3       23 UNK        -0.2404 
      8 C8         -1.0312  -15.3839  -50.1010 C.3       23 UNK        -0.0205 
      9 C9         -0.1375  -16.4771  -50.6595 C.ar      23 UNK        -0.0193 
     10 C10        -0.1768  -16.7916  -52.0204 C.ar      23 UNK        -0.1150 
     11 C11         0.6152  -17.8231  -52.5318 C.ar      23 UNK        -0.0193 
     12 C12         1.4429  -18.5493  -51.6710 C.ar      23 UNK        -0.1150 
     13 C13         1.4867  -18.2454  -50.3076 C.ar      23 UNK        -0.0193 
     14 C14         0.7081  -17.1955  -49.8106 C.ar      23 UNK        -0.1150 
     15 C15         2.3386  -19.0814  -49.3636 C.3       23 UNK        -0.0205 
     16 S16         1.4971  -20.6323  -48.9098 S.3       23 UNK        -0.2404 
     17 C17        -0.0230  -19.9703  -48.1543 C.3       23 UNK        -0.0398 
     18 CA         -0.8011  -21.0223  -47.3392 C.3       11 UNK         0.1400 
     19 N          -0.1140  -21.3998  -46.1010 N.am      11 UNK        -0.5000 
     20 C          -0.5134  -22.3867  -45.2867 C.2       10 UNK         0.5000 
     21 O          -1.4844  -23.1084  -45.5125 O.2       10 UNK        -0.5000 
     22 CA          0.2647  -22.5643  -43.9726 C.3       10 UNK         0.1400 
     23 CB          1.5932  -23.2948  -44.2174 C.3       10 UNK        -0.1800 
     24 N           0.5054  -21.2927  -43.2886 N.am      10 UNK        -0.5000 
     25 C          -0.4627  -20.4968  -42.8094 C.2       9 UNK         0.5000 
     26 O          -1.6605  -20.7740  -42.8603 O.2       9 UNK        -0.5000 
     27 CA         -0.0305  -19.1450  -42.2153 C.3       9 UNK         0.1400 
     28 CB          0.5116  -19.3199  -40.7888 C.3       9 UNK        -0.1800 
     29 N           0.9679  -18.4669  -43.0374 N.am      9 UNK        -0.5000 
     30 C           0.7746  -18.0419  -44.2927 C.2       8 UNK         0.5000 
     31 O          -0.2934  -18.1359  -44.8962 O.2       8 UNK        -0.5000 
     32 CA          2.0016  -17.4600  -45.0136 C.3       8 UNK         0.1400 
     33 CB          2.2434  -16.0025  -44.5976 C.3       8 UNK        -0.1800 
     34 N           3.2099  -18.2466  -44.7660 N.am      8 UNK        -0.5000 
     35 C           3.3866  -19.5104  -45.1747 C.2       7 UNK         0.5000 
     36 O           2.5458  -20.1487  -45.8057 O.2       7 UNK        -0.5000 
     37 CA          4.7091  -20.1842  -44.7706 C.3       7 UNK         0.1400 
     38 CB          5.8661  -19.6907  -45.6525 C.3       7 UNK        -0.1800 
     39 N           5.0373  -19.9657  -43.3610 N.am      7 UNK        -0.5000 
     40 C           4.3300  -20.4706  -42.3409 C.2       6 UNK         0.5000 
     41 O           3.3371  -21.1833  -42.4819 O.2       6 UNK        -0.5000 
     42 CA          4.7832  -20.0845  -40.9215 C.3       6 UNK         0.1400 
     43 CB          5.9399  -20.9843  -40.4608 C.3       6 UNK        -0.1800 
     44 N           5.1666  -18.6778  -40.7603 N.am      6 UNK        -0.5000 
     45 C           4.3869  -17.6287  -41.0526 C.2       5 UNK         0.5000 
     46 O           3.3142  -17.7132  -41.6519 O.2       5 UNK        -0.5000 
     47 CA          4.8903  -16.2438  -40.6095 C.3       5 UNK         0.1400 
     48 CB          5.5216  -15.5000  -41.7962 C.3       5 UNK        -0.1800 
     49 N           3.7978  -15.4349  -40.0672 N.am      5 UNK        -0.5000 
     50 C           3.0770  -15.7389  -38.9770 C.2       4 UNK         0.5000 
     51 O           3.3437  -16.6771  -38.2242 O.2       4 UNK        -0.5000 
     52 CA          1.8586  -14.8461  -38.6597 C.3       4 UNK         0.1400 
     53 CB          2.1456  -13.9575  -37.4387 C.3       4 UNK        -0.1800 
     54 N           1.4424  -13.9908  -39.7751 N.am      4 UNK        -0.5000 
     55 C           0.8185  -14.4188  -40.8798 C.2       3 UNK         0.5000 
     56 O           0.4983  -15.5925  -41.0820 O.2       3 UNK        -0.5000 
     57 CA          0.5209  -13.3491  -41.9393 C.3       3 UNK         0.1400 
     58 CB          1.8205  -12.7628  -42.5296 C.3       3 UNK        -0.1800 
     59 N          -0.2864  -13.9408  -43.0009 N.am      3 UNK        -0.5000 
     60 C          -1.0354  -13.2544  -43.8659 C.2       2 UNK         0.5000 
     61 O          -1.1699  -12.0286  -43.8291 O.2       2 UNK        -0.5000 
     62 CA         -1.7706  -14.0675  -44.9466 C.3       2 UNK         0.1400 
     63 CB         -3.2063  -14.3868  -44.5030 C.3       2 UNK        -0.1800 
     64 N          -1.8141  -13.3054  -46.1939 N.am      2 UNK        -0.5000 
     65 C          -0.7746  -13.1694  -47.0290 C.2       1 UNK         0.5000 
     66 O           0.2753  -13.8020  -46.9144 O.2       1 UNK        -0.5000 
     67 C          -2.2371  -20.5247  -47.0837 C.2       11 UNK         0.5000 
     68 O          -3.1354  -20.8794  -47.8472 O.2       11 UNK        -0.5000 
     69 N          -2.4357  -19.7335  -46.0199 N.am      12 UNK        -0.5000 
     70 CA         -3.7440  -19.2391  -45.5924 C.3       12 UNK         0.1400 
     71 CB         -3.5638  -18.1594  -44.5150 C.3       12 UNK        -0.1800 
     72 C          -4.6661  -20.3672  -45.0965 C.2       12 UNK         0.5000 
     73 O          -5.8420  -20.3858  -45.4593 O.2       12 UNK        -0.5000 
     74 N          -4.1120  -21.3032  -44.3123 N.am      13 UNK        -0.5000 
     75 CA         -4.8075  -22.4898  -43.8094 C.3       13 UNK         0.1400 
     76 CB         -3.9358  -23.1891  -42.7553 C.3       13 UNK        -0.1800 
     77 C          -5.2014  -23.4702  -44.9296 C.2       13 UNK         0.5000 
     78 O          -6.3114  -24.0033  -44.9082 O.2       13 UNK        -0.5000 
     79 N          -4.2982  -23.6693  -45.8994 N.am      14 UNK        -0.5000 
     80 CA         -4.5279  -24.4795  -47.0976 C.3       14 UNK         0.1400 
     81 CB         -3.1738  -24.7830  -47.7585 C.3       14 UNK        -0.1800 
     82 C          -5.4692  -23.8092  -48.1176 C.2       14 UNK         0.5000 
     83 O          -6.0366  -24.5088  -48.9571 O.2       14 UNK        -0.5000 
     84 N          -5.5880  -22.4749  -48.0393 N.am      15 UNK        -0.5000 
     85 CA         -6.2578  -21.5734  -48.9798 C.3       15 UNK         0.1400 
     86 CB         -7.7819  -21.8090  -48.9876 C.3       15 UNK        -0.1800 
     87 C          -5.6159  -21.6601  -50.3783 C.2       15 UNK         0.5000 
     88 O          -6.3159  -21.8566  -51.3716 O.2       15 UNK        -0.5000 
     89 N          -4.2797  -21.5440  -50.4133 N.am      16 UNK        -0.5000 
     90 CA         -3.4044  -21.8194  -51.5586 C.3       16 UNK         0.1400 
     91 CB         -1.9606  -21.4417  -51.1916 C.3       16 UNK        -0.1800 
     92 C          -3.8102  -21.1430  -52.8805 C.2       16 UNK         0.5000 
     93 O          -3.7434  -21.7804  -53.9325 O.2       16 UNK        -0.5000 
     94 N          -4.2479  -19.8805  -52.8001 N.am      17 UNK        -0.5000 
     95 CA         -4.6884  -19.0907  -53.9498 C.3       17 UNK         0.1400 
     96 CB         -4.7372  -17.6083  -53.5516 C.3       17 UNK        -0.1800 
     97 C          -6.0444  -19.5520  -54.5187 C.2       17 UNK         0.5000 
     98 O          -6.2471  -19.4724  -55.7303 O.2       17 UNK        -0.5000 
     99 N          -6.9384  -20.0409  -53.6478 N.am      18 UNK        -0.5000 
    100 CA        -8.2481  -20.5816  -54.0198 C.3       18 UNK         0.1400 
    101 CB        -9.2047  -20.4756  -52.8222 C.3       18 UNK        -0.1800 
    102 C         -8.1397  -22.0381  -54.5029 C.2       18 UNK         0.5000 
    103 O         -8.8398  -22.4271  -55.4380 O.2       18 UNK        -0.5000 
    104 N         -7.2371  -22.8044  -53.8758 N.am      19 UNK        -0.5000 
    105 CA        -6.8894  -24.1817  -54.2293 C.3       19 UNK         0.1400 
    106 CB        -6.0884  -24.7926  -53.0679 C.3       19 UNK        -0.1800 
    107 C         -6.0916  -24.2974  -55.5449 C.2       19 UNK         0.5000 
    108 O         -5.9706  -25.4008  -56.0778 O.2       19 UNK        -0.5000 
    109 N         -5.5506  -23.1672  -56.0248 N.am      20 UNK        -0.5000 
    110 CA        -4.6875  -23.0062  -57.1991 C.3       20 UNK         0.1400 
    111 CB        -5.4077  -23.4323  -58.4951 C.3       20 UNK        -0.1800 
    112 C         -3.3041  -23.6683  -57.0288 C.2       20 UNK         0.5000 
    113 O         -2.6431  -23.9855  -58.0196 O.2       20 UNK        -0.5000 
    114 N         -2.8584  -23.8104  -55.7722 N.am      21 UNK        -0.5000 
    115 CA        -1.5291  -24.2974  -55.3951 C.3       21 UNK         0.1400 
    116 CB        -1.5117  -24.5897  -53.8874 C.3       21 UNK        -0.1800 
    117 C         -0.4128  -23.3041  -55.7742 C.2       21 UNK         0.5000 
    118 O          0.7340  -23.7135  -55.9567 O.2       21 UNK        -0.5000 
    119 N         -0.7849  -22.0266  -55.9215 N.am      22 UNK        -0.5000 
    120 CA         0.0458  -20.9435  -56.4661 C.3       22 UNK         0.1400 
    121 C          0.3598  -21.0712  -57.9885 C.2       22 UNK         0.5000 
    122 N         -0.2809  -21.9603  -58.7406 N.am      22 UNK        -0.7600 
    123 O          1.2095  -20.3465  -58.4989 O.2       22 UNK        -0.5000 
    124 C124       -0.5711  -19.5547  -56.1595 C.3       23 UNK        -0.0398 
    125 S125       -0.8247  -19.2715  -54.3754 S.3       23 UNK        -0.2404 
    126 C126        0.5648  -18.1604  -54.0112 C.3       23 UNK        -0.0205 
    127 H127        0.3778  -10.8459  -45.7892 H         1 UNK         0.0600 
    128 H128        0.8507   -9.8680  -47.1900 H         1 UNK         0.0600 
    129 H129        0.3012   -9.0919  -45.7091 H         1 UNK         0.0600 
    130 H130       -2.6475  -10.9198  -48.0423 H         1 UNK         0.3000 
    131 H131        0.0936  -11.7562  -48.3823 H         1 UNK         0.0600 
    132 H132       -2.4214  -13.2652  -49.2472 H         1 UNK         0.0800 
    133 H133       -1.7917  -11.9021  -50.1225 H         1 UNK         0.0800 
    134 H134       -2.0126  -15.4326  -50.5755 H         1 UNK         0.0800 
    135 H135       -1.1950  -15.5429  -49.0337 H         1 UNK         0.0800 
    136 H136       -0.8304  -16.2385  -52.6806 H         1 UNK         0.1150 
    137 H137        2.0380  -19.3651  -52.0570 H         1 UNK         0.1150 
    138 H138        0.7359  -16.9572  -48.7564 H         1 UNK         0.1150 
    139 H139        2.5765  -18.5211  -48.4578 H         1 UNK         0.0800 
    140 H140        3.2923  -19.3179  -49.8374 H         1 UNK         0.0800 
    141 H141       -0.6392  -19.5840  -48.9683 H         1 UNK         0.0800 
    142 H142        0.2298  -19.1162  -47.5238 H         1 UNK         0.0800 
    143 H143       -0.8877  -21.9255  -47.9468 H         1 UNK         0.0600 
    144 H144        0.7285  -20.8787  -45.8725 H         1 UNK         0.3000 
    145 H145       -0.3431  -23.1856  -43.3116 H         1 UNK         0.0600 
    146 H146        2.0950  -23.5229  -43.2771 H         1 UNK         0.0600 
    147 H147        1.4298  -24.2405  -44.7355 H         1 UNK         0.0600 
    148 H148        2.2758  -22.7002  -44.8251 H         1 UNK         0.0600 
    149 H149        1.4759  -21.0169  -43.1742 H         1 UNK         0.3000 
    150 H150       -0.9115  -18.5019  -42.1678 H         1 UNK         0.0600 
    151 H151        1.4129  -19.9331  -40.7730 H         1 UNK         0.0600 
    152 H152       -0.2268  -19.8000  -40.1457 H         1 UNK         0.0600 
    153 H153        0.7575  -18.3562  -40.3416 H         1 UNK         0.0600 
    154 H154        1.8719  -18.2954  -42.6004 H         1 UNK         0.3000 
    155 H155        1.8009  -17.4796  -46.0869 H         1 UNK         0.0600 
    156 H156        2.4149  -15.9135  -43.5244 H         1 UNK         0.0600 
    157 H157        1.3834  -15.3812  -44.8477 H         1 UNK         0.0600 
    158 H158        3.1057  -15.5801  -45.1133 H         1 UNK         0.0600 
    159 H159        3.9174  -17.8217  -44.1858 H         1 UNK         0.3000 
    160 H160        4.5959  -21.2588  -44.9303 H         1 UNK         0.0600 
    161 H161        6.0564  -18.6258  -45.5139 H         1 UNK         0.0600 
    162 H162        5.6454  -19.8502  -46.7089 H         1 UNK         0.0600 
    163 H163        6.7878  -20.2282  -45.4295 H         1 UNK         0.0600 
    164 H164        5.8328  -19.3797  -43.1557 H         1 UNK         0.3000 
    165 H165        3.9355  -20.2611  -40.2562 H         1 UNK         0.0600 
    166 H166        6.1868  -20.8053  -39.4142 H         1 UNK         0.0600 
    167 H167        6.8408  -20.8175  -41.0524 H         1 UNK         0.0600 
    168 H168        5.6761  -22.0388  -40.5543 H         1 UNK         0.0600 
    169 H169        6.0423  -18.5109  -40.2859 H         1 UNK         0.3000 
    170 H170        5.6426  -16.3677  -39.8280 H         1 UNK         0.0600 
    171 H171        6.3537  -16.0671  -42.2155 H         1 UNK         0.0600 
    172 H172        4.8006  -15.3337  -42.5978 H         1 UNK         0.0600 
    173 H173        5.9127  -14.5293  -41.4906 H         1 UNK         0.0600 
    174 H174        3.4903  -14.6590  -40.6319 H         1 UNK         0.3000 
    175 H175        1.0287  -15.5107  -38.4101 H         1 UNK         0.0600 
    176 H176        2.9641  -13.2625  -37.6304 H         1 UNK         0.0600 
    177 H177        1.2675  -13.3751  -37.1589 H         1 UNK         0.0600 
    178 H178        2.4227  -14.5595  -36.5722 H         1 UNK         0.0600 
    179 H179        1.6631  -13.0091  -39.6877 H         1 UNK         0.3000 
    180 H180       -0.0518  -12.5548  -41.4558 H         1 UNK         0.0600 
    181 H181        2.4364  -13.5327  -42.9939 H         1 UNK         0.0600 
    182 H182        2.4243  -12.2787  -41.7616 H         1 UNK         0.0600 
    183 H183        1.6086  -12.0078  -43.2868 H         1 UNK         0.0600 
    184 H184       -0.2743  -14.9533  -43.0090 H         1 UNK         0.3000 
    185 H185       -1.2404  -15.0076  -45.1171 H         1 UNK         0.0600 
    186 H186       -3.7398  -14.9507  -45.2684 H         1 UNK         0.0600 
    187 H187       -3.2083  -14.9895  -43.5939 H         1 UNK         0.0600 
    188 H188       -3.7762  -13.4798  -44.2970 H         1 UNK         0.0600 
    189 H189       -2.6088  -12.6950  -46.3155 H         1 UNK         0.3000 
    190 H190       -1.6354  -19.4273  -45.4738 H         1 UNK         0.3000 
    191 H191       -4.2231  -18.7743  -46.4567 H         1 UNK         0.0600 
    192 H192       -4.5255  -17.7441  -44.2118 H         1 UNK         0.0600 
    193 H193       -2.9549  -17.3356  -44.8863 H         1 UNK         0.0600 
    194 H194       -3.0792  -18.5549  -43.6223 H         1 UNK         0.0600 
    195 H195       -3.1473  -21.1837  -44.0142 H         1 UNK         0.3000 
    196 H196       -5.7262  -22.1570  -43.3219 H         1 UNK         0.0600 
    197 H197       -2.9817  -23.5132  -43.1722 H         1 UNK         0.0600 
    198 H198       -3.7247  -22.5256  -41.9165 H         1 UNK         0.0600 
    199 H199       -4.4372  -24.0710  -42.3549 H         1 UNK         0.0600 
    200 H200       -3.3754  -23.2526  -45.8036 H         1 UNK         0.3000 
    201 H201       -4.9831  -25.4249  -46.7953 H         1 UNK         0.0600 
    202 H202       -2.6701  -23.8693  -48.0768 H         1 UNK         0.0600 
    203 H203       -3.2993  -25.4131  -48.6400 H         1 UNK         0.0600 
    204 H204       -2.5096  -25.3103  -47.0736 H         1 UNK         0.0600 
    205 H205       -5.0339  -22.0106  -47.3317 H         1 UNK         0.3000 
    206 H206       -6.0798  -20.5605  -48.6156 H         1 UNK         0.0600 
    207 H207       -8.1916  -21.7614  -47.9786 H         1 UNK         0.0600 
    208 H208       -8.2883  -21.0464  -49.5797 H         1 UNK         0.0600 
    209 H209       -8.0438  -22.7789  -49.4113 H         1 UNK         0.0600 
    210 H210       -3.8115  -21.3584  -49.5292 H         1 UNK         0.3000 
    211 H211       -3.4397  -22.8970  -51.7264 H         1 UNK         0.0600 
    212 H212       -1.2780  -21.6299  -52.0215 H         1 UNK         0.0600 
    213 H213       -1.6039  -22.0225  -50.3412 H         1 UNK         0.0600 
    214 H214       -1.8754  -20.3845  -50.9378 H         1 UNK         0.0600 
    215 H215       -4.2760  -19.4352  -51.8951 H         1 UNK         0.3000 
    216 H216       -3.9461  -19.2016  -54.7432 H         1 UNK         0.0600 
    217 H217       -5.4451  -17.4313  -52.7409 H         1 UNK         0.0600 
    218 H218       -5.0408  -16.9873  -54.3954 H         1 UNK         0.0600 
    219 H219       -3.7574  -17.2568  -53.2267 H         1 UNK         0.0600 
    220 H220       -6.6620  -20.1586  -52.6816 H         1 UNK         0.3000 
    221 H221       -8.6618  -19.9846  -54.8355 H         1 UNK         0.0600 
    222 H222       -9.3009  -19.4440  -52.4836 H         1 UNK         0.0600 
    223 H223       -8.8646  -21.0762  -51.9784 H         1 UNK         0.0600 
    224 H224      -10.2025  -20.8249  -53.0902 H         1 UNK         0.0600 
    225 H225       -6.7636  -22.4164  -53.0624 H         1 UNK         0.3000 
    226 H226       -7.8139  -24.7496  -54.3508 H         1 UNK         0.0600 
    227 H227       -5.1461  -24.2666  -52.9118 H         1 UNK         0.0600 
    228 H228       -6.6504  -24.7524  -52.1342 H         1 UNK         0.0600 
    229 H229       -5.8521  -25.8397  -53.2609 H         1 UNK         0.0600 
    230 H230       -5.6839  -22.3319  -55.4716 H         1 UNK         0.3000 
    231 H231       -4.4936  -21.9353  -57.2742 H         1 UNK         0.0600 
    232 H232       -5.5555  -24.5113  -58.5436 H         1 UNK         0.0600 
    233 H233       -4.8304  -23.1446  -59.3745 H         1 UNK         0.0600 
    234 H234       -6.3838  -22.9545  -58.5788 H         1 UNK         0.0600 
    235 H235       -3.4221  -23.4165  -55.0260 H         1 UNK         0.3000 
    236 H236       -1.3425  -25.2304  -55.9308 H         1 UNK         0.0600 
    237 H237       -2.2870  -25.3056  -53.6137 H         1 UNK         0.0600 
    238 H238       -0.5538  -25.0135  -53.5835 H         1 UNK         0.0600 
    239 H239       -1.6688  -23.6839  -53.3030 H         1 UNK         0.0600 
    240 H240       -1.7397  -21.7844  -55.6995 H         1 UNK         0.3000 
    241 H241        1.0109  -20.9948  -55.9585 H         1 UNK         0.0600 
    242 H242       -0.0567  -22.0251  -59.7211 H         1 UNK         0.3800 
    243 H243       -0.9768  -22.5811  -58.3490 H         1 UNK         0.3800 
    244 H244       -1.5377  -19.4541  -56.6558 H         1 UNK         0.0800 
    245 H245        0.0555  -18.7560  -56.5607 H         1 UNK         0.0800 
    246 H246        1.4987  -18.6304  -54.3239 H         1 UNK         0.0800 
    247 H247        0.4647  -17.2449  -54.5963 H         1 UNK         0.0800 
@<TRIPOS>BOND
     1    1    2 1    
     2    1  127 1    
     3    1  128 1    
     4    1  129 1    
     5    2    3 2    
     6    2    4 am   BACKBONE|DICT|INTERRES
     7    4    5 1    
     8    4  130 1    
     9    5    6 1    
    10    5   65 1    
    11    5  131 1    
    12    6    7 1    
    13    6  132 1    
    14    6  133 1    
    15    7    8 1    
    16    8    9 1    
    17    8  134 1    
    18    8  135 1    
    19    9   10 ar   
    20    9   14 ar   
    21   10   11 ar   
    22   10  136 1    
    23   11   12 ar   
    24   11  126 1    
    25   12   13 ar   
    26   12  137 1    
    27   13   14 ar   
    28   13   15 1    
    29   14  138 1    
    30   15   16 1    
    31   15  139 1    
    32   15  140 1    
    33   16   17 1    
    34   17   18 1    
    35   17  141 1    
    36   17  142 1    
    37   18   19 1    
    38   18   67 1    
    39   18  143 1    
    40   19   20 am   BACKBONE|DICT|INTERRES
    41   19  144 1    
    42   20   21 2    
    43   20   22 1    
    44   22   23 1    
    45   22   24 1    
    46   22  145 1    
    47   23  146 1    
    48   23  147 1    
    49   23  148 1    
    50   24   25 am   BACKBONE|DICT|INTERRES
    51   24  149 1    
    52   25   26 2    
    53   25   27 1    
    54   27   28 1    
    55   27   29 1    
    56   27  150 1    
    57   28  151 1    
    58   28  152 1    
    59   28  153 1    
    60   29   30 am   BACKBONE|DICT|INTERRES
    61   29  154 1    
    62   30   31 2    
    63   30   32 1    
    64   32   33 1    
    65   32   34 1    
    66   32  155 1    
    67   33  156 1    
    68   33  157 1    
    69   33  158 1    
    70   34   35 am   BACKBONE|DICT|INTERRES
    71   34  159 1    
    72   35   36 2    
    73   35   37 1    
    74   37   38 1    
    75   37   39 1    
    76   37  160 1    
    77   38  161 1    
    78   38  162 1    
    79   38  163 1    
    80   39   40 am   BACKBONE|DICT|INTERRES
    81   39  164 1    
    82   40   41 2    
    83   40   42 1    
    84   42   43 1    
    85   42   44 1    
    86   42  165 1    
    87   43  166 1    
    88   43  167 1    
    89   43  168 1    
    90   44   45 am   BACKBONE|DICT|INTERRES
    91   44  169 1    
    92   45   46 2    
    93   45   47 1    
    94   47   48 1    
    95   47   49 1    
    96   47  170 1    
    97   48  171 1    
    98   48  172 1    
    99   48  173 1    
   100   49   50 am   BACKBONE|DICT|INTERRES
   101   49  174 1    
   102   50   51 2    
   103   50   52 1    
   104   52   53 1    
   105   52   54 1    
   106   52  175 1    
   107   53  176 1    
   108   53  177 1    
   109   53  178 1    
   110   54   55 am   BACKBONE|DICT|INTERRES
   111   54  179 1    
   112   55   56 2    
   113   55   57 1    
   114   57   58 1    
   115   57   59 1    
   116   57  180 1    
   117   58  181 1    
   118   58  182 1    
   119   58  183 1    
   120   59   60 am   BACKBONE|DICT|INTERRES
   121   59  184 1    
   122   60   61 2    
   123   60   62 1    
   124   62   63 1    
   125   62   64 1    
   126   62  185 1    
   127   63  186 1    
   128   63  187 1    
   129   63  188 1    
   130   64   65 am   BACKBONE|DICT|INTERRES
   131   64  189 1    
   132   65   66 2    
   133   67   68 2    
   134   67   69 am   BACKBONE|DICT|INTERRES
   135   69   70 1    
   136   69  190 1    
   137   70   71 1    
   138   70   72 1    
   139   70  191 1    
   140   71  192 1    
   141   71  193 1    
   142   71  194 1    
   143   72   73 2    
   144   72   74 am   BACKBONE|DICT|INTERRES
   145   74   75 1    
   146   74  195 1    
   147   75   76 1    
   148   75   77 1    
   149   75  196 1    
   150   76  197 1    
   151   76  198 1    
   152   76  199 1    
   153   77   78 2    
   154   77   79 am   BACKBONE|DICT|INTERRES
   155   79   80 1    
   156   79  200 1    
   157   80   81 1    
   158   80   82 1    
   159   80  201 1    
   160   81  202 1    
   161   81  203 1    
   162   81  204 1    
   163   82   83 2    
   164   82   84 am   BACKBONE|DICT|INTERRES
   165   84   85 1    
   166   84  205 1    
   167   85   86 1    
   168   85   87 1    
   169   85  206 1    
   170   86  207 1    
   171   86  208 1    
   172   86  209 1    
   173   87   88 2    
   174   87   89 am   BACKBONE|DICT|INTERRES
   175   89   90 1    
   176   89  210 1    
   177   90   91 1    
   178   90   92 1    
   179   90  211 1    
   180   91  212 1    
   181   91  213 1    
   182   91  214 1    
   183   92   93 2    
   184   92   94 am   BACKBONE|DICT|INTERRES
   185   94   95 1    
   186   94  215 1    
   187   95   96 1    
   188   95   97 1    
   189   95  216 1    
   190   96  217 1    
   191   96  218 1    
   192   96  219 1    
   193   97   98 2    
   194   97   99 am   BACKBONE|DICT|INTERRES
   195   99  100 1    
   196   99  220 1    
   197  100  101 1    
   198  100  102 1    
   199  100  221 1    
   200  101  222 1    
   201  101  223 1    
   202  101  224 1    
   203  102  103 2    
   204  102  104 am   BACKBONE|DICT|INTERRES
   205  104  105 1    
   206  104  225 1    
   207  105  106 1    
   208  105  107 1    
   209  105  226 1    
   210  106  227 1    
   211  106  228 1    
   212  106  229 1    
   213  107  108 2    
   214  107  109 am   BACKBONE|DICT|INTERRES
   215  109  110 1    
   216  109  230 1    
   217  110  111 1    
   218  110  112 1    
   219  110  231 1    
   220  111  232 1    
   221  111  233 1    
   222  111  234 1    
   223  112  113 2    
   224  112  114 am   BACKBONE|DICT|INTERRES
   225  114  115 1    
   226  114  235 1    
   227  115  116 1    
   228  115  117 1    
   229  115  236 1    
   230  116  237 1    
   231  116  238 1    
   232  116  239 1    
   233  117  118 2    
   234  117  119 am   BACKBONE|DICT|INTERRES
   235  119  120 1    
   236  119  240 1    
   237  120  121 1    
   238  120  124 1    
   239  120  241 1    
   240  121  122 am   BACKBONE|DICT|INTERRES
   241  121  123 2    
   242  122  242 1    
   243  122  243 1    
   244  124  125 1    
   245  124  244 1    
   246  124  245 1    
   247  125  126 1    
   248  126  246 1    
   249  126  247 1    
@<TRIPOS>SUBSTRUCTURE
     1 UNK         1 GROUP             0       ****    0 ROOT    
