@<TRIPOS>MOLECULE
3R540
247   249    1
SMALL
USER_CHARGES


@<TRIPOS>ATOM
      1 CA          1.1781  -15.1668  -51.9940 C.3       0 UNK        -0.1800 
      2 C           1.5099  -14.7412  -50.5710 C.2       0 UNK         0.5000 
      3 O           2.6554  -14.8805  -50.1418 O.2       0 UNK        -0.5000 
      4 N           0.5121  -14.2346  -49.8383 N.am      1 UNK        -0.5000 
      5 CA          0.6377  -13.7618  -48.4559 C.3       1 UNK         0.1400 
      6 C6         -0.7426  -13.4730  -47.8196 C.3       23 UNK        -0.0398 
      7 S7         -1.7255  -14.9896  -47.6651 S.3       23 UNK        -0.2404 
      8 C8         -3.3728  -14.3204  -47.2990 C.3       23 UNK        -0.0205 
      9 C9         -4.3926  -15.4209  -47.5052 C.ar      23 UNK        -0.0193 
     10 C10        -4.7961  -15.7374  -48.8013 C.ar      23 UNK        -0.1150 
     11 C11        -5.5882  -16.8598  -49.0419 C.ar      23 UNK        -0.0193 
     12 C12        -6.0504  -17.6213  -47.9647 C.ar      23 UNK        -0.1150 
     13 C13        -5.6740  -17.2951  -46.6571 C.ar      23 UNK        -0.0193 
     14 C14        -4.8461  -16.1905  -46.4322 C.ar      23 UNK        -0.1150 
     15 C15        -6.1182  -18.1626  -45.4892 C.3       23 UNK        -0.0205 
     16 S16        -5.3708  -19.8253  -45.5304 S.3       23 UNK        -0.2404 
     17 C17        -3.5760  -19.4774  -45.4618 C.3       23 UNK        -0.0398 
     18 CA         -2.8031  -20.0996  -46.6533 C.3       11 UNK         0.1400 
     19 N          -1.4668  -19.5170  -46.8069 N.am      11 UNK        -0.5000 
     20 C          -0.6104  -19.8038  -47.7994 C.2       10 UNK         0.5000 
     21 O          -0.8787  -20.5410  -48.7484 O.2       10 UNK        -0.5000 
     22 CA          0.8097  -19.2219  -47.6782 C.3       10 UNK         0.1400 
     23 CB          0.8469  -17.7523  -48.1215 C.3       10 UNK        -0.1800 
     24 N           1.3550  -19.3509  -46.3245 N.am      10 UNK        -0.5000 
     25 C           1.5804  -20.5229  -45.7116 C.2       9 UNK         0.5000 
     26 O           1.3995  -21.6164  -46.2445 O.2       9 UNK        -0.5000 
     27 CA          2.0450  -20.4759  -44.2459 C.3       9 UNK         0.1400 
     28 CB          3.5517  -20.1921  -44.1620 C.3       9 UNK        -0.1800 
     29 N           1.3064  -19.4989  -43.4458 N.am      9 UNK        -0.5000 
     30 C          -0.0108  -19.5537  -43.1992 C.2       8 UNK         0.5000 
     31 O          -0.7431  -20.4622  -43.5906 O.2       8 UNK        -0.5000 
     32 CA         -0.6260  -18.3648  -42.4369 C.3       8 UNK         0.1400 
     33 CB         -0.3632  -18.4782  -40.9284 C.3       8 UNK        -0.1800 
     34 N          -0.1410  -17.0750  -42.9301 N.am      8 UNK        -0.5000 
     35 C          -0.3292  -16.6293  -44.1805 C.2       7 UNK         0.5000 
     36 O          -0.9833  -17.2356  -45.0285 O.2       7 UNK        -0.5000 
     37 CA          0.3877  -15.3228  -44.5626 C.3       7 UNK         0.1400 
     38 CB         -0.4041  -14.0910  -44.1001 C.3       7 UNK        -0.1800 
     39 N           1.7510  -15.2745  -44.0323 N.am      7 UNK        -0.5000 
     40 C           2.7488  -16.0535  -44.4747 C.2       6 UNK         0.5000 
     41 O           2.6394  -16.8205  -45.4305 O.2       6 UNK        -0.5000 
     42 CA          4.0728  -16.0047  -43.6924 C.3       6 UNK         0.1400 
     43 CB          4.9938  -14.8999  -44.2269 C.3       6 UNK        -0.1800 
     44 N           3.8592  -15.8214  -42.2563 N.am      6 UNK        -0.5000 
     45 C           3.3827  -16.7816  -41.4513 C.2       5 UNK         0.5000 
     46 O           3.1047  -17.9146  -41.8403 O.2       5 UNK        -0.5000 
     47 CA          3.1385  -16.4171  -39.9758 C.3       5 UNK         0.1400 
     48 CB          4.3928  -16.7048  -39.1378 C.3       5 UNK        -0.1800 
     49 N           2.7301  -15.0278  -39.7689 N.am      5 UNK        -0.5000 
     50 C           1.6186  -14.4638  -40.2606 C.2       4 UNK         0.5000 
     51 O           0.8130  -15.0635  -40.9750 O.2       4 UNK        -0.5000 
     52 CA          1.3670  -12.9787  -39.9144 C.3       4 UNK         0.1400 
     53 CB          2.4253  -12.3663  -38.9687 C.3       4 UNK        -0.1800 
     54 N           1.2204  -12.1238  -41.0981 N.am      4 UNK        -0.5000 
     55 C           2.0593  -12.0304  -42.1387 C.2       3 UNK         0.5000 
     56 O           3.0432  -12.7565  -42.3079 O.2       3 UNK        -0.5000 
     57 CA          1.7561  -10.9174  -43.1517 C.3       3 UNK         0.1400 
     58 CB          2.2026   -9.5478  -42.6059 C.3       3 UNK        -0.1800 
     59 N           2.4549  -11.2119  -44.3983 N.am      3 UNK        -0.5000 
     60 C           2.1656  -10.6944  -45.5972 C.2       2 UNK         0.5000 
     61 O           1.2675   -9.8740  -45.7889 O.2       2 UNK        -0.5000 
     62 CA          2.9680  -11.2243  -46.7964 C.3       2 UNK         0.1400 
     63 CB          4.4371  -11.5441  -46.4628 C.3       2 UNK        -0.1800 
     64 N           2.2955  -12.4320  -47.2631 N.am      2 UNK        -0.5000 
     65 C           1.5157  -12.5006  -48.3477 C.2       1 UNK         0.5000 
     66 O           1.4186  -11.6075  -49.1932 O.2       1 UNK        -0.5000 
     67 C          -2.7354  -21.6391  -46.5443 C.2       11 UNK         0.5000 
     68 O          -3.4002  -22.3328  -47.3135 O.2       11 UNK        -0.5000 
     69 N          -1.9003  -22.1427  -45.6235 N.am      12 UNK        -0.5000 
     70 CA         -1.7009  -23.5699  -45.3639 C.3       12 UNK         0.1400 
     71 CB         -0.7982  -23.7420  -44.1332 C.3       12 UNK        -0.1800 
     72 C          -1.1337  -24.3506  -46.5644 C.2       12 UNK         0.5000 
     73 O          -1.5122  -25.5046  -46.7626 O.2       12 UNK        -0.5000 
     74 N          -0.2509  -23.7134  -47.3450 N.am      13 UNK        -0.5000 
     75 CA          0.3228  -24.2685  -48.5705 C.3       13 UNK         0.1400 
     76 CB          1.5108  -23.4025  -49.0169 C.3       13 UNK        -0.1800 
     77 C          -0.7059  -24.4002  -49.7084 C.2       13 UNK         0.5000 
     78 O          -0.6378  -25.3630  -50.4725 O.2       13 UNK        -0.5000 
     79 N          -1.6280  -23.4343  -49.8067 N.am      14 UNK        -0.5000 
     80 CA         -2.6909  -23.4148  -50.8098 C.3       14 UNK         0.1400 
     81 CB         -3.1731  -21.9701  -50.9887 C.3       14 UNK        -0.1800 
     82 C          -3.8653  -24.3413  -50.4463 C.2       14 UNK         0.5000 
     83 O          -4.4458  -24.9643  -51.3370 O.2       14 UNK        -0.5000 
     84 N          -4.2024  -24.4097  -49.1502 N.am      15 UNK        -0.5000 
     85 CA         -5.2879  -25.2159  -48.5917 C.3       15 UNK         0.1400 
     86 CB         -5.3573  -24.9969  -47.0722 C.3       15 UNK        -0.1800 
     87 C          -5.1459  -26.7139  -48.9212 C.2       15 UNK         0.5000 
     88 O          -4.1152  -27.3145  -48.6119 O.2       15 UNK        -0.5000 
     89 N          -6.1892  -27.2728  -49.5520 N.am      16 UNK        -0.5000 
     90 CA         -6.3000  -28.6572  -50.0318 C.3       16 UNK         0.1400 
     91 CB         -6.3108  -29.6490  -48.8490 C.3       16 UNK        -0.1800 
     92 C          -5.2647  -29.0327  -51.1179 C.2       16 UNK         0.5000 
     93 O          -4.9715  -30.2162  -51.2998 O.2       16 UNK        -0.5000 
     94 N          -4.7425  -28.0287  -51.8315 N.am      17 UNK        -0.5000 
     95 CA         -3.7719  -28.1685  -52.9098 C.3       17 UNK         0.1400 
     96 CB         -2.3453  -28.0637  -52.3319 C.3       17 UNK        -0.1800 
     97 C          -4.1031  -27.1292  -53.9944 C.2       17 UNK         0.5000 
     98 O          -5.2629  -27.0346  -54.4041 O.2       17 UNK        -0.5000 
     99 N          -3.0985  -26.3707  -54.4496 N.am      18 UNK        -0.5000 
    100 CA        -3.2382  -25.2681  -55.3970 C.3       18 UNK         0.1400 
    101 CB        -1.8570  -24.9517  -55.9973 C.3       18 UNK        -0.1800 
    102 C         -3.8579  -24.0435  -54.7005 C.2       18 UNK         0.5000 
    103 O         -3.1288  -23.1792  -54.2163 O.2       18 UNK        -0.5000 
    104 N         -5.1946  -23.9972  -54.6483 N.am      19 UNK        -0.5000 
    105 CA        -5.9919  -22.9989  -53.9254 C.3       19 UNK         0.1400 
    106 CB        -7.4781  -23.3602  -54.0676 C.3       19 UNK        -0.1800 
    107 C         -5.7512  -21.5309  -54.3384 C.2       19 UNK         0.5000 
    108 O         -6.0537  -20.6298  -53.5582 O.2       19 UNK        -0.5000 
    109 N         -5.2110  -21.3114  -55.5434 N.am      20 UNK        -0.5000 
    110 CA        -4.8311  -19.9970  -56.0586 C.3       20 UNK         0.1400 
    111 CB        -4.8113  -20.0627  -57.5938 C.3       20 UNK        -0.1800 
    112 C         -3.4712  -19.4943  -55.5301 C.2       20 UNK         0.5000 
    113 O         -3.2000  -18.2974  -55.6421 O.2       20 UNK        -0.5000 
    114 N         -2.6301  -20.3892  -54.9839 N.am      21 UNK        -0.5000 
    115 CA        -1.2401  -20.1051  -54.6005 C.3       21 UNK         0.1400 
    116 CB        -0.5318  -21.4131  -54.2150 C.3       21 UNK        -0.1800 
    117 C         -1.0804  -19.0624  -53.4785 C.2       21 UNK         0.5000 
    118 O         -0.0290  -18.4270  -53.3935 O.2       21 UNK        -0.5000 
    119 N         -2.1198  -18.8943  -52.6543 N.am      22 UNK        -0.5000 
    120 CA        -2.2022  -17.8587  -51.6172 C.3       22 UNK         0.1400 
    121 C         -2.5270  -16.4306  -52.1472 C.2       22 UNK         0.5000 
    122 N         -2.8868  -16.2493  -53.4136 N.am      22 UNK        -0.7600 
    123 O         -2.4191  -15.4611  -51.4024 O.2       22 UNK        -0.5000 
    124 C124       -3.1308  -18.2893  -50.4568 C.3       23 UNK        -0.0398 
    125 S125       -4.8407  -18.7391  -50.9468 S.3       23 UNK        -0.2404 
    126 C126       -5.8489  -17.2923  -50.4747 C.3       23 UNK        -0.0205 
    127 H127        1.9040  -14.7498  -52.6919 H         1 UNK         0.0600 
    128 H128        0.1870  -14.8289  -52.2968 H         1 UNK         0.0600 
    129 H129        1.2082  -16.2532  -52.0765 H         1 UNK         0.0600 
    130 H130       -0.4131  -14.1675  -50.2409 H         1 UNK         0.3000 
    131 H131        1.1218  -14.5590  -47.8872 H         1 UNK         0.0600 
    132 H132       -1.2945  -12.7452  -48.4175 H         1 UNK         0.0800 
    133 H133       -0.6392  -13.0394  -46.8239 H         1 UNK         0.0800 
    134 H134       -3.4022  -13.9420  -46.2762 H         1 UNK         0.0800 
    135 H135       -3.5958  -13.4809  -47.9592 H         1 UNK         0.0800 
    136 H136       -4.4108  -15.1628  -49.6323 H         1 UNK         0.1150 
    137 H137       -6.6543  -18.4992  -48.1474 H         1 UNK         0.1150 
    138 H138       -4.5153  -15.9574  -45.4298 H         1 UNK         0.1150 
    139 H139       -5.8759  -17.6878  -44.5371 H         1 UNK         0.0800 
    140 H140       -7.2040  -18.2629  -45.5133 H         1 UNK         0.0800 
    141 H141       -3.1874  -19.8335  -44.5069 H         1 UNK         0.0800 
    142 H142       -3.4230  -18.3987  -45.4506 H         1 UNK         0.0800 
    143 H143       -3.3481  -19.8584  -47.5687 H         1 UNK         0.0600 
    144 H144       -1.1737  -18.8607  -46.0881 H         1 UNK         0.3000 
    145 H145        1.4546  -19.7912  -48.3507 H         1 UNK         0.0600 
    146 H146        1.8700  -17.3783  -48.1648 H         1 UNK         0.0600 
    147 H147        0.4116  -17.6266  -49.1136 H         1 UNK         0.0600 
    148 H148        0.2908  -17.1157  -47.4353 H         1 UNK         0.0600 
    149 H149        1.5762  -18.4883  -45.8381 H         1 UNK         0.3000 
    150 H150        1.8643  -21.4607  -43.8106 H         1 UNK         0.0600 
    151 H151        4.1193  -20.9238  -44.7383 H         1 UNK         0.0600 
    152 H152        3.9061  -20.2446  -43.1325 H         1 UNK         0.0600 
    153 H153        3.7981  -19.2047  -44.5519 H         1 UNK         0.0600 
    154 H154        1.8528  -18.7500  -43.0304 H         1 UNK         0.3000 
    155 H155       -1.7061  -18.3925  -42.5948 H         1 UNK         0.0600 
    156 H156       -0.8153  -17.6483  -40.3848 H         1 UNK         0.0600 
    157 H157       -0.7873  -19.4002  -40.5291 H         1 UNK         0.0600 
    158 H158        0.7026  -18.4852  -40.7030 H         1 UNK         0.0600 
    159 H159        0.3676  -16.4893  -42.2748 H         1 UNK         0.3000 
    160 H160        0.4507  -15.2925  -45.6507 H         1 UNK         0.0600 
    161 H161       -0.4927  -14.0454  -43.0150 H         1 UNK         0.0600 
    162 H162       -1.4154  -14.1058  -44.5082 H         1 UNK         0.0600 
    163 H163        0.0688  -13.1698  -44.4380 H         1 UNK         0.0600 
    164 H164        1.9085  -14.7098  -43.2082 H         1 UNK         0.3000 
    165 H165        4.5795  -16.9597  -43.8460 H         1 UNK         0.0600 
    166 H166        5.9746  -14.9448  -43.7536 H         1 UNK         0.0600 
    167 H167        5.1466  -15.0019  -45.3022 H         1 UNK         0.0600 
    168 H168        4.5823  -13.9094  -44.0434 H         1 UNK         0.0600 
    169 H169        4.0085  -14.8924  -41.8837 H         1 UNK         0.3000 
    170 H170        2.3321  -17.0547  -39.6092 H         1 UNK         0.0600 
    171 H171        4.7091  -17.7426  -39.2520 H         1 UNK         0.0600 
    172 H172        5.2298  -16.0718  -39.4352 H         1 UNK         0.0600 
    173 H173        4.2056  -16.5390  -38.0767 H         1 UNK         0.0600 
    174 H174        3.3457  -14.4572  -39.2080 H         1 UNK         0.3000 
    175 H175        0.4080  -12.9541  -39.3951 H         1 UNK         0.0600 
    176 H176        2.4950  -12.9229  -38.0332 H         1 UNK         0.0600 
    177 H177        3.4164  -12.3418  -39.4237 H         1 UNK         0.0600 
    178 H178        2.1622  -11.3415  -38.7060 H         1 UNK         0.0600 
    179 H179        0.4195  -11.5082  -41.0791 H         1 UNK         0.3000 
    180 H180        0.6802  -10.9065  -43.3382 H         1 UNK         0.0600 
    181 H181        3.2782   -9.5209  -42.4268 H         1 UNK         0.0600 
    182 H182        1.7066   -9.3177  -41.6623 H         1 UNK         0.0600 
    183 H183        1.9596   -8.7432  -43.2998 H         1 UNK         0.0600 
    184 H184        3.1893  -11.9011  -44.2994 H         1 UNK         0.3000 
    185 H185        2.9620  -10.4476  -47.5642 H         1 UNK         0.0600 
    186 H186        4.9902  -11.7988  -47.3670 H         1 UNK         0.0600 
    187 H187        4.9332  -10.6833  -46.0125 H         1 UNK         0.0600 
    188 H188        4.5346  -12.3824  -45.7756 H         1 UNK         0.0600 
    189 H189        2.3025  -13.2117  -46.6221 H         1 UNK         0.3000 
    190 H190       -1.3915  -21.5019  -45.0188 H         1 UNK         0.3000 
    191 H191       -2.6779  -23.9969  -45.1292 H         1 UNK         0.0600 
    192 H192        0.1866  -23.3027  -44.2942 H         1 UNK         0.0600 
    193 H193       -0.6538  -24.7971  -43.8977 H         1 UNK         0.0600 
    194 H194       -1.2357  -23.2693  -43.2536 H         1 UNK         0.0600 
    195 H195        0.0763  -22.7935  -47.0641 H         1 UNK         0.3000 
    196 H196        0.6986  -25.2689  -48.3457 H         1 UNK         0.0600 
    197 H197        1.9620  -23.7964  -49.9284 H         1 UNK         0.0600 
    198 H198        2.2887  -23.3775  -48.2537 H         1 UNK         0.0600 
    199 H199        1.2060  -22.3748  -49.2176 H         1 UNK         0.0600 
    200 H200       -1.5992  -22.6597  -49.1540 H         1 UNK         0.3000 
    201 H201       -2.2782  -23.7545  -51.7616 H         1 UNK         0.0600 
    202 H202       -2.3456  -21.3177  -51.2641 H         1 UNK         0.0600 
    203 H203       -3.6177  -21.5773  -50.0735 H         1 UNK         0.0600 
    204 H204       -3.9209  -21.8978  -51.7777 H         1 UNK         0.0600 
    205 H205       -3.7016  -23.8198  -48.4917 H         1 UNK         0.3000 
    206 H206       -6.2181  -24.8457  -49.0270 H         1 UNK         0.0600 
    207 H207       -5.5611  -23.9533  -46.8319 H         1 UNK         0.0600 
    208 H208       -6.1534  -25.5940  -46.6259 H         1 UNK         0.0600 
    209 H209       -4.4225  -25.2771  -46.5851 H         1 UNK         0.0600 
    210 H210       -6.9801  -26.6830  -49.7714 H         1 UNK         0.3000 
    211 H211       -7.2731  -28.7256  -50.5197 H         1 UNK         0.0600 
    212 H212       -5.3411  -29.7000  -48.3534 H         1 UNK         0.0600 
    213 H213       -6.5580  -30.6568  -49.1846 H         1 UNK         0.0600 
    214 H214       -7.0545  -29.3667  -48.1039 H         1 UNK         0.0600 
    215 H215       -5.0309  -27.0767  -51.6342 H         1 UNK         0.3000 
    216 H216       -3.8831  -29.1464  -53.3822 H         1 UNK         0.0600 
    217 H217       -2.1717  -27.0913  -51.8698 H         1 UNK         0.0600 
    218 H218       -1.5880  -28.2161  -53.1015 H         1 UNK         0.0600 
    219 H219       -2.1777  -28.8227  -51.5674 H         1 UNK         0.0600 
    220 H220       -2.1855  -26.4882  -54.0353 H         1 UNK         0.3000 
    221 H221       -3.8973  -25.5739  -56.2123 H         1 UNK         0.0600 
    222 H222       -1.4645  -25.8043  -56.5516 H         1 UNK         0.0600 
    223 H223       -1.1298  -24.6905  -55.2272 H         1 UNK         0.0600 
    224 H224       -1.9160  -24.1121  -56.6910 H         1 UNK         0.0600 
    225 H225       -5.7044  -24.7880  -55.0193 H         1 UNK         0.3000 
    226 H226       -5.7273  -23.0780  -52.8700 H         1 UNK         0.0600 
    227 H227       -7.6804  -24.3570  -53.6750 H         1 UNK         0.0600 
    228 H228       -8.1067  -22.6614  -53.5139 H         1 UNK         0.0600 
    229 H229       -7.7986  -23.3365  -55.1099 H         1 UNK         0.0600 
    230 H230       -4.9966  -22.1092  -56.1228 H         1 UNK         0.3000 
    231 H231       -5.5873  -19.2675  -55.7609 H         1 UNK         0.0600 
    232 H232       -4.0732  -20.7791  -57.9568 H         1 UNK         0.0600 
    233 H233       -4.5649  -19.0911  -58.0244 H         1 UNK         0.0600 
    234 H234       -5.7850  -20.3532  -57.9889 H         1 UNK         0.0600 
    235 H235       -2.9355  -21.3506  -54.8616 H         1 UNK         0.3000 
    236 H236       -0.7393  -19.7018  -55.4830 H         1 UNK         0.0600 
    237 H237       -0.5798  -22.1423  -55.0236 H         1 UNK         0.0600 
    238 H238        0.5227  -21.2380  -53.9984 H         1 UNK         0.0600 
    239 H239       -0.9759  -21.8645  -53.3273 H         1 UNK         0.0600 
    240 H240       -2.9558  -19.4406  -52.8044 H         1 UNK         0.3000 
    241 H241       -1.2055  -17.7679  -51.1807 H         1 UNK         0.0600 
    242 H242       -3.0802  -15.3161  -53.7390 H         1 UNK         0.3800 
    243 H243       -2.9567  -17.0273  -54.0600 H         1 UNK         0.3800 
    244 H244       -3.1156  -17.5442  -49.6645 H         1 UNK         0.0800 
    245 H245       -2.7084  -19.1784  -49.9922 H         1 UNK         0.0800 
    246 H246       -5.6424  -16.4761  -51.1689 H         1 UNK         0.0800 
    247 H247       -6.9045  -17.5389  -50.5954 H         1 UNK         0.0800 
@<TRIPOS>BOND
     1    1    2 1    
     2    1  127 1    
     3    1  128 1    
     4    1  129 1    
     5    2    3 2    
     6    2    4 am   BACKBONE|DICT|INTERRES
     7    4    5 1    
     8    4  130 1    
     9    5    6 1    
    10    5   65 1    
    11    5  131 1    
    12    6    7 1    
    13    6  132 1    
    14    6  133 1    
    15    7    8 1    
    16    8    9 1    
    17    8  134 1    
    18    8  135 1    
    19    9   10 ar   
    20    9   14 ar   
    21   10   11 ar   
    22   10  136 1    
    23   11   12 ar   
    24   11  126 1    
    25   12   13 ar   
    26   12  137 1    
    27   13   14 ar   
    28   13   15 1    
    29   14  138 1    
    30   15   16 1    
    31   15  139 1    
    32   15  140 1    
    33   16   17 1    
    34   17   18 1    
    35   17  141 1    
    36   17  142 1    
    37   18   19 1    
    38   18   67 1    
    39   18  143 1    
    40   19   20 am   BACKBONE|DICT|INTERRES
    41   19  144 1    
    42   20   21 2    
    43   20   22 1    
    44   22   23 1    
    45   22   24 1    
    46   22  145 1    
    47   23  146 1    
    48   23  147 1    
    49   23  148 1    
    50   24   25 am   BACKBONE|DICT|INTERRES
    51   24  149 1    
    52   25   26 2    
    53   25   27 1    
    54   27   28 1    
    55   27   29 1    
    56   27  150 1    
    57   28  151 1    
    58   28  152 1    
    59   28  153 1    
    60   29   30 am   BACKBONE|DICT|INTERRES
    61   29  154 1    
    62   30   31 2    
    63   30   32 1    
    64   32   33 1    
    65   32   34 1    
    66   32  155 1    
    67   33  156 1    
    68   33  157 1    
    69   33  158 1    
    70   34   35 am   BACKBONE|DICT|INTERRES
    71   34  159 1    
    72   35   36 2    
    73   35   37 1    
    74   37   38 1    
    75   37   39 1    
    76   37  160 1    
    77   38  161 1    
    78   38  162 1    
    79   38  163 1    
    80   39   40 am   BACKBONE|DICT|INTERRES
    81   39  164 1    
    82   40   41 2    
    83   40   42 1    
    84   42   43 1    
    85   42   44 1    
    86   42  165 1    
    87   43  166 1    
    88   43  167 1    
    89   43  168 1    
    90   44   45 am   BACKBONE|DICT|INTERRES
    91   44  169 1    
    92   45   46 2    
    93   45   47 1    
    94   47   48 1    
    95   47   49 1    
    96   47  170 1    
    97   48  171 1    
    98   48  172 1    
    99   48  173 1    
   100   49   50 am   BACKBONE|DICT|INTERRES
   101   49  174 1    
   102   50   51 2    
   103   50   52 1    
   104   52   53 1    
   105   52   54 1    
   106   52  175 1    
   107   53  176 1    
   108   53  177 1    
   109   53  178 1    
   110   54   55 am   BACKBONE|DICT|INTERRES
   111   54  179 1    
   112   55   56 2    
   113   55   57 1    
   114   57   58 1    
   115   57   59 1    
   116   57  180 1    
   117   58  181 1    
   118   58  182 1    
   119   58  183 1    
   120   59   60 am   BACKBONE|DICT|INTERRES
   121   59  184 1    
   122   60   61 2    
   123   60   62 1    
   124   62   63 1    
   125   62   64 1    
   126   62  185 1    
   127   63  186 1    
   128   63  187 1    
   129   63  188 1    
   130   64   65 am   BACKBONE|DICT|INTERRES
   131   64  189 1    
   132   65   66 2    
   133   67   68 2    
   134   67   69 am   BACKBONE|DICT|INTERRES
   135   69   70 1    
   136   69  190 1    
   137   70   71 1    
   138   70   72 1    
   139   70  191 1    
   140   71  192 1    
   141   71  193 1    
   142   71  194 1    
   143   72   73 2    
   144   72   74 am   BACKBONE|DICT|INTERRES
   145   74   75 1    
   146   74  195 1    
   147   75   76 1    
   148   75   77 1    
   149   75  196 1    
   150   76  197 1    
   151   76  198 1    
   152   76  199 1    
   153   77   78 2    
   154   77   79 am   BACKBONE|DICT|INTERRES
   155   79   80 1    
   156   79  200 1    
   157   80   81 1    
   158   80   82 1    
   159   80  201 1    
   160   81  202 1    
   161   81  203 1    
   162   81  204 1    
   163   82   83 2    
   164   82   84 am   BACKBONE|DICT|INTERRES
   165   84   85 1    
   166   84  205 1    
   167   85   86 1    
   168   85   87 1    
   169   85  206 1    
   170   86  207 1    
   171   86  208 1    
   172   86  209 1    
   173   87   88 2    
   174   87   89 am   BACKBONE|DICT|INTERRES
   175   89   90 1    
   176   89  210 1    
   177   90   91 1    
   178   90   92 1    
   179   90  211 1    
   180   91  212 1    
   181   91  213 1    
   182   91  214 1    
   183   92   93 2    
   184   92   94 am   BACKBONE|DICT|INTERRES
   185   94   95 1    
   186   94  215 1    
   187   95   96 1    
   188   95   97 1    
   189   95  216 1    
   190   96  217 1    
   191   96  218 1    
   192   96  219 1    
   193   97   98 2    
   194   97   99 am   BACKBONE|DICT|INTERRES
   195   99  100 1    
   196   99  220 1    
   197  100  101 1    
   198  100  102 1    
   199  100  221 1    
   200  101  222 1    
   201  101  223 1    
   202  101  224 1    
   203  102  103 2    
   204  102  104 am   BACKBONE|DICT|INTERRES
   205  104  105 1    
   206  104  225 1    
   207  105  106 1    
   208  105  107 1    
   209  105  226 1    
   210  106  227 1    
   211  106  228 1    
   212  106  229 1    
   213  107  108 2    
   214  107  109 am   BACKBONE|DICT|INTERRES
   215  109  110 1    
   216  109  230 1    
   217  110  111 1    
   218  110  112 1    
   219  110  231 1    
   220  111  232 1    
   221  111  233 1    
   222  111  234 1    
   223  112  113 2    
   224  112  114 am   BACKBONE|DICT|INTERRES
   225  114  115 1    
   226  114  235 1    
   227  115  116 1    
   228  115  117 1    
   229  115  236 1    
   230  116  237 1    
   231  116  238 1    
   232  116  239 1    
   233  117  118 2    
   234  117  119 am   BACKBONE|DICT|INTERRES
   235  119  120 1    
   236  119  240 1    
   237  120  121 1    
   238  120  124 1    
   239  120  241 1    
   240  121  122 am   BACKBONE|DICT|INTERRES
   241  121  123 2    
   242  122  242 1    
   243  122  243 1    
   244  124  125 1    
   245  124  244 1    
   246  124  245 1    
   247  125  126 1    
   248  126  246 1    
   249  126  247 1    
@<TRIPOS>SUBSTRUCTURE
     1 UNK         1 GROUP             0       ****    0 ROOT    
