@<TRIPOS>MOLECULE
3R540
247   249    1
SMALL
USER_CHARGES


@<TRIPOS>ATOM
      1 CA          0.0887   -9.7953  -51.5209 C.3       0 UNK        -0.1800 
      2 C           1.2089   -9.9237  -50.4979 C.2       0 UNK         0.5000 
      3 O           1.8610   -8.9303  -50.1740 O.2       0 UNK        -0.5000 
      4 N           1.4381  -11.1427  -49.9972 N.am      1 UNK        -0.5000 
      5 CA          2.4092  -11.4507  -48.9439 C.3       1 UNK         0.1400 
      6 C6          2.8707  -12.9306  -49.0088 C.3       23 UNK        -0.0398 
      7 S7          1.5347  -14.1611  -48.7970 S.3       23 UNK        -0.2404 
      8 C8          1.4337  -14.8534  -50.4751 C.3       23 UNK        -0.0205 
      9 C9          0.4521  -16.0113  -50.5265 C.ar      23 UNK        -0.0193 
     10 C10        -0.8899  -15.7899  -50.8486 C.ar      23 UNK        -0.1150 
     11 C11        -1.7924  -16.8569  -50.8973 C.ar      23 UNK        -0.0193 
     12 C12        -1.3434  -18.1508  -50.6128 C.ar      23 UNK        -0.1150 
     13 C13        -0.0058  -18.3822  -50.2780 C.ar      23 UNK        -0.0193 
     14 C14         0.8892  -17.3090  -50.2497 C.ar      23 UNK        -0.1150 
     15 C15         0.4721  -19.7886  -49.9518 C.3       23 UNK        -0.0205 
     16 S16         1.1290  -19.8991  -48.2558 S.3       23 UNK        -0.2404 
     17 C17         1.0043  -21.6922  -47.9511 C.3       23 UNK        -0.0398 
     18 CA         -0.1905  -22.1435  -47.0718 C.3       11 UNK         0.1400 
     19 N           0.0143  -21.9331  -45.6360 N.am      11 UNK        -0.5000 
     20 C          -0.6809  -22.6035  -44.7034 C.2       10 UNK         0.5000 
     21 O          -1.5337  -23.4505  -44.9726 O.2       10 UNK        -0.5000 
     22 CA         -0.4097  -22.2620  -43.2294 C.3       10 UNK         0.1400 
     23 CB          0.8905  -22.9223  -42.7475 C.3       10 UNK        -0.1800 
     24 N          -0.3675  -20.8233  -42.9740 N.am      10 UNK        -0.5000 
     25 C          -1.4049  -19.9902  -43.1430 C.2       9 UNK         0.5000 
     26 O          -2.5181  -20.3523  -43.5232 O.2       9 UNK        -0.5000 
     27 CA         -1.1450  -18.4955  -42.8826 C.3       9 UNK         0.1400 
     28 CB         -1.1487  -18.1932  -41.3765 C.3       9 UNK        -0.1800 
     29 N           0.1125  -18.0402  -43.4713 N.am      9 UNK        -0.5000 
     30 C           0.3885  -18.0544  -44.7823 C.2       8 UNK         0.5000 
     31 O          -0.4165  -18.4028  -45.6436 O.2       8 UNK        -0.5000 
     32 CA          1.8223  -17.6748  -45.1893 C.3       8 UNK         0.1400 
     33 CB          2.0112  -16.1518  -45.2245 C.3       8 UNK        -0.1800 
     34 N           2.8141  -18.2751  -44.2984 N.am      8 UNK        -0.5000 
     35 C           3.0806  -19.5875  -44.2376 C.2       7 UNK         0.5000 
     36 O           2.5332  -20.4359  -44.9431 O.2       7 UNK        -0.5000 
     37 CA          4.1112  -20.0263  -43.1815 C.3       7 UNK         0.1400 
     38 CB          5.5423  -19.8304  -43.7040 C.3       7 UNK        -0.1800 
     39 N           3.9547  -19.3136  -41.9120 N.am      7 UNK        -0.5000 
     40 C           2.9042  -19.4620  -41.0933 C.2       6 UNK         0.5000 
     41 O           1.9641  -20.2225  -41.3185 O.2       6 UNK        -0.5000 
     42 CA          2.8779  -18.5834  -39.8296 C.3       6 UNK         0.1400 
     43 CB          3.7224  -19.2161  -38.7134 C.3       6 UNK        -0.1800 
     44 N           3.3171  -17.2018  -40.0501 N.am      6 UNK        -0.5000 
     45 C           2.7441  -16.3470  -40.9074 C.2       5 UNK         0.5000 
     46 O           1.8560  -16.6647  -41.6998 O.2       5 UNK        -0.5000 
     47 CA          3.2689  -14.9014  -40.8986 C.3       5 UNK         0.1400 
     48 CB          4.3293  -14.7123  -41.9940 C.3       5 UNK        -0.1800 
     49 N           2.1773  -13.9487  -41.1064 N.am      5 UNK        -0.5000 
     50 C           1.2110  -13.7020  -40.2070 C.2       4 UNK         0.5000 
     51 O           1.2082  -14.1787  -39.0707 O.2       4 UNK        -0.5000 
     52 CA          0.0580  -12.7620  -40.6195 C.3       4 UNK         0.1400 
     53 CB          0.2645  -11.3637  -40.0166 C.3       4 UNK        -0.1800 
     54 N          -0.0990  -12.6284  -42.0666 N.am      4 UNK        -0.5000 
     55 C          -0.5633  -13.5806  -42.8865 C.2       3 UNK         0.5000 
     56 O          -1.0321  -14.6478  -42.4927 O.2       3 UNK        -0.5000 
     57 CA         -0.4885  -13.3008  -44.4033 C.3       3 UNK         0.1400 
     58 CB         -1.8888  -13.0226  -44.9706 C.3       3 UNK        -0.1800 
     59 N           0.4039  -12.2022  -44.7961 N.am      3 UNK        -0.5000 
     60 C           1.7195  -12.1216  -44.5583 C.2       2 UNK         0.5000 
     61 O           2.3493  -12.9672  -43.9231 O.2       2 UNK        -0.5000 
     62 CA          2.4429  -10.8882  -45.1342 C.3       2 UNK         0.1400 
     63 CB          3.7412  -10.5697  -44.3712 C.3       2 UNK        -0.1800 
     64 N           2.7614  -11.0856  -46.5468 N.am      2 UNK        -0.5000 
     65 C           1.8706  -11.0666  -47.5467 C.2       1 UNK         0.5000 
     66 O           0.6787  -10.7837  -47.3871 O.2       1 UNK        -0.5000 
     67 C          -1.5619  -21.6140  -47.5456 C.2       11 UNK         0.5000 
     68 O          -2.1850  -22.2619  -48.3840 O.2       11 UNK        -0.5000 
     69 N          -2.0356  -20.4938  -46.9780 N.am      12 UNK        -0.5000 
     70 CA         -3.3667  -19.9398  -47.2348 C.3       12 UNK         0.1400 
     71 CB         -3.4804  -18.5386  -46.6185 C.3       12 UNK        -0.1800 
     72 C          -4.4932  -20.8560  -46.7235 C.2       12 UNK         0.5000 
     73 O          -5.4863  -21.0423  -47.4254 O.2       12 UNK        -0.5000 
     74 N          -4.3062  -21.4647  -45.5431 N.am      13 UNK        -0.5000 
     75 CA         -5.2122  -22.4726  -44.9818 C.3       13 UNK         0.1400 
     76 CB         -4.7913  -22.8002  -43.5415 C.3       13 UNK        -0.1800 
     77 C          -5.2882  -23.7547  -45.8363 C.2       13 UNK         0.5000 
     78 O          -6.3492  -24.3747  -45.9124 O.2       13 UNK        -0.5000 
     79 N          -4.1752  -24.1002  -46.4961 N.am      14 UNK        -0.5000 
     80 CA         -4.0705  -25.1847  -47.4730 C.3       14 UNK         0.1400 
     81 CB         -2.6195  -25.6954  -47.4796 C.3       14 UNK        -0.1800 
     82 C          -4.5074  -24.7715  -48.8963 C.2       14 UNK         0.5000 
     83 O          -4.4254  -25.6009  -49.8030 O.2       14 UNK        -0.5000 
     84 N          -4.9182  -23.5070  -49.0878 N.am      15 UNK        -0.5000 
     85 CA         -5.3035  -22.8678  -50.3535 C.3       15 UNK         0.1400 
     86 CB         -6.6454  -23.4368  -50.8572 C.3       15 UNK        -0.1800 
     87 C          -4.1960  -22.9216  -51.4279 C.2       15 UNK         0.5000 
     88 O          -4.4906  -23.0635  -52.6149 O.2       15 UNK        -0.5000 
     89 N          -2.9315  -22.8460  -50.9883 N.am      16 UNK        -0.5000 
     90 CA         -1.7088  -22.9916  -51.7825 C.3       16 UNK         0.1400 
     91 CB         -1.5478  -21.8007  -52.7476 C.3       16 UNK        -0.1800 
     92 C          -1.5954  -24.3653  -52.4841 C.2       16 UNK         0.5000 
     93 O          -0.9376  -24.4755  -53.5210 O.2       16 UNK        -0.5000 
     94 N          -2.2382  -25.3900  -51.9011 N.am      17 UNK        -0.5000 
     95 CA         -2.3329  -26.7684  -52.3793 C.3       17 UNK         0.1400 
     96 CB         -0.9689  -27.4819  -52.2391 C.3       17 UNK        -0.1800 
     97 C          -2.9503  -26.8337  -53.7921 C.2       17 UNK         0.5000 
     98 O          -4.0952  -26.4152  -53.9715 O.2       17 UNK        -0.5000 
     99 N          -2.1893  -27.3432  -54.7687 N.am      18 UNK        -0.5000 
    100 CA        -2.6029  -27.5143  -56.1619 C.3       18 UNK         0.1400 
    101 CB        -1.5600  -28.3851  -56.8801 C.3       18 UNK        -0.1800 
    102 C         -2.8244  -26.1957  -56.9306 C.2       18 UNK         0.5000 
    103 O         -3.4909  -26.2190  -57.9664 O.2       18 UNK        -0.5000 
    104 N         -2.2677  -25.0787  -56.4372 N.am      19 UNK        -0.5000 
    105 CA        -2.3996  -23.7608  -57.0632 C.3       19 UNK         0.1400 
    106 CB        -1.3119  -22.8225  -56.5226 C.3       19 UNK        -0.1800 
    107 C         -3.8000  -23.1368  -56.8984 C.2       19 UNK         0.5000 
    108 O         -4.1817  -22.3200  -57.7375 O.2       19 UNK        -0.5000 
    109 N         -4.5367  -23.5401  -55.8488 N.am      20 UNK        -0.5000 
    110 CA        -5.9069  -23.1267  -55.5161 C.3       20 UNK         0.1400 
    111 CB        -6.9032  -23.7323  -56.5270 C.3       20 UNK        -0.1800 
    112 C         -6.0503  -21.5948  -55.3690 C.2       20 UNK         0.5000 
    113 O         -6.9009  -20.9848  -56.0214 O.2       20 UNK        -0.5000 
    114 N         -5.1879  -21.0004  -54.5372 N.am      21 UNK        -0.5000 
    115 CA        -5.0983  -19.5619  -54.3056 C.3       21 UNK         0.1400 
    116 CB        -3.7016  -19.0707  -54.7213 C.3       21 UNK        -0.1800 
    117 C         -5.3654  -19.2664  -52.8239 C.2       21 UNK         0.5000 
    118 O         -4.6761  -19.8174  -51.9655 O.2       21 UNK        -0.5000 
    119 N         -6.3390  -18.3816  -52.5718 N.am      22 UNK        -0.5000 
    120 CA        -6.8201  -17.9273  -51.2549 C.3       22 UNK         0.1400 
    121 C         -7.1700  -19.0724  -50.2517 C.2       22 UNK         0.5000 
    122 N         -6.9565  -18.8947  -48.9559 N.am      22 UNK        -0.7600 
    123 O         -7.7013  -20.1090  -50.6431 O.2       22 UNK        -0.5000 
    124 C124       -6.0065  -16.7209  -50.6903 C.3       23 UNK        -0.0398 
    125 S125       -4.3823  -17.0964  -49.9403 S.3       23 UNK        -0.2404 
    126 C126       -3.2458  -16.6169  -51.2774 C.3       23 UNK        -0.0205 
    127 H127        0.4814   -9.4090  -52.4615 H         1 UNK         0.0600 
    128 H128       -0.3899  -10.7544  -51.7208 H         1 UNK         0.0600 
    129 H129       -0.6726   -9.1047  -51.1583 H         1 UNK         0.0600 
    130 H130        0.8352  -11.9082  -50.2602 H         1 UNK         0.3000 
    131 H131        3.2938  -10.8334  -49.1158 H         1 UNK         0.0600 
    132 H132        3.3736  -13.1045  -49.9610 H         1 UNK         0.0800 
    133 H133        3.6303  -13.1292  -48.2512 H         1 UNK         0.0800 
    134 H134        1.1365  -14.0741  -51.1783 H         1 UNK         0.0800 
    135 H135        2.4211  -15.1951  -50.7899 H         1 UNK         0.0800 
    136 H136       -1.2290  -14.7862  -51.0631 H         1 UNK         0.1150 
    137 H137       -2.0453  -18.9733  -50.6451 H         1 UNK         0.1150 
    138 H138        1.9246  -17.4834  -49.9924 H         1 UNK         0.1150 
    139 H139        1.2453  -20.0853  -50.6616 H         1 UNK         0.0800 
    140 H140       -0.3488  -20.4971  -50.0694 H         1 UNK         0.0800 
    141 H141        1.9384  -22.0179  -47.4914 H         1 UNK         0.0800 
    142 H142        0.9644  -22.2089  -48.9113 H         1 UNK         0.0800 
    143 H143       -0.2377  -23.2267  -47.2054 H         1 UNK         0.0600 
    144 H144        0.7214  -21.2579  -45.3604 H         1 UNK         0.3000 
    145 H145       -1.2321  -22.6751  -42.6415 H         1 UNK         0.0600 
    146 H146        1.0262  -22.7865  -41.6746 H         1 UNK         0.0600 
    147 H147        0.8786  -23.9960  -42.9388 H         1 UNK         0.0600 
    148 H148        1.7644  -22.5080  -43.2507 H         1 UNK         0.0600 
    149 H149        0.5059  -20.4544  -42.6099 H         1 UNK         0.3000 
    150 H150       -1.9536  -17.9271  -43.3467 H         1 UNK         0.0600 
    151 H151       -0.3471  -18.7189  -40.8574 H         1 UNK         0.0600 
    152 H152       -2.0918  -18.4955  -40.9199 H         1 UNK         0.0600 
    153 H153       -1.0222  -17.1267  -41.1891 H         1 UNK         0.0600 
    154 H154        0.8133  -17.6794  -42.8270 H         1 UNK         0.3000 
    155 H155        2.0017  -18.0541  -46.1961 H         1 UNK         0.0600 
    156 H156        1.8027  -15.6948  -44.2567 H         1 UNK         0.0600 
    157 H157        1.3423  -15.6998  -45.9573 H         1 UNK         0.0600 
    158 H158        3.0281  -15.8827  -45.5100 H         1 UNK         0.0600 
    159 H159        3.2602  -17.6588  -43.6360 H         1 UNK         0.3000 
    160 H160        3.9612  -21.0918  -42.9939 H         1 UNK         0.0600 
    161 H161        5.7665  -18.7785  -43.8851 H         1 UNK         0.0600 
    162 H162        5.6902  -20.3643  -44.6438 H         1 UNK         0.0600 
    163 H163        6.2765  -20.2134  -42.9951 H         1 UNK         0.0600 
    164 H164        4.6811  -18.6618  -41.6550 H         1 UNK         0.3000 
    165 H165        1.8421  -18.5425  -39.4863 H         1 UNK         0.0600 
    166 H166        3.6213  -18.6625  -37.7798 H         1 UNK         0.0600 
    167 H167        4.7809  -19.2446  -38.9748 H         1 UNK         0.0600 
    168 H168        3.4050  -20.2412  -38.5170 H         1 UNK         0.0600 
    169 H169        4.0535  -16.8662  -39.4462 H         1 UNK         0.3000 
    170 H170        3.7277  -14.6918  -39.9301 H         1 UNK         0.0600 
    171 H171        5.1905  -15.3584  -41.8205 H         1 UNK         0.0600 
    172 H172        3.9349  -14.9510  -42.9824 H         1 UNK         0.0600 
    173 H173        4.6921  -13.6846  -42.0197 H         1 UNK         0.0600 
    174 H174        2.0999  -13.5565  -42.0396 H         1 UNK         0.3000 
    175 H175       -0.8657  -13.1782  -40.2120 H         1 UNK         0.0600 
    176 H176        1.1707  -10.8912  -40.3979 H         1 UNK         0.0600 
    177 H177       -0.5773  -10.7084  -40.2411 H         1 UNK         0.0600 
    178 H178        0.3533  -11.4153  -38.9306 H         1 UNK         0.0600 
    179 H179        0.2564  -11.7812  -42.4832 H         1 UNK         0.3000 
    180 H180       -0.1131  -14.2096  -44.8734 H         1 UNK         0.0600 
    181 H181       -2.3129  -12.1056  -44.5597 H         1 UNK         0.0600 
    182 H182       -2.5760  -13.8370  -44.7372 H         1 UNK         0.0600 
    183 H183       -1.8618  -12.9247  -46.0562 H         1 UNK         0.0600 
    184 H184       -0.0013  -11.4934  -45.3954 H         1 UNK         0.3000 
    185 H185        1.7789  -10.0267  -45.0357 H         1 UNK         0.0600 
    186 H186        4.2024   -9.6548  -44.7435 H         1 UNK         0.0600 
    187 H187        3.5429  -10.4238  -43.3086 H         1 UNK         0.0600 
    188 H188        4.4728  -11.3740  -44.4605 H         1 UNK         0.0600 
    189 H189        3.7180  -11.3385  -46.7479 H         1 UNK         0.3000 
    190 H190       -1.4404  -19.9682  -46.3441 H         1 UNK         0.3000 
    191 H191       -3.4856  -19.8419  -48.3164 H         1 UNK         0.0600 
    192 H192       -4.4689  -18.1129  -46.7944 H         1 UNK         0.0600 
    193 H193       -2.7521  -17.8578  -47.0602 H         1 UNK         0.0600 
    194 H194       -3.3146  -18.5561  -45.5411 H         1 UNK         0.0600 
    195 H195       -3.4945  -21.2182  -44.9833 H         1 UNK         0.3000 
    196 H196       -6.2138  -22.0388  -44.9513 H         1 UNK         0.0600 
    197 H197       -3.7828  -23.2117  -43.4994 H         1 UNK         0.0600 
    198 H198       -4.8155  -21.9104  -42.9123 H         1 UNK         0.0600 
    199 H199       -5.4642  -23.5330  -43.0945 H         1 UNK         0.0600 
    200 H200       -3.3360  -23.5563  -46.3363 H         1 UNK         0.3000 
    201 H201       -4.7167  -26.0078  -47.1617 H         1 UNK         0.0600 
    202 H202       -1.9266  -24.9337  -47.8365 H         1 UNK         0.0600 
    203 H203       -2.5112  -26.5657  -48.1281 H         1 UNK         0.0600 
    204 H204       -2.3015  -25.9947  -46.4806 H         1 UNK         0.0600 
    205 H205       -4.9320  -22.8880  -48.2862 H         1 UNK         0.3000 
    206 H206       -5.4536  -21.8112  -50.1283 H         1 UNK         0.0600 
    207 H207       -7.4137  -23.3709  -50.0870 H         1 UNK         0.0600 
    208 H208       -7.0057  -22.8746  -51.7197 H         1 UNK         0.0600 
    209 H209       -6.5552  -24.4808  -51.1587 H         1 UNK         0.0600 
    210 H210       -2.7830  -22.7042  -49.9891 H         1 UNK         0.3000 
    211 H211       -0.8833  -22.9512  -51.0708 H         1 UNK         0.0600 
    212 H212       -0.5781  -21.8238  -53.2457 H         1 UNK         0.0600 
    213 H213       -1.6173  -20.8515  -52.2175 H         1 UNK         0.0600 
    214 H214       -2.3178  -21.8031  -53.5181 H         1 UNK         0.0600 
    215 H215       -2.8276  -25.1831  -51.1025 H         1 UNK         0.3000 
    216 H216       -3.0381  -27.2740  -51.7182 H         1 UNK         0.0600 
    217 H217       -0.1943  -27.0227  -52.8542 H         1 UNK         0.0600 
    218 H218       -1.0426  -28.5331  -52.5208 H         1 UNK         0.0600 
    219 H219       -0.6239  -27.4542  -51.2054 H         1 UNK         0.0600 
    220 H220       -1.2506  -27.6357  -54.5392 H         1 UNK         0.3000 
    221 H221       -3.5539  -28.0510  -56.1641 H         1 UNK         0.0600 
    222 H222       -1.4564  -29.3571  -56.3974 H         1 UNK         0.0600 
    223 H223       -0.5789  -27.9085  -56.8926 H         1 UNK         0.0600 
    224 H224       -1.8487  -28.5685  -57.9160 H         1 UNK         0.0600 
    225 H225       -1.7439  -25.1264  -55.5714 H         1 UNK         0.3000 
    226 H226       -2.2257  -23.8782  -58.1351 H         1 UNK         0.0600 
    227 H227       -1.4128  -22.6716  -55.4506 H         1 UNK         0.0600 
    228 H228       -0.3154  -23.2214  -56.7122 H         1 UNK         0.0600 
    229 H229       -1.3675  -21.8425  -56.9982 H         1 UNK         0.0600 
    230 H230       -4.1234  -24.2043  -55.2071 H         1 UNK         0.3000 
    231 H231       -6.1389  -23.5582  -54.5422 H         1 UNK         0.0600 
    232 H232       -6.7551  -23.3353  -57.5317 H         1 UNK         0.0600 
    233 H233       -7.9324  -23.5168  -56.2375 H         1 UNK         0.0600 
    234 H234       -6.8008  -24.8164  -56.5774 H         1 UNK         0.0600 
    235 H235       -4.6170  -21.5891  -53.9364 H         1 UNK         0.3000 
    236 H236       -5.8333  -19.0276  -54.9110 H         1 UNK         0.0600 
    237 H237       -3.4952  -19.3089  -55.7650 H         1 UNK         0.0600 
    238 H238       -3.6217  -17.9887  -54.6116 H         1 UNK         0.0600 
    239 H239       -2.9151  -19.5194  -54.1144 H         1 UNK         0.0600 
    240 H240       -6.8523  -18.0104  -53.3580 H         1 UNK         0.3000 
    241 H241       -7.8031  -17.5149  -51.4854 H         1 UNK         0.0600 
    242 H242       -6.4905  -18.0677  -48.6199 H         1 UNK         0.3800 
    243 H243       -7.1255  -19.6647  -48.3252 H         1 UNK         0.3800 
    244 H244       -5.8716  -15.9747  -51.4742 H         1 UNK         0.0800 
    245 H245       -6.6007  -16.2154  -49.9278 H         1 UNK         0.0800 
    246 H246       -3.4723  -17.1893  -52.1760 H         1 UNK         0.0800 
    247 H247       -3.4113  -15.5676  -51.5260 H         1 UNK         0.0800 
@<TRIPOS>BOND
     1    1    2 1    
     2    1  127 1    
     3    1  128 1    
     4    1  129 1    
     5    2    3 2    
     6    2    4 am   BACKBONE|DICT|INTERRES
     7    4    5 1    
     8    4  130 1    
     9    5    6 1    
    10    5   65 1    
    11    5  131 1    
    12    6    7 1    
    13    6  132 1    
    14    6  133 1    
    15    7    8 1    
    16    8    9 1    
    17    8  134 1    
    18    8  135 1    
    19    9   10 ar   
    20    9   14 ar   
    21   10   11 ar   
    22   10  136 1    
    23   11   12 ar   
    24   11  126 1    
    25   12   13 ar   
    26   12  137 1    
    27   13   14 ar   
    28   13   15 1    
    29   14  138 1    
    30   15   16 1    
    31   15  139 1    
    32   15  140 1    
    33   16   17 1    
    34   17   18 1    
    35   17  141 1    
    36   17  142 1    
    37   18   19 1    
    38   18   67 1    
    39   18  143 1    
    40   19   20 am   BACKBONE|DICT|INTERRES
    41   19  144 1    
    42   20   21 2    
    43   20   22 1    
    44   22   23 1    
    45   22   24 1    
    46   22  145 1    
    47   23  146 1    
    48   23  147 1    
    49   23  148 1    
    50   24   25 am   BACKBONE|DICT|INTERRES
    51   24  149 1    
    52   25   26 2    
    53   25   27 1    
    54   27   28 1    
    55   27   29 1    
    56   27  150 1    
    57   28  151 1    
    58   28  152 1    
    59   28  153 1    
    60   29   30 am   BACKBONE|DICT|INTERRES
    61   29  154 1    
    62   30   31 2    
    63   30   32 1    
    64   32   33 1    
    65   32   34 1    
    66   32  155 1    
    67   33  156 1    
    68   33  157 1    
    69   33  158 1    
    70   34   35 am   BACKBONE|DICT|INTERRES
    71   34  159 1    
    72   35   36 2    
    73   35   37 1    
    74   37   38 1    
    75   37   39 1    
    76   37  160 1    
    77   38  161 1    
    78   38  162 1    
    79   38  163 1    
    80   39   40 am   BACKBONE|DICT|INTERRES
    81   39  164 1    
    82   40   41 2    
    83   40   42 1    
    84   42   43 1    
    85   42   44 1    
    86   42  165 1    
    87   43  166 1    
    88   43  167 1    
    89   43  168 1    
    90   44   45 am   BACKBONE|DICT|INTERRES
    91   44  169 1    
    92   45   46 2    
    93   45   47 1    
    94   47   48 1    
    95   47   49 1    
    96   47  170 1    
    97   48  171 1    
    98   48  172 1    
    99   48  173 1    
   100   49   50 am   BACKBONE|DICT|INTERRES
   101   49  174 1    
   102   50   51 2    
   103   50   52 1    
   104   52   53 1    
   105   52   54 1    
   106   52  175 1    
   107   53  176 1    
   108   53  177 1    
   109   53  178 1    
   110   54   55 am   BACKBONE|DICT|INTERRES
   111   54  179 1    
   112   55   56 2    
   113   55   57 1    
   114   57   58 1    
   115   57   59 1    
   116   57  180 1    
   117   58  181 1    
   118   58  182 1    
   119   58  183 1    
   120   59   60 am   BACKBONE|DICT|INTERRES
   121   59  184 1    
   122   60   61 2    
   123   60   62 1    
   124   62   63 1    
   125   62   64 1    
   126   62  185 1    
   127   63  186 1    
   128   63  187 1    
   129   63  188 1    
   130   64   65 am   BACKBONE|DICT|INTERRES
   131   64  189 1    
   132   65   66 2    
   133   67   68 2    
   134   67   69 am   BACKBONE|DICT|INTERRES
   135   69   70 1    
   136   69  190 1    
   137   70   71 1    
   138   70   72 1    
   139   70  191 1    
   140   71  192 1    
   141   71  193 1    
   142   71  194 1    
   143   72   73 2    
   144   72   74 am   BACKBONE|DICT|INTERRES
   145   74   75 1    
   146   74  195 1    
   147   75   76 1    
   148   75   77 1    
   149   75  196 1    
   150   76  197 1    
   151   76  198 1    
   152   76  199 1    
   153   77   78 2    
   154   77   79 am   BACKBONE|DICT|INTERRES
   155   79   80 1    
   156   79  200 1    
   157   80   81 1    
   158   80   82 1    
   159   80  201 1    
   160   81  202 1    
   161   81  203 1    
   162   81  204 1    
   163   82   83 2    
   164   82   84 am   BACKBONE|DICT|INTERRES
   165   84   85 1    
   166   84  205 1    
   167   85   86 1    
   168   85   87 1    
   169   85  206 1    
   170   86  207 1    
   171   86  208 1    
   172   86  209 1    
   173   87   88 2    
   174   87   89 am   BACKBONE|DICT|INTERRES
   175   89   90 1    
   176   89  210 1    
   177   90   91 1    
   178   90   92 1    
   179   90  211 1    
   180   91  212 1    
   181   91  213 1    
   182   91  214 1    
   183   92   93 2    
   184   92   94 am   BACKBONE|DICT|INTERRES
   185   94   95 1    
   186   94  215 1    
   187   95   96 1    
   188   95   97 1    
   189   95  216 1    
   190   96  217 1    
   191   96  218 1    
   192   96  219 1    
   193   97   98 2    
   194   97   99 am   BACKBONE|DICT|INTERRES
   195   99  100 1    
   196   99  220 1    
   197  100  101 1    
   198  100  102 1    
   199  100  221 1    
   200  101  222 1    
   201  101  223 1    
   202  101  224 1    
   203  102  103 2    
   204  102  104 am   BACKBONE|DICT|INTERRES
   205  104  105 1    
   206  104  225 1    
   207  105  106 1    
   208  105  107 1    
   209  105  226 1    
   210  106  227 1    
   211  106  228 1    
   212  106  229 1    
   213  107  108 2    
   214  107  109 am   BACKBONE|DICT|INTERRES
   215  109  110 1    
   216  109  230 1    
   217  110  111 1    
   218  110  112 1    
   219  110  231 1    
   220  111  232 1    
   221  111  233 1    
   222  111  234 1    
   223  112  113 2    
   224  112  114 am   BACKBONE|DICT|INTERRES
   225  114  115 1    
   226  114  235 1    
   227  115  116 1    
   228  115  117 1    
   229  115  236 1    
   230  116  237 1    
   231  116  238 1    
   232  116  239 1    
   233  117  118 2    
   234  117  119 am   BACKBONE|DICT|INTERRES
   235  119  120 1    
   236  119  240 1    
   237  120  121 1    
   238  120  124 1    
   239  120  241 1    
   240  121  122 am   BACKBONE|DICT|INTERRES
   241  121  123 2    
   242  122  242 1    
   243  122  243 1    
   244  124  125 1    
   245  124  244 1    
   246  124  245 1    
   247  125  126 1    
   248  126  246 1    
   249  126  247 1    
@<TRIPOS>SUBSTRUCTURE
     1 UNK         1 GROUP             0       ****    0 ROOT    
