@<TRIPOS>MOLECULE
3R540
247   249    1
SMALL
USER_CHARGES


@<TRIPOS>ATOM
      1 CA          1.7695  -16.8009  -48.0953 C.3       0 UNK        -0.1800 
      2 C           1.0249  -15.5826  -47.5754 C.2       0 UNK         0.5000 
      3 O           1.5615  -14.8429  -46.7532 O.2       0 UNK        -0.5000 
      4 N          -0.2073  -15.3712  -48.0596 N.am      1 UNK        -0.5000 
      5 CA         -1.1594  -14.3394  -47.6095 C.3       1 UNK         0.1400 
      6 C6         -2.5558  -14.4895  -48.2649 C.3       23 UNK        -0.0398 
      7 S7         -3.2432  -16.1787  -48.1786 S.3       23 UNK        -0.2404 
      8 C8         -3.2872  -16.6174  -49.9456 C.3       23 UNK        -0.0205 
      9 C9         -1.8942  -16.8572  -50.5031 C.ar      23 UNK        -0.0193 
     10 C10        -1.2767  -15.8973  -51.3057 C.ar      23 UNK        -0.1150 
     11 C11        -0.0142  -16.1356  -51.8548 C.ar      23 UNK        -0.0193 
     12 C12         0.6441  -17.3335  -51.5637 C.ar      23 UNK        -0.1150 
     13 C13         0.0431  -18.3055  -50.7569 C.ar      23 UNK        -0.0193 
     14 C14        -1.2300  -18.0531  -50.2300 C.ar      23 UNK        -0.1150 
     15 C15         0.8056  -19.6050  -50.4947 C.3       23 UNK        -0.0205 
     16 S16        -0.2093  -21.0036  -49.9080 S.3       23 UNK        -0.2404 
     17 C17        -0.2002  -20.7748  -48.1007 C.3       23 UNK        -0.0398 
     18 CA         -0.4141  -22.1162  -47.3581 C.3       11 UNK         0.1400 
     19 N           0.2168  -22.1130  -46.0351 N.am      11 UNK        -0.5000 
     20 C           0.3958  -23.2044  -45.2775 C.2       10 UNK         0.5000 
     21 O           0.0689  -24.3376  -45.6275 O.2       10 UNK        -0.5000 
     22 CA          0.9881  -22.9882  -43.8733 C.3       10 UNK         0.1400 
     23 CB          2.5130  -22.8225  -43.9399 C.3       10 UNK        -0.1800 
     24 N           0.3953  -21.8385  -43.1903 N.am      10 UNK        -0.5000 
     25 C          -0.8969  -21.7408  -42.8494 C.2       9 UNK         0.5000 
     26 O          -1.7171  -22.6401  -43.0245 O.2       9 UNK        -0.5000 
     27 CA         -1.3648  -20.3969  -42.2658 C.3       9 UNK         0.1400 
     28 CB         -1.0867  -20.3225  -40.7569 C.3       9 UNK        -0.1800 
     29 N          -0.7484  -19.2544  -42.9399 N.am      9 UNK        -0.5000 
     30 C          -0.9803  -18.9055  -44.2135 C.2       8 UNK         0.5000 
     31 O          -1.7564  -19.5035  -44.9591 O.2       8 UNK        -0.5000 
     32 CA         -0.1629  -17.7183  -44.7528 C.3       8 UNK         0.1400 
     33 CB         -0.7417  -16.3855  -44.2551 C.3       8 UNK        -0.1800 
     34 N           1.2484  -17.8060  -44.3744 N.am      8 UNK        -0.5000 
     35 C           2.0858  -18.7610  -44.8074 C.2       7 UNK         0.5000 
     36 O           1.7621  -19.6373  -45.6077 O.2       7 UNK        -0.5000 
     37 CA          3.5068  -18.7766  -44.2092 C.3       7 UNK         0.1400 
     38 CB          4.4364  -17.8598  -45.0181 C.3       7 UNK        -0.1800 
     39 N           3.5442  -18.3764  -42.8019 N.am      7 UNK        -0.5000 
     40 C           2.8538  -18.9560  -41.8096 C.2       6 UNK         0.5000 
     41 O           2.1959  -19.9848  -41.9581 O.2       6 UNK        -0.5000 
     42 CA          2.8497  -18.2571  -40.4335 C.3       6 UNK         0.1400 
     43 CB          3.6386  -19.0872  -39.4097 C.3       6 UNK        -0.1800 
     44 N           3.3667  -16.8832  -40.4291 N.am      6 UNK        -0.5000 
     45 C           2.8756  -15.8455  -41.1214 C.2       5 UNK         0.5000 
     46 O           1.9232  -15.9315  -41.9018 O.2       5 UNK        -0.5000 
     47 CA          3.6472  -14.5216  -40.9552 C.3       5 UNK         0.1400 
     48 CB          5.0212  -14.6138  -41.6421 C.3       5 UNK        -0.1800 
     49 N           2.9457  -13.3684  -41.5116 N.am      5 UNK        -0.5000 
     50 C           1.8171  -12.8181  -41.0449 C.2       4 UNK         0.5000 
     51 O           1.2305  -13.2138  -40.0363 O.2       4 UNK        -0.5000 
     52 CA          1.2726  -11.5933  -41.8142 C.3       4 UNK         0.1400 
     53 CB          1.3304  -10.3323  -40.9362 C.3       4 UNK        -0.1800 
     54 N           2.0126  -11.3317  -43.0546 N.am      4 UNK        -0.5000 
     55 C           1.7703  -11.9377  -44.2229 C.2       3 UNK         0.5000 
     56 O           0.8297  -12.7125  -44.4077 O.2       3 UNK        -0.5000 
     57 CA          2.7885  -11.6656  -45.3426 C.3       3 UNK         0.1400 
     58 CB          3.9993  -12.6027  -45.1942 C.3       3 UNK        -0.1800 
     59 N           2.1729  -11.9103  -46.6415 N.am      3 UNK        -0.5000 
     60 C           1.8483  -10.9682  -47.5366 C.2       2 UNK         0.5000 
     61 O           2.1228   -9.7747  -47.4027 O.2       2 UNK        -0.5000 
     62 CA          1.0802  -11.4234  -48.7965 C.3       2 UNK         0.1400 
     63 CB          2.0344  -11.5567  -49.9935 C.3       2 UNK        -0.1800 
     64 N           0.3747  -12.6919  -48.6166 N.am      2 UNK        -0.5000 
     65 C          -0.6659  -12.8864  -47.7948 C.2       1 UNK         0.5000 
     66 O          -1.2356  -11.9734  -47.1957 O.2       1 UNK        -0.5000 
     67 C          -1.9075  -22.5119  -47.2957 C.2       11 UNK         0.5000 
     68 O          -2.3935  -23.2062  -48.1918 O.2       11 UNK        -0.5000 
     69 N          -2.6023  -22.0952  -46.2269 N.am      12 UNK        -0.5000 
     70 CA         -3.9765  -22.4955  -45.9265 C.3       12 UNK         0.1400 
     71 CB         -4.5651  -21.5804  -44.8433 C.3       12 UNK        -0.1800 
     72 C          -4.0849  -23.9785  -45.5340 C.2       12 UNK         0.5000 
     73 O          -4.9670  -24.6692  -46.0428 O.2       12 UNK        -0.5000 
     74 N          -3.1664  -24.4569  -44.6828 N.am      13 UNK        -0.5000 
     75 CA         -3.0652  -25.8577  -44.2611 C.3       13 UNK         0.1400 
     76 CB         -2.0219  -25.9833  -43.1409 C.3       13 UNK        -0.1800 
     77 C          -2.7370  -26.8149  -45.4234 C.2       13 UNK         0.5000 
     78 O          -3.2768  -27.9205  -45.4739 O.2       13 UNK        -0.5000 
     79 N          -1.8927  -26.3555  -46.3566 N.am      14 UNK        -0.5000 
     80 CA         -1.5606  -27.0424  -47.6067 C.3       14 UNK         0.1400 
     81 CB         -0.2874  -26.4080  -48.1897 C.3       14 UNK        -0.1800 
     82 C          -2.6953  -27.0076  -48.6527 C.2       14 UNK         0.5000 
     83 O          -2.6148  -27.7328  -49.6442 O.2       14 UNK        -0.5000 
     84 N          -3.7032  -26.1484  -48.4345 N.am      15 UNK        -0.5000 
     85 CA         -4.8501  -25.8465  -49.3001 C.3       15 UNK         0.1400 
     86 CB         -5.7151  -27.0979  -49.5509 C.3       15 UNK        -0.1800 
     87 C          -4.4782  -25.1172  -50.6081 C.2       15 UNK         0.5000 
     88 O          -5.3365  -24.9455  -51.4738 O.2       15 UNK        -0.5000 
     89 N          -3.2301  -24.6466  -50.7202 N.am      16 UNK        -0.5000 
     90 CA         -2.7352  -23.8604  -51.8481 C.3       16 UNK         0.1400 
     91 CB         -1.2015  -23.8438  -51.8227 C.3       16 UNK        -0.1800 
     92 C          -3.3371  -22.4433  -51.8749 C.2       16 UNK         0.5000 
     93 O          -3.6004  -21.9182  -52.9565 O.2       16 UNK        -0.5000 
     94 N          -3.6300  -21.8851  -50.6903 N.am      17 UNK        -0.5000 
     95 CA         -4.3701  -20.6309  -50.5360 C.3       17 UNK         0.1400 
     96 CB         -4.3814  -20.2194  -49.0565 C.3       17 UNK        -0.1800 
     97 C          -5.8134  -20.7419  -51.0656 C.2       17 UNK         0.5000 
     98 O          -6.2867  -19.8327  -51.7462 O.2       17 UNK        -0.5000 
     99 N          -6.4702  -21.8755  -50.7752 N.am      18 UNK        -0.5000 
    100 CA        -7.8227  -22.2008  -51.2360 C.3       18 UNK         0.1400 
    101 CB        -8.3643  -23.3927  -50.4317 C.3       18 UNK        -0.1800 
    102 C         -7.8793  -22.4847  -52.7490 C.2       18 UNK         0.5000 
    103 O         -8.8660  -22.1362  -53.3974 O.2       18 UNK        -0.5000 
    104 N         -6.8018  -23.0700  -53.2897 N.am      19 UNK        -0.5000 
    105 CA        -6.5883  -23.2973  -54.7211 C.3       19 UNK         0.1400 
    106 CB        -5.4978  -24.3667  -54.8936 C.3       19 UNK        -0.1800 
    107 C         -6.2207  -22.0180  -55.5060 C.2       19 UNK         0.5000 
    108 O         -6.1278  -22.0798  -56.7326 O.2       19 UNK        -0.5000 
    109 N         -6.0162  -20.8965  -54.7982 N.am      20 UNK        -0.5000 
    110 CA        -5.6244  -19.5778  -55.3005 C.3       20 UNK         0.1400 
    111 CB        -6.7100  -18.9823  -56.2214 C.3       20 UNK        -0.1800 
    112 C         -4.2163  -19.5769  -55.9283 C.2       20 UNK         0.5000 
    113 O         -4.0033  -18.9823  -56.9869 O.2       20 UNK        -0.5000 
    114 N         -3.2712  -20.2236  -55.2399 N.am      21 UNK        -0.5000 
    115 CA        -1.8468  -20.2248  -55.5413 C.3       21 UNK         0.1400 
    116 CB        -1.4146  -21.6809  -55.8006 C.3       21 UNK        -0.1800 
    117 C         -1.1117  -19.5992  -54.3354 C.2       21 UNK         0.5000 
    118 O         -0.6187  -20.3490  -53.4957 O.2       21 UNK        -0.5000 
    119 N         -1.0319  -18.2681  -54.1843 N.am      22 UNK        -0.5000 
    120 CA        -1.5335  -17.1854  -55.0466 C.3       22 UNK         0.1400 
    121 C         -2.9309  -16.6544  -54.6032 C.2       22 UNK         0.5000 
    122 N         -3.5128  -15.7247  -55.3492 N.am      22 UNK        -0.7600 
    123 O         -3.5137  -17.0924  -53.6144 O.2       22 UNK        -0.5000 
    124 C124       -0.4332  -16.0909  -55.2387 C.3       23 UNK        -0.0398 
    125 S125       -0.4574  -14.6184  -54.1470 S.3       23 UNK        -0.2404 
    126 C126        0.6327  -15.1048  -52.7688 C.3       23 UNK        -0.0205 
    127 H127        2.1261  -16.6255  -49.1099 H         1 UNK         0.0600 
    128 H128        2.6300  -17.0225  -47.4644 H         1 UNK         0.0600 
    129 H129        1.1203  -17.6761  -48.0940 H         1 UNK         0.0600 
    130 H130       -0.5784  -16.0133  -48.7477 H         1 UNK         0.3000 
    131 H131       -1.2834  -14.4827  -46.5348 H         1 UNK         0.0600 
    132 H132       -3.2702  -13.8278  -47.7717 H         1 UNK         0.0800 
    133 H133       -2.5257  -14.1628  -49.3053 H         1 UNK         0.0800 
    134 H134       -3.8010  -15.8364  -50.5086 H         1 UNK         0.0800 
    135 H135       -3.8857  -17.5169  -50.0809 H         1 UNK         0.0800 
    136 H136       -1.7917  -14.9740  -51.5310 H         1 UNK         0.1150 
    137 H137        1.6244  -17.5202  -51.9801 H         1 UNK         0.1150 
    138 H138       -1.7249  -18.7823  -49.6096 H         1 UNK         0.1150 
    139 H139        1.6236  -19.4158  -49.7995 H         1 UNK         0.0800 
    140 H140        1.2706  -19.9238  -51.4288 H         1 UNK         0.0800 
    141 H141       -0.9318  -20.0224  -47.8018 H         1 UNK         0.0800 
    142 H142        0.7749  -20.3644  -47.8414 H         1 UNK         0.0800 
    143 H143        0.0937  -22.8997  -47.9252 H         1 UNK         0.0600 
    144 H144        0.5569  -21.2184  -45.6956 H         1 UNK         0.3000 
    145 H145        0.7694  -23.8769  -43.2778 H         1 UNK         0.0600 
    146 H146        2.9407  -22.6983  -42.9448 H         1 UNK         0.0600 
    147 H147        2.9802  -23.6996  -44.3893 H         1 UNK         0.0600 
    148 H148        2.7989  -21.9573  -44.5374 H         1 UNK         0.0600 
    149 H149        1.0211  -21.0755  -42.9449 H         1 UNK         0.3000 
    150 H150       -2.4447  -20.3294  -42.4133 H         1 UNK         0.0600 
    151 H151       -0.0214  -20.3854  -40.5346 H         1 UNK         0.0600 
    152 H152       -1.5780  -21.1426  -40.2317 H         1 UNK         0.0600 
    153 H153       -1.4642  -19.3926  -40.3314 H         1 UNK         0.0600 
    154 H154       -0.0557  -18.7389  -42.4179 H         1 UNK         0.3000 
    155 H155       -0.2276  -17.7361  -45.8423 H         1 UNK         0.0600 
    156 H156       -1.7724  -16.2594  -44.5888 H         1 UNK         0.0600 
    157 H157       -0.1686  -15.5394  -44.6346 H         1 UNK         0.0600 
    158 H158       -0.7353  -16.3224  -43.1662 H         1 UNK         0.0600 
    159 H159        1.5804  -17.1306  -43.6948 H         1 UNK         0.3000 
    160 H160        3.8867  -19.7976  -44.2737 H         1 UNK         0.0600 
    161 H161        4.1083  -16.8197  -44.9822 H         1 UNK         0.0600 
    162 H162        4.4629  -18.1597  -46.0665 H         1 UNK         0.0600 
    163 H163        5.4592  -17.9033  -44.6436 H         1 UNK         0.0600 
    164 H164        4.0562  -17.5348  -42.5866 H         1 UNK         0.3000 
    165 H165        1.8087  -18.2140  -40.1070 H         1 UNK         0.0600 
    166 H166        3.5595  -18.6610  -38.4094 H         1 UNK         0.0600 
    167 H167        4.6964  -19.1449  -39.6692 H         1 UNK         0.0600 
    168 H168        3.2580  -20.1083  -39.3552 H         1 UNK         0.0600 
    169 H169        4.1660  -16.7228  -39.8328 H         1 UNK         0.3000 
    170 H170        3.7948  -14.3456  -39.8877 H         1 UNK         0.0600 
    171 H171        5.6256  -15.4187  -41.2222 H         1 UNK         0.0600 
    172 H172        4.9240  -14.8007  -42.7127 H         1 UNK         0.0600 
    173 H173        5.5883  -13.6913  -41.5147 H         1 UNK         0.0600 
    174 H174        3.3282  -12.9849  -42.3608 H         1 UNK         0.3000 
    175 H175        0.2256  -11.7948  -42.0506 H         1 UNK         0.0600 
    176 H176        2.3538  -10.0872  -40.6496 H         1 UNK         0.0600 
    177 H177        0.9109   -9.4706  -41.4559 H         1 UNK         0.0600 
    178 H178        0.7559  -10.4664  -40.0187 H         1 UNK         0.0600 
    179 H179        2.7970  -10.6990  -42.9805 H         1 UNK         0.3000 
    180 H180        3.1312  -10.6319  -45.2636 H         1 UNK         0.0600 
    181 H181        3.7010  -13.6523  -45.2125 H         1 UNK         0.0600 
    182 H182        4.5249  -12.4247  -44.2555 H         1 UNK         0.0600 
    183 H183        4.7171  -12.4469  -45.9998 H         1 UNK         0.0600 
    184 H184        1.8505  -12.8635  -46.7866 H         1 UNK         0.3000 
    185 H185        0.3417  -10.6533  -49.0287 H         1 UNK         0.0600 
    186 H186        1.4922  -11.8102  -50.9047 H         1 UNK         0.0600 
    187 H187        2.5607  -10.6197  -50.1799 H         1 UNK         0.0600 
    188 H188        2.7869  -12.3279  -49.8235 H         1 UNK         0.0600 
    189 H189        0.7790  -13.5024  -49.0616 H         1 UNK         0.3000 
    190 H190       -2.1542  -21.4712  -45.5651 H         1 UNK         0.3000 
    191 H191       -4.5726  -22.3668  -46.8291 H         1 UNK         0.0600 
    192 H192       -5.6068  -21.8341  -44.6434 H         1 UNK         0.0600 
    193 H193       -4.5379  -20.5359  -45.1547 H         1 UNK         0.0600 
    194 H194       -4.0223  -21.6620  -43.9023 H         1 UNK         0.0600 
    195 H195       -2.5064  -23.8079  -44.2607 H         1 UNK         0.3000 
    196 H196       -4.0353  -26.1520  -43.8555 H         1 UNK         0.0600 
    197 H197       -1.0304  -25.6813  -43.4785 H         1 UNK         0.0600 
    198 H198       -2.2866  -25.3629  -42.2845 H         1 UNK         0.0600 
    199 H199       -1.9496  -27.0126  -42.7876 H         1 UNK         0.0600 
    200 H200       -1.4228  -25.4701  -46.1887 H         1 UNK         0.3000 
    201 H201       -1.3518  -28.0902  -47.3818 H         1 UNK         0.0600 
    202 H202       -0.4377  -25.3546  -48.4291 H         1 UNK         0.0600 
    203 H203        0.0206  -26.9126  -49.1063 H         1 UNK         0.0600 
    204 H204        0.5439  -26.4758  -47.4877 H         1 UNK         0.0600 
    205 H205       -3.6694  -25.6042  -47.5815 H         1 UNK         0.3000 
    206 H206       -5.4617  -25.1400  -48.7377 H         1 UNK         0.0600 
    207 H207       -5.9744  -27.5916  -48.6143 H         1 UNK         0.0600 
    208 H208       -6.6499  -26.8328  -50.0462 H         1 UNK         0.0600 
    209 H209       -5.2074  -27.8239  -50.1860 H         1 UNK         0.0600 
    210 H210       -2.6131  -24.7452  -49.9256 H         1 UNK         0.3000 
    211 H211       -3.0417  -24.3563  -52.7706 H         1 UNK         0.0600 
    212 H212       -0.7989  -23.1112  -52.5241 H         1 UNK         0.0600 
    213 H213       -0.7984  -24.8178  -52.1000 H         1 UNK         0.0600 
    214 H214       -0.8196  -23.6039  -50.8315 H         1 UNK         0.0600 
    215 H215       -3.3453  -22.3691  -49.8459 H         1 UNK         0.3000 
    216 H216       -3.8508  -19.8601  -51.1101 H         1 UNK         0.0600 
    217 H217       -4.9374  -20.9332  -48.4525 H         1 UNK         0.0600 
    218 H218       -4.8631  -19.2511  -48.9209 H         1 UNK         0.0600 
    219 H219       -3.3736  -20.1440  -48.6502 H         1 UNK         0.0600 
    220 H220       -5.9926  -22.5847  -50.2408 H         1 UNK         0.3000 
    221 H221       -8.4637  -21.3392  -51.0372 H         1 UNK         0.0600 
    222 H222       -8.3718  -23.1775  -49.3630 H         1 UNK         0.0600 
    223 H223       -7.7709  -24.2934  -50.5889 H         1 UNK         0.0600 
    224 H224       -9.3897  -23.6233  -50.7231 H         1 UNK         0.0600 
    225 H225       -6.0695  -23.3962  -52.6692 H         1 UNK         0.3000 
    226 H226       -7.5152  -23.6860  -55.1475 H         1 UNK         0.0600 
    227 H227       -4.5269  -24.0040  -54.5574 H         1 UNK         0.0600 
    228 H228       -5.7340  -25.2709  -54.3322 H         1 UNK         0.0600 
    229 H229       -5.3930  -24.6525  -55.9409 H         1 UNK         0.0600 
    230 H230       -6.0922  -20.9636  -53.7919 H         1 UNK         0.3000 
    231 H231       -5.5589  -18.9335  -54.4224 H         1 UNK         0.0600 
    232 H232       -6.4792  -17.9464  -56.4723 H         1 UNK         0.0600 
    233 H233       -7.6855  -18.9882  -55.7351 H         1 UNK         0.0600 
    234 H234       -6.7977  -19.5321  -57.1587 H         1 UNK         0.0600 
    235 H235       -3.5234  -20.7041  -54.3777 H         1 UNK         0.3000 
    236 H236       -1.6170  -19.6662  -56.4479 H         1 UNK         0.0600 
    237 H237       -1.9221  -22.0894  -56.6746 H         1 UNK         0.0600 
    238 H238       -0.3419  -21.7422  -55.9872 H         1 UNK         0.0600 
    239 H239       -1.6405  -22.3309  -54.9541 H         1 UNK         0.0600 
    240 H240       -0.6402  -17.9359  -53.3144 H         1 UNK         0.3000 
    241 H241       -1.7069  -17.5958  -56.0387 H         1 UNK         0.0600 
    242 H242       -4.4178  -15.3779  -55.0740 H         1 UNK         0.3800 
    243 H243       -3.0661  -15.3428  -56.1677 H         1 UNK         0.3800 
    244 H244       -0.5221  -15.6983  -56.2525 H         1 UNK         0.0800 
    245 H245        0.5618  -16.5378  -55.2093 H         1 UNK         0.0800 
    246 H246        0.8670  -14.2179  -52.1786 H         1 UNK         0.0800 
    247 H247        1.5804  -15.4683  -53.1689 H         1 UNK         0.0800 
@<TRIPOS>BOND
     1    1    2 1    
     2    1  127 1    
     3    1  128 1    
     4    1  129 1    
     5    2    3 2    
     6    2    4 am   BACKBONE|DICT|INTERRES
     7    4    5 1    
     8    4  130 1    
     9    5    6 1    
    10    5   65 1    
    11    5  131 1    
    12    6    7 1    
    13    6  132 1    
    14    6  133 1    
    15    7    8 1    
    16    8    9 1    
    17    8  134 1    
    18    8  135 1    
    19    9   10 ar   
    20    9   14 ar   
    21   10   11 ar   
    22   10  136 1    
    23   11   12 ar   
    24   11  126 1    
    25   12   13 ar   
    26   12  137 1    
    27   13   14 ar   
    28   13   15 1    
    29   14  138 1    
    30   15   16 1    
    31   15  139 1    
    32   15  140 1    
    33   16   17 1    
    34   17   18 1    
    35   17  141 1    
    36   17  142 1    
    37   18   19 1    
    38   18   67 1    
    39   18  143 1    
    40   19   20 am   BACKBONE|DICT|INTERRES
    41   19  144 1    
    42   20   21 2    
    43   20   22 1    
    44   22   23 1    
    45   22   24 1    
    46   22  145 1    
    47   23  146 1    
    48   23  147 1    
    49   23  148 1    
    50   24   25 am   BACKBONE|DICT|INTERRES
    51   24  149 1    
    52   25   26 2    
    53   25   27 1    
    54   27   28 1    
    55   27   29 1    
    56   27  150 1    
    57   28  151 1    
    58   28  152 1    
    59   28  153 1    
    60   29   30 am   BACKBONE|DICT|INTERRES
    61   29  154 1    
    62   30   31 2    
    63   30   32 1    
    64   32   33 1    
    65   32   34 1    
    66   32  155 1    
    67   33  156 1    
    68   33  157 1    
    69   33  158 1    
    70   34   35 am   BACKBONE|DICT|INTERRES
    71   34  159 1    
    72   35   36 2    
    73   35   37 1    
    74   37   38 1    
    75   37   39 1    
    76   37  160 1    
    77   38  161 1    
    78   38  162 1    
    79   38  163 1    
    80   39   40 am   BACKBONE|DICT|INTERRES
    81   39  164 1    
    82   40   41 2    
    83   40   42 1    
    84   42   43 1    
    85   42   44 1    
    86   42  165 1    
    87   43  166 1    
    88   43  167 1    
    89   43  168 1    
    90   44   45 am   BACKBONE|DICT|INTERRES
    91   44  169 1    
    92   45   46 2    
    93   45   47 1    
    94   47   48 1    
    95   47   49 1    
    96   47  170 1    
    97   48  171 1    
    98   48  172 1    
    99   48  173 1    
   100   49   50 am   BACKBONE|DICT|INTERRES
   101   49  174 1    
   102   50   51 2    
   103   50   52 1    
   104   52   53 1    
   105   52   54 1    
   106   52  175 1    
   107   53  176 1    
   108   53  177 1    
   109   53  178 1    
   110   54   55 am   BACKBONE|DICT|INTERRES
   111   54  179 1    
   112   55   56 2    
   113   55   57 1    
   114   57   58 1    
   115   57   59 1    
   116   57  180 1    
   117   58  181 1    
   118   58  182 1    
   119   58  183 1    
   120   59   60 am   BACKBONE|DICT|INTERRES
   121   59  184 1    
   122   60   61 2    
   123   60   62 1    
   124   62   63 1    
   125   62   64 1    
   126   62  185 1    
   127   63  186 1    
   128   63  187 1    
   129   63  188 1    
   130   64   65 am   BACKBONE|DICT|INTERRES
   131   64  189 1    
   132   65   66 2    
   133   67   68 2    
   134   67   69 am   BACKBONE|DICT|INTERRES
   135   69   70 1    
   136   69  190 1    
   137   70   71 1    
   138   70   72 1    
   139   70  191 1    
   140   71  192 1    
   141   71  193 1    
   142   71  194 1    
   143   72   73 2    
   144   72   74 am   BACKBONE|DICT|INTERRES
   145   74   75 1    
   146   74  195 1    
   147   75   76 1    
   148   75   77 1    
   149   75  196 1    
   150   76  197 1    
   151   76  198 1    
   152   76  199 1    
   153   77   78 2    
   154   77   79 am   BACKBONE|DICT|INTERRES
   155   79   80 1    
   156   79  200 1    
   157   80   81 1    
   158   80   82 1    
   159   80  201 1    
   160   81  202 1    
   161   81  203 1    
   162   81  204 1    
   163   82   83 2    
   164   82   84 am   BACKBONE|DICT|INTERRES
   165   84   85 1    
   166   84  205 1    
   167   85   86 1    
   168   85   87 1    
   169   85  206 1    
   170   86  207 1    
   171   86  208 1    
   172   86  209 1    
   173   87   88 2    
   174   87   89 am   BACKBONE|DICT|INTERRES
   175   89   90 1    
   176   89  210 1    
   177   90   91 1    
   178   90   92 1    
   179   90  211 1    
   180   91  212 1    
   181   91  213 1    
   182   91  214 1    
   183   92   93 2    
   184   92   94 am   BACKBONE|DICT|INTERRES
   185   94   95 1    
   186   94  215 1    
   187   95   96 1    
   188   95   97 1    
   189   95  216 1    
   190   96  217 1    
   191   96  218 1    
   192   96  219 1    
   193   97   98 2    
   194   97   99 am   BACKBONE|DICT|INTERRES
   195   99  100 1    
   196   99  220 1    
   197  100  101 1    
   198  100  102 1    
   199  100  221 1    
   200  101  222 1    
   201  101  223 1    
   202  101  224 1    
   203  102  103 2    
   204  102  104 am   BACKBONE|DICT|INTERRES
   205  104  105 1    
   206  104  225 1    
   207  105  106 1    
   208  105  107 1    
   209  105  226 1    
   210  106  227 1    
   211  106  228 1    
   212  106  229 1    
   213  107  108 2    
   214  107  109 am   BACKBONE|DICT|INTERRES
   215  109  110 1    
   216  109  230 1    
   217  110  111 1    
   218  110  112 1    
   219  110  231 1    
   220  111  232 1    
   221  111  233 1    
   222  111  234 1    
   223  112  113 2    
   224  112  114 am   BACKBONE|DICT|INTERRES
   225  114  115 1    
   226  114  235 1    
   227  115  116 1    
   228  115  117 1    
   229  115  236 1    
   230  116  237 1    
   231  116  238 1    
   232  116  239 1    
   233  117  118 2    
   234  117  119 am   BACKBONE|DICT|INTERRES
   235  119  120 1    
   236  119  240 1    
   237  120  121 1    
   238  120  124 1    
   239  120  241 1    
   240  121  122 am   BACKBONE|DICT|INTERRES
   241  121  123 2    
   242  122  242 1    
   243  122  243 1    
   244  124  125 1    
   245  124  244 1    
   246  124  245 1    
   247  125  126 1    
   248  126  246 1    
   249  126  247 1    
@<TRIPOS>SUBSTRUCTURE
     1 UNK         1 GROUP             0       ****    0 ROOT    
