@<TRIPOS>MOLECULE
3R540
247   249    1
SMALL
USER_CHARGES


@<TRIPOS>ATOM
      1 CA          1.1088   -9.1180  -52.1548 C.3       0 UNK        -0.1800 
      2 C           1.1677  -10.0403  -50.9451 C.2       0 UNK         0.5000 
      3 O           0.9588   -9.5877  -49.8192 O.2       0 UNK        -0.5000 
      4 N           1.4583  -11.3273  -51.1716 N.am      1 UNK        -0.5000 
      5 CA          1.4911  -12.3742  -50.1475 C.3       1 UNK         0.1400 
      6 C6          2.2476  -13.6257  -50.6563 C.3       23 UNK        -0.0398 
      7 S7          2.9304  -14.6340  -49.2970 S.3       23 UNK        -0.2404 
      8 C8          1.8828  -16.1199  -49.3683 C.3       23 UNK        -0.0205 
      9 C9          2.4767  -17.2346  -50.2260 C.ar      23 UNK        -0.0193 
     10 C10         2.6156  -17.0774  -51.6082 C.ar      23 UNK        -0.1150 
     11 C11         3.1838  -18.0881  -52.3865 C.ar      23 UNK        -0.0193 
     12 C12         3.5735  -19.2852  -51.7792 C.ar      23 UNK        -0.1150 
     13 C13         3.4278  -19.4754  -50.4012 C.ar      23 UNK        -0.0193 
     14 C14         2.8889  -18.4338  -49.6327 C.ar      23 UNK        -0.1150 
     15 C15         3.9290  -20.7922  -49.7965 C.3       23 UNK        -0.0205 
     16 S16         3.4736  -21.1164  -48.0540 S.3       23 UNK        -0.2404 
     17 C17         1.8169  -21.8774  -48.1878 C.3       23 UNK        -0.0398 
     18 CA          1.6831  -23.1814  -47.3534 C.3       11 UNK         0.1400 
     19 N           2.0218  -22.9569  -45.9467 N.am      11 UNK        -0.5000 
     20 C           2.4113  -23.8998  -45.0805 C.2       10 UNK         0.5000 
     21 O           2.6734  -25.0595  -45.4075 O.2       10 UNK        -0.5000 
     22 CA          2.4922  -23.4692  -43.6011 C.3       10 UNK         0.1400 
     23 CB          3.3113  -24.4381  -42.7224 C.3       10 UNK        -0.1800 
     24 N           2.9434  -22.0850  -43.4330 N.am      10 UNK        -0.5000 
     25 C           4.1437  -21.5704  -43.7410 C.2       9 UNK         0.5000 
     26 O           5.0815  -22.2359  -44.1824 O.2       9 UNK        -0.5000 
     27 CA          4.3420  -20.0543  -43.5258 C.3       9 UNK         0.1400 
     28 CB          4.5553  -19.3414  -44.8709 C.3       9 UNK        -0.1800 
     29 N           3.2322  -19.4061  -42.8230 N.am      9 UNK        -0.5000 
     30 C           2.9773  -19.5064  -41.5119 C.2       8 UNK         0.5000 
     31 O           3.6964  -20.1175  -40.7209 O.2       8 UNK        -0.5000 
     32 CA          1.6788  -18.8461  -41.0072 C.3       8 UNK         0.1400 
     33 CB          1.9169  -17.3661  -40.6726 C.3       8 UNK        -0.1800 
     34 N           0.5651  -18.9626  -41.9544 N.am      8 UNK        -0.5000 
     35 C          -0.0064  -20.1201  -42.3202 C.2       7 UNK         0.5000 
     36 O           0.3317  -21.2175  -41.8766 O.2       7 UNK        -0.5000 
     37 CA         -1.1009  -20.0514  -43.4020 C.3       7 UNK         0.1400 
     38 CB         -2.4471  -19.6168  -42.8053 C.3       7 UNK        -0.1800 
     39 N          -0.7413  -19.1628  -44.5061 N.am      7 UNK        -0.5000 
     40 C           0.2877  -19.3746  -45.3373 C.2       6 UNK         0.5000 
     41 O           1.0098  -20.3697  -45.2886 O.2       6 UNK        -0.5000 
     42 CA          0.5853  -18.2744  -46.3704 C.3       6 UNK         0.1400 
     43 CB         -0.3828  -18.3601  -47.5597 C.3       6 UNK        -0.1800 
     44 N           0.5311  -16.9313  -45.7969 N.am      6 UNK        -0.5000 
     45 C           1.3275  -16.4866  -44.8148 C.2       5 UNK         0.5000 
     46 O           2.2323  -17.1493  -44.3123 O.2       5 UNK        -0.5000 
     47 CA          1.0211  -15.0868  -44.2593 C.3       5 UNK         0.1400 
     48 CB          1.6198  -13.9924  -45.1570 C.3       5 UNK        -0.1800 
     49 N          -0.4173  -14.8736  -44.0965 N.am      5 UNK        -0.5000 
     50 C          -1.1813  -15.5224  -43.2046 C.2       4 UNK         0.5000 
     51 O          -0.7446  -16.3365  -42.3913 O.2       4 UNK        -0.5000 
     52 CA         -2.6951  -15.2488  -43.2677 C.3       4 UNK         0.1400 
     53 CB         -3.0466  -13.9615  -42.5074 C.3       4 UNK        -0.1800 
     54 N          -3.1829  -15.1497  -44.6441 N.am      4 UNK        -0.5000 
     55 C          -3.2043  -16.1712  -45.5124 C.2       3 UNK         0.5000 
     56 O          -2.8740  -17.3200  -45.2220 O.2       3 UNK        -0.5000 
     57 CA         -3.5991  -15.8384  -46.9628 C.3       3 UNK         0.1400 
     58 CB         -5.1165  -15.9489  -47.1616 C.3       3 UNK        -0.1800 
     59 N          -3.1380  -14.5136  -47.3892 N.am      3 UNK        -0.5000 
     60 C          -1.8486  -14.1750  -47.5224 C.2       2 UNK         0.5000 
     61 O          -0.9173  -14.9626  -47.3433 O.2       2 UNK        -0.5000 
     62 CA         -1.5626  -12.6924  -47.8156 C.3       2 UNK         0.1400 
     63 CB         -1.6400  -11.8744  -46.5159 C.3       2 UNK        -0.1800 
     64 N          -0.2428  -12.4880  -48.4108 N.am      2 UNK        -0.5000 
     65 C           0.0509  -12.7040  -49.6978 C.2       1 UNK         0.5000 
     66 O          -0.7657  -13.1065  -50.5291 O.2       1 UNK        -0.5000 
     67 C           0.2602  -23.7885  -47.4525 C.2       11 UNK         0.5000 
     68 O          -0.4392  -23.9110  -46.4417 O.2       11 UNK        -0.5000 
     69 N          -0.1708  -24.1412  -48.6735 N.am      12 UNK        -0.5000 
     70 CA         -1.4492  -24.8113  -48.9664 C.3       12 UNK         0.1400 
     71 CB         -1.4821  -25.2095  -50.4508 C.3       12 UNK        -0.1800 
     72 C          -2.7296  -24.0300  -48.5925 C.2       12 UNK         0.5000 
     73 O          -3.8206  -24.5942  -48.6780 O.2       12 UNK        -0.5000 
     74 N          -2.5914  -22.7679  -48.1623 N.am      13 UNK        -0.5000 
     75 CA         -3.6532  -21.8755  -47.6855 C.3       13 UNK         0.1400 
     76 CB         -3.0162  -20.5610  -47.2265 C.3       13 UNK        -0.1800 
     77 C          -4.5308  -22.4485  -46.5600 C.2       13 UNK         0.5000 
     78 O          -5.7046  -22.0899  -46.4716 O.2       13 UNK        -0.5000 
     79 N          -3.9689  -23.3659  -45.7609 N.am      14 UNK        -0.5000 
     80 CA         -4.6786  -24.1340  -44.7364 C.3       14 UNK         0.1400 
     81 CB         -3.6620  -25.0000  -43.9774 C.3       14 UNK        -0.1800 
     82 C          -5.8273  -25.0047  -45.2931 C.2       14 UNK         0.5000 
     83 O          -6.7799  -25.2767  -44.5613 O.2       14 UNK        -0.5000 
     84 N          -5.7269  -25.4069  -46.5680 N.am      15 UNK        -0.5000 
     85 CA         -6.7613  -26.1315  -47.3040 C.3       15 UNK         0.1400 
     86 CB         -6.1341  -27.3775  -47.9494 C.3       15 UNK        -0.1800 
     87 C          -7.4109  -25.2428  -48.3796 C.2       15 UNK         0.5000 
     88 O          -8.6260  -25.3124  -48.5665 O.2       15 UNK        -0.5000 
     89 N          -6.5980  -24.4373  -49.0788 N.am      16 UNK        -0.5000 
     90 CA         -7.0117  -23.6307  -50.2291 C.3       16 UNK         0.1400 
     91 CB         -5.7642  -23.2329  -51.0361 C.3       16 UNK        -0.1800 
     92 C          -7.8365  -22.3791  -49.8741 C.2       16 UNK         0.5000 
     93 O          -8.5096  -21.8484  -50.7581 O.2       16 UNK        -0.5000 
     94 N          -7.7452  -21.9002  -48.6239 N.am      17 UNK        -0.5000 
     95 CA         -8.3718  -20.6994  -48.0441 C.3       17 UNK         0.1400 
     96 CB         -9.9086  -20.7551  -48.1381 C.3       17 UNK        -0.1800 
     97 C          -7.8219  -19.3608  -48.5835 C.2       17 UNK         0.5000 
     98 O          -7.6748  -18.4137  -47.8102 O.2       17 UNK        -0.5000 
     99 N          -7.4997  -19.3096  -49.8810 N.am      18 UNK        -0.5000 
    100 CA        -6.7015  -18.2708  -50.5316 C.3       18 UNK         0.1400 
    101 CB        -6.9051  -18.3958  -52.0514 C.3       18 UNK        -0.1800 
    102 C         -5.2088  -18.4041  -50.1615 C.2       18 UNK         0.5000 
    103 O         -4.8345  -19.3182  -49.4252 O.2       18 UNK        -0.5000 
    104 N         -4.3623  -17.5151  -50.6983 N.am      19 UNK        -0.5000 
    105 CA        -2.9044  -17.5038  -50.5185 C.3       19 UNK         0.1400 
    106 CB        -2.3653  -16.1231  -50.9295 C.3       19 UNK        -0.1800 
    107 C         -2.1856  -18.6643  -51.2423 C.2       19 UNK         0.5000 
    108 O         -1.3324  -18.4320  -52.0988 O.2       19 UNK        -0.5000 
    109 N         -2.5584  -19.8991  -50.8818 N.am      20 UNK        -0.5000 
    110 CA        -2.1039  -21.1693  -51.4452 C.3       20 UNK         0.1400 
    111 CB        -0.6147  -21.3951  -51.0968 C.3       20 UNK        -0.1800 
    112 C         -2.4320  -21.2633  -52.9504 C.2       20 UNK         0.5000 
    113 O         -3.4933  -20.7975  -53.3721 O.2       20 UNK        -0.5000 
    114 N         -1.5167  -21.8359  -53.7418 N.am      21 UNK        -0.5000 
    115 CA        -1.5941  -21.8722  -55.2050 C.3       21 UNK         0.1400 
    116 CB        -0.5757  -22.8986  -55.7256 C.3       21 UNK        -0.1800 
    117 C         -1.3555  -20.4934  -55.8587 C.2       21 UNK         0.5000 
    118 O         -1.6773  -20.3173  -57.0345 O.2       21 UNK        -0.5000 
    119 N         -0.7916  -19.5516  -55.0931 N.am      22 UNK        -0.5000 
    120 CA        -0.4696  -18.1807  -55.5116 C.3       22 UNK         0.1400 
    121 C         -1.6725  -17.1941  -55.4365 C.2       22 UNK         0.5000 
    122 N         -2.8363  -17.5908  -54.9337 N.am      22 UNK        -0.7600 
    123 O         -1.5542  -16.0497  -55.8660 O.2       22 UNK        -0.5000 
    124 C124        0.7615  -17.6346  -54.7421 C.3       23 UNK        -0.0398 
    125 S125        2.2232  -18.7141  -54.9250 S.3       23 UNK        -0.2404 
    126 C126        3.4358  -17.8646  -53.8714 C.3       23 UNK        -0.0205 
    127 H127        1.3230   -9.6502  -53.0819 H         1 UNK         0.0600 
    128 H128        1.8364   -8.3133  -52.0490 H         1 UNK         0.0600 
    129 H129        0.1171   -8.6735  -52.2394 H         1 UNK         0.0600 
    130 H130        1.5863  -11.6410  -52.1230 H         1 UNK         0.3000 
    131 H131        2.0427  -11.9694  -49.2956 H         1 UNK         0.0600 
    132 H132        1.6155  -14.2216  -51.3148 H         1 UNK         0.0800 
    133 H133        3.1012  -13.3215  -51.2639 H         1 UNK         0.0800 
    134 H134        0.8819  -15.8664  -49.7187 H         1 UNK         0.0800 
    135 H135        1.7676  -16.4608  -48.3406 H         1 UNK         0.0800 
    136 H136        2.3097  -16.1581  -52.0821 H         1 UNK         0.1150 
    137 H137        4.0159  -20.0651  -52.3834 H         1 UNK         0.1150 
    138 H138        2.8025  -18.5433  -48.5645 H         1 UNK         0.1150 
    139 H139        3.6043  -21.6299  -50.4153 H         1 UNK         0.0800 
    140 H140        5.0182  -20.7835  -49.8517 H         1 UNK         0.0800 
    141 H141        1.6158  -22.0779  -49.2397 H         1 UNK         0.0800 
    142 H142        1.0815  -21.1405  -47.8691 H         1 UNK         0.0800 
    143 H143        2.3786  -23.9171  -47.7624 H         1 UNK         0.0600 
    144 H144        1.7924  -22.0325  -45.5888 H         1 UNK         0.3000 
    145 H145        1.4654  -23.4901  -43.2331 H         1 UNK         0.0600 
    146 H146        3.3411  -24.1005  -41.6864 H         1 UNK         0.0600 
    147 H147        2.8686  -25.4348  -42.7252 H         1 UNK         0.0600 
    148 H148        4.3384  -24.5382  -43.0736 H         1 UNK         0.0600 
    149 H149        2.2376  -21.4451  -43.0913 H         1 UNK         0.3000 
    150 H150        5.2474  -19.9295  -42.9287 H         1 UNK         0.0600 
    151 H151        5.3798  -19.7858  -45.4296 H         1 UNK         0.0600 
    152 H152        4.7926  -18.2875  -44.7256 H         1 UNK         0.0600 
    153 H153        3.6654  -19.3998  -45.4981 H         1 UNK         0.0600 
    154 H154        2.6300  -18.8154  -43.3899 H         1 UNK         0.3000 
    155 H155        1.3861  -19.3573  -40.0878 H         1 UNK         0.0600 
    156 H156        2.7266  -17.2536  -39.9507 H         1 UNK         0.0600 
    157 H157        1.0267  -16.9127  -40.2361 H         1 UNK         0.0600 
    158 H158        2.1845  -16.7911  -41.5592 H         1 UNK         0.0600 
    159 H159        0.2037  -18.0941  -42.3371 H         1 UNK         0.3000 
    160 H160       -1.2241  -21.0563  -43.8121 H         1 UNK         0.0600 
    161 H161       -2.4045  -18.6010  -42.4114 H         1 UNK         0.0600 
    162 H162       -2.7441  -20.2758  -41.9887 H         1 UNK         0.0600 
    163 H163       -3.2376  -19.6509  -43.5556 H         1 UNK         0.0600 
    164 H164       -1.3318  -18.3483  -44.6485 H         1 UNK         0.3000 
    165 H165        1.6008  -18.4362  -46.7308 H         1 UNK         0.0600 
    166 H166       -0.1928  -17.5906  -48.3038 H         1 UNK         0.0600 
    167 H167       -0.3022  -19.3202  -48.0672 H         1 UNK         0.0600 
    168 H168       -1.4136  -18.2367  -47.2347 H         1 UNK         0.0600 
    169 H169       -0.1497  -16.2910  -46.1956 H         1 UNK         0.3000 
    170 H170        1.4871  -15.0079  -43.2749 H         1 UNK         0.0600 
    171 H171        2.7018  -14.1065  -45.2345 H         1 UNK         0.0600 
    172 H172        1.2193  -14.0279  -46.1696 H         1 UNK         0.0600 
    173 H173        1.4269  -12.9991  -44.7519 H         1 UNK         0.0600 
    174 H174       -0.8632  -14.2588  -44.7585 H         1 UNK         0.3000 
    175 H175       -3.2062  -16.0837  -42.7835 H         1 UNK         0.0600 
    176 H176       -2.7052  -14.0147  -41.4727 H         1 UNK         0.0600 
    177 H177       -2.5843  -13.0838  -42.9611 H         1 UNK         0.0600 
    178 H178       -4.1244  -13.7994  -42.4846 H         1 UNK         0.0600 
    179 H179       -3.4820  -14.2395  -44.9600 H         1 UNK         0.3000 
    180 H180       -3.1219  -16.5810  -47.5990 H         1 UNK         0.0600 
    181 H181       -5.4723  -16.9414  -46.8811 H         1 UNK         0.0600 
    182 H182       -5.6589  -15.2213  -46.5569 H         1 UNK         0.0600 
    183 H183       -5.3904  -15.7921  -48.2049 H         1 UNK         0.0600 
    184 H184       -3.8511  -13.8152  -47.5437 H         1 UNK         0.3000 
    185 H185       -2.3225  -12.3225  -48.5074 H         1 UNK         0.0600 
    186 H186       -2.6194  -11.9678  -46.0453 H         1 UNK         0.0600 
    187 H187       -0.8934  -12.1960  -45.7891 H         1 UNK         0.0600 
    188 H188       -1.4787  -10.8138  -46.7107 H         1 UNK         0.0600 
    189 H189        0.4846  -12.1679  -47.7892 H         1 UNK         0.3000 
    190 H190        0.4531  -24.0328  -49.4595 H         1 UNK         0.3000 
    191 H191       -1.4701  -25.7295  -48.3760 H         1 UNK         0.0600 
    192 H192       -1.5064  -24.3398  -51.1060 H         1 UNK         0.0600 
    193 H193       -2.3675  -25.8062  -50.6751 H         1 UNK         0.0600 
    194 H194       -0.6146  -25.8122  -50.7200 H         1 UNK         0.0600 
    195 H195       -1.6506  -22.4166  -48.0789 H         1 UNK         0.3000 
    196 H196       -4.3128  -21.6698  -48.5274 H         1 UNK         0.0600 
    197 H197       -3.7655  -19.8671  -46.8417 H         1 UNK         0.0600 
    198 H198       -2.5274  -20.0706  -48.0645 H         1 UNK         0.0600 
    199 H199       -2.2788  -20.7216  -46.4398 H         1 UNK         0.0600 
    200 H200       -2.9949  -23.5956  -45.9074 H         1 UNK         0.3000 
    201 H201       -5.1179  -23.4228  -44.0339 H         1 UNK         0.0600 
    202 H202       -4.1481  -25.5707  -43.1850 H         1 UNK         0.0600 
    203 H203       -3.1674  -25.7116  -44.6399 H         1 UNK         0.0600 
    204 H204       -2.8919  -24.3862  -43.5095 H         1 UNK         0.0600 
    205 H205       -4.9148  -25.1226  -47.1044 H         1 UNK         0.3000 
    206 H206       -7.5527  -26.4646  -46.6295 H         1 UNK         0.0600 
    207 H207       -5.7230  -28.0459  -47.1927 H         1 UNK         0.0600 
    208 H208       -6.8776  -27.9424  -48.5131 H         1 UNK         0.0600 
    209 H209       -5.3285  -27.1152  -48.6366 H         1 UNK         0.0600 
    210 H210       -5.5980  -24.4717  -48.8950 H         1 UNK         0.3000 
    211 H211       -7.6373  -24.2560  -50.8697 H         1 UNK         0.0600 
    212 H212       -6.0396  -22.7005  -51.9476 H         1 UNK         0.0600 
    213 H213       -5.1885  -24.1094  -51.3344 H         1 UNK         0.0600 
    214 H214       -5.1062  -22.5786  -50.4664 H         1 UNK         0.0600 
    215 H215       -7.1097  -22.3719  -47.9899 H         1 UNK         0.3000 
    216 H216       -8.1136  -20.7284  -46.9844 H         1 UNK         0.0600 
    217 H217      -10.3593  -19.9301  -47.5853 H         1 UNK         0.0600 
    218 H218      -10.2960  -21.6814  -47.7137 H         1 UNK         0.0600 
    219 H219      -10.2598  -20.6835  -49.1676 H         1 UNK         0.0600 
    220 H220       -7.6937  -20.1415  -50.4283 H         1 UNK         0.3000 
    221 H221       -7.0527  -17.2919  -50.1996 H         1 UNK         0.0600 
    222 H222       -6.5114  -19.3398  -52.4321 H         1 UNK         0.0600 
    223 H223       -7.9626  -18.3464  -52.3122 H         1 UNK         0.0600 
    224 H224       -6.4055  -17.5903  -52.5903 H         1 UNK         0.0600 
    225 H225       -4.7315  -16.8123  -51.3216 H         1 UNK         0.3000 
    226 H226       -2.6891  -17.6401  -49.4598 H         1 UNK         0.0600 
    227 H227       -2.8313  -15.3266  -50.3495 H         1 UNK         0.0600 
    228 H228       -1.2904  -16.0556  -50.7600 H         1 UNK         0.0600 
    229 H229       -2.5432  -15.9192  -51.9861 H         1 UNK         0.0600 
    230 H230       -3.3402  -19.9527  -50.2323 H         1 UNK         0.3000 
    231 H231       -2.6882  -21.9501  -50.9584 H         1 UNK         0.0600 
    232 H232       -0.4596  -21.2857  -50.0247 H         1 UNK         0.0600 
    233 H233        0.0387  -20.6774  -51.5950 H         1 UNK         0.0600 
    234 H234       -0.2768  -22.3934  -51.3714 H         1 UNK         0.0600 
    235 H235       -0.6670  -22.1914  -53.3286 H         1 UNK         0.3000 
    236 H236       -2.5940  -22.2043  -55.4923 H         1 UNK         0.0600 
    237 H237       -0.7683  -23.8899  -55.3148 H         1 UNK         0.0600 
    238 H238       -0.6264  -22.9833  -56.8119 H         1 UNK         0.0600 
    239 H239        0.4460  -22.6183  -55.4660 H         1 UNK         0.0600 
    240 H240       -0.5940  -19.7631  -54.1256 H         1 UNK         0.3000 
    241 H241       -0.1934  -18.2153  -56.5671 H         1 UNK         0.0600 
    242 H242       -2.9367  -18.5217  -54.5578 H         1 UNK         0.3800 
    243 H243       -3.6101  -16.9472  -54.9072 H         1 UNK         0.3800 
    244 H244        1.0279  -16.6397  -55.1028 H         1 UNK         0.0800 
    245 H245        0.5326  -17.5273  -53.6813 H         1 UNK         0.0800 
    246 H246        3.4428  -16.7995  -54.1083 H         1 UNK         0.0800 
    247 H247        4.4314  -18.2336  -54.1217 H         1 UNK         0.0800 
@<TRIPOS>BOND
     1    1    2 1    
     2    1  127 1    
     3    1  128 1    
     4    1  129 1    
     5    2    3 2    
     6    2    4 am   BACKBONE|DICT|INTERRES
     7    4    5 1    
     8    4  130 1    
     9    5    6 1    
    10    5   65 1    
    11    5  131 1    
    12    6    7 1    
    13    6  132 1    
    14    6  133 1    
    15    7    8 1    
    16    8    9 1    
    17    8  134 1    
    18    8  135 1    
    19    9   10 ar   
    20    9   14 ar   
    21   10   11 ar   
    22   10  136 1    
    23   11   12 ar   
    24   11  126 1    
    25   12   13 ar   
    26   12  137 1    
    27   13   14 ar   
    28   13   15 1    
    29   14  138 1    
    30   15   16 1    
    31   15  139 1    
    32   15  140 1    
    33   16   17 1    
    34   17   18 1    
    35   17  141 1    
    36   17  142 1    
    37   18   19 1    
    38   18   67 1    
    39   18  143 1    
    40   19   20 am   BACKBONE|DICT|INTERRES
    41   19  144 1    
    42   20   21 2    
    43   20   22 1    
    44   22   23 1    
    45   22   24 1    
    46   22  145 1    
    47   23  146 1    
    48   23  147 1    
    49   23  148 1    
    50   24   25 am   BACKBONE|DICT|INTERRES
    51   24  149 1    
    52   25   26 2    
    53   25   27 1    
    54   27   28 1    
    55   27   29 1    
    56   27  150 1    
    57   28  151 1    
    58   28  152 1    
    59   28  153 1    
    60   29   30 am   BACKBONE|DICT|INTERRES
    61   29  154 1    
    62   30   31 2    
    63   30   32 1    
    64   32   33 1    
    65   32   34 1    
    66   32  155 1    
    67   33  156 1    
    68   33  157 1    
    69   33  158 1    
    70   34   35 am   BACKBONE|DICT|INTERRES
    71   34  159 1    
    72   35   36 2    
    73   35   37 1    
    74   37   38 1    
    75   37   39 1    
    76   37  160 1    
    77   38  161 1    
    78   38  162 1    
    79   38  163 1    
    80   39   40 am   BACKBONE|DICT|INTERRES
    81   39  164 1    
    82   40   41 2    
    83   40   42 1    
    84   42   43 1    
    85   42   44 1    
    86   42  165 1    
    87   43  166 1    
    88   43  167 1    
    89   43  168 1    
    90   44   45 am   BACKBONE|DICT|INTERRES
    91   44  169 1    
    92   45   46 2    
    93   45   47 1    
    94   47   48 1    
    95   47   49 1    
    96   47  170 1    
    97   48  171 1    
    98   48  172 1    
    99   48  173 1    
   100   49   50 am   BACKBONE|DICT|INTERRES
   101   49  174 1    
   102   50   51 2    
   103   50   52 1    
   104   52   53 1    
   105   52   54 1    
   106   52  175 1    
   107   53  176 1    
   108   53  177 1    
   109   53  178 1    
   110   54   55 am   BACKBONE|DICT|INTERRES
   111   54  179 1    
   112   55   56 2    
   113   55   57 1    
   114   57   58 1    
   115   57   59 1    
   116   57  180 1    
   117   58  181 1    
   118   58  182 1    
   119   58  183 1    
   120   59   60 am   BACKBONE|DICT|INTERRES
   121   59  184 1    
   122   60   61 2    
   123   60   62 1    
   124   62   63 1    
   125   62   64 1    
   126   62  185 1    
   127   63  186 1    
   128   63  187 1    
   129   63  188 1    
   130   64   65 am   BACKBONE|DICT|INTERRES
   131   64  189 1    
   132   65   66 2    
   133   67   68 2    
   134   67   69 am   BACKBONE|DICT|INTERRES
   135   69   70 1    
   136   69  190 1    
   137   70   71 1    
   138   70   72 1    
   139   70  191 1    
   140   71  192 1    
   141   71  193 1    
   142   71  194 1    
   143   72   73 2    
   144   72   74 am   BACKBONE|DICT|INTERRES
   145   74   75 1    
   146   74  195 1    
   147   75   76 1    
   148   75   77 1    
   149   75  196 1    
   150   76  197 1    
   151   76  198 1    
   152   76  199 1    
   153   77   78 2    
   154   77   79 am   BACKBONE|DICT|INTERRES
   155   79   80 1    
   156   79  200 1    
   157   80   81 1    
   158   80   82 1    
   159   80  201 1    
   160   81  202 1    
   161   81  203 1    
   162   81  204 1    
   163   82   83 2    
   164   82   84 am   BACKBONE|DICT|INTERRES
   165   84   85 1    
   166   84  205 1    
   167   85   86 1    
   168   85   87 1    
   169   85  206 1    
   170   86  207 1    
   171   86  208 1    
   172   86  209 1    
   173   87   88 2    
   174   87   89 am   BACKBONE|DICT|INTERRES
   175   89   90 1    
   176   89  210 1    
   177   90   91 1    
   178   90   92 1    
   179   90  211 1    
   180   91  212 1    
   181   91  213 1    
   182   91  214 1    
   183   92   93 2    
   184   92   94 am   BACKBONE|DICT|INTERRES
   185   94   95 1    
   186   94  215 1    
   187   95   96 1    
   188   95   97 1    
   189   95  216 1    
   190   96  217 1    
   191   96  218 1    
   192   96  219 1    
   193   97   98 2    
   194   97   99 am   BACKBONE|DICT|INTERRES
   195   99  100 1    
   196   99  220 1    
   197  100  101 1    
   198  100  102 1    
   199  100  221 1    
   200  101  222 1    
   201  101  223 1    
   202  101  224 1    
   203  102  103 2    
   204  102  104 am   BACKBONE|DICT|INTERRES
   205  104  105 1    
   206  104  225 1    
   207  105  106 1    
   208  105  107 1    
   209  105  226 1    
   210  106  227 1    
   211  106  228 1    
   212  106  229 1    
   213  107  108 2    
   214  107  109 am   BACKBONE|DICT|INTERRES
   215  109  110 1    
   216  109  230 1    
   217  110  111 1    
   218  110  112 1    
   219  110  231 1    
   220  111  232 1    
   221  111  233 1    
   222  111  234 1    
   223  112  113 2    
   224  112  114 am   BACKBONE|DICT|INTERRES
   225  114  115 1    
   226  114  235 1    
   227  115  116 1    
   228  115  117 1    
   229  115  236 1    
   230  116  237 1    
   231  116  238 1    
   232  116  239 1    
   233  117  118 2    
   234  117  119 am   BACKBONE|DICT|INTERRES
   235  119  120 1    
   236  119  240 1    
   237  120  121 1    
   238  120  124 1    
   239  120  241 1    
   240  121  122 am   BACKBONE|DICT|INTERRES
   241  121  123 2    
   242  122  242 1    
   243  122  243 1    
   244  124  125 1    
   245  124  244 1    
   246  124  245 1    
   247  125  126 1    
   248  126  246 1    
   249  126  247 1    
@<TRIPOS>SUBSTRUCTURE
     1 UNK         1 GROUP             0       ****    0 ROOT    
