@<TRIPOS>MOLECULE
3R540
247   249    1
SMALL
USER_CHARGES


@<TRIPOS>ATOM
      1 CA         -1.2094   -8.3872  -49.2517 C.3       0 UNK        -0.1800 
      2 C          -0.5184   -9.5673  -48.5828 C.2       0 UNK         0.5000 
      3 O           0.6592   -9.4719  -48.2356 O.2       0 UNK        -0.5000 
      4 N          -1.2428  -10.6790  -48.4094 N.am      1 UNK        -0.5000 
      5 CA         -0.7674  -11.8957  -47.7422 C.3       1 UNK         0.1400 
      6 C6         -1.6810  -13.1132  -48.0294 C.3       23 UNK        -0.0398 
      7 S7         -1.7614  -13.4989  -49.8126 S.3       23 UNK        -0.2404 
      8 C8         -3.4532  -12.9672  -50.2319 C.3       23 UNK        -0.0205 
      9 C9         -4.4104  -14.1435  -50.3673 C.ar      23 UNK        -0.0193 
     10 C10        -5.0651  -14.3693  -51.5811 C.ar      23 UNK        -0.1150 
     11 C11        -5.9511  -15.4402  -51.7267 C.ar      23 UNK        -0.0193 
     12 C12        -6.1794  -16.2942  -50.6435 C.ar      23 UNK        -0.1150 
     13 C13        -5.5363  -16.0765  -49.4203 C.ar      23 UNK        -0.0193 
     14 C14        -4.6599  -14.9953  -49.2864 C.ar      23 UNK        -0.1150 
     15 C15        -5.7988  -16.9961  -48.2377 C.3       23 UNK        -0.0205 
     16 S16        -4.4253  -18.1600  -47.9770 S.3       23 UNK        -0.2404 
     17 C17        -5.0798  -19.1470  -46.5906 C.3       23 UNK        -0.0398 
     18 CA         -4.5111  -20.5846  -46.5852 C.3       11 UNK         0.1400 
     19 N          -3.0604  -20.6239  -46.3492 N.am      11 UNK        -0.5000 
     20 C          -2.2932  -21.7230  -46.4111 C.2       10 UNK         0.5000 
     21 O          -2.7330  -22.8409  -46.6814 O.2       10 UNK        -0.5000 
     22 CA         -0.7962  -21.5675  -46.0947 C.3       10 UNK         0.1400 
     23 CB         -0.0091  -21.2767  -47.3810 C.3       10 UNK        -0.1800 
     24 N          -0.5167  -20.5302  -45.1014 N.am      10 UNK        -0.5000 
     25 C          -0.9644  -20.5369  -43.8364 C.2       9 UNK         0.5000 
     26 O          -1.6464  -21.4422  -43.3575 O.2       9 UNK        -0.5000 
     27 CA         -0.6447  -19.2969  -42.9829 C.3       9 UNK         0.1400 
     28 CB          0.7569  -19.3993  -42.3632 C.3       9 UNK        -0.1800 
     29 N          -0.7573  -18.0625  -43.7613 N.am      9 UNK        -0.5000 
     30 C          -1.9193  -17.5522  -44.1961 C.2       8 UNK         0.5000 
     31 O          -3.0174  -18.0378  -43.9278 O.2       8 UNK        -0.5000 
     32 CA         -1.8458  -16.3037  -45.0939 C.3       8 UNK         0.1400 
     33 CB         -2.1185  -15.0354  -44.2738 C.3       8 UNK        -0.1800 
     34 N          -0.5564  -16.1912  -45.7841 N.am      8 UNK        -0.5000 
     35 C          -0.2507  -16.9105  -46.8741 C.2       7 UNK         0.5000 
     36 O          -1.0187  -17.7136  -47.4003 O.2       7 UNK        -0.5000 
     37 CA          1.1680  -16.7409  -47.4386 C.3       7 UNK         0.1400 
     38 CB          1.3093  -15.4155  -48.2012 C.3       7 UNK        -0.1800 
     39 N           2.1963  -16.8111  -46.4037 N.am      7 UNK        -0.5000 
     40 C           2.4983  -17.8995  -45.6857 C.2       6 UNK         0.5000 
     41 O           1.8631  -18.9508  -45.7614 O.2       6 UNK        -0.5000 
     42 CA          3.6705  -17.8050  -44.6874 C.3       6 UNK         0.1400 
     43 CB          4.7512  -18.8652  -44.9754 C.3       6 UNK        -0.1800 
     44 N           4.2510  -16.4636  -44.5483 N.am      6 UNK        -0.5000 
     45 C           4.9869  -15.7592  -45.4231 C.2       5 UNK         0.5000 
     46 O           5.3331  -16.1839  -46.5249 O.2       5 UNK        -0.5000 
     47 CA          5.3549  -14.3131  -45.0274 C.3       5 UNK         0.1400 
     48 CB          4.7126  -13.3111  -46.0021 C.3       5 UNK        -0.1800 
     49 N           4.9229  -13.9749  -43.6702 N.am      5 UNK        -0.5000 
     50 C           5.6124  -14.2337  -42.5507 C.2       4 UNK         0.5000 
     51 O           6.7472  -14.7105  -42.5384 O.2       4 UNK        -0.5000 
     52 CA          4.8901  -13.9418  -41.2199 C.3       4 UNK         0.1400 
     53 CB          5.2428  -12.5347  -40.7145 C.3       4 UNK        -0.1800 
     54 N           3.4316  -14.0617  -41.3223 N.am      4 UNK        -0.5000 
     55 C           2.7679  -15.2074  -41.5391 C.2       3 UNK         0.5000 
     56 O           3.3151  -16.3035  -41.6432 O.2       3 UNK        -0.5000 
     57 CA          1.2471  -15.1005  -41.7449 C.3       3 UNK         0.1400 
     58 CB          0.5015  -15.2300  -40.4096 C.3       3 UNK        -0.1800 
     59 N           0.8685  -13.8468  -42.4000 N.am      3 UNK        -0.5000 
     60 C           1.0614  -13.5935  -43.6996 C.2       2 UNK         0.5000 
     61 O           1.5342  -14.4104  -44.4969 O.2       2 UNK        -0.5000 
     62 CA          0.6668  -12.1946  -44.1830 C.3       2 UNK         0.1400 
     63 CB          1.8028  -11.1925  -43.9203 C.3       2 UNK        -0.1800 
     64 N           0.3947  -12.2478  -45.6154 N.am      2 UNK        -0.5000 
     65 C          -0.6409  -11.6617  -46.2233 C.2       1 UNK         0.5000 
     66 O          -1.4891  -10.9846  -45.6364 O.2       1 UNK        -0.5000 
     67 C          -5.3071  -21.4847  -45.6149 C.2       11 UNK         0.5000 
     68 O          -6.3310  -22.0368  -46.0184 O.2       11 UNK        -0.5000 
     69 N          -4.7996  -21.6784  -44.3878 N.am      12 UNK        -0.5000 
     70 CA         -5.3614  -22.6014  -43.3959 C.3       12 UNK         0.1400 
     71 CB         -4.7310  -22.3146  -42.0249 C.3       12 UNK        -0.1800 
     72 C          -5.1864  -24.0884  -43.7737 C.2       12 UNK         0.5000 
     73 O          -5.9216  -24.9314  -43.2595 O.2       12 UNK        -0.5000 
     74 N          -4.2419  -24.3797  -44.6776 N.am      13 UNK        -0.5000 
     75 CA         -3.9648  -25.6978  -45.2453 C.3       13 UNK         0.1400 
     76 CB         -2.4542  -25.9733  -45.1275 C.3       13 UNK        -0.1800 
     77 C          -4.4550  -25.7781  -46.7059 C.2       13 UNK         0.5000 
     78 O          -3.8467  -26.4795  -47.5151 O.2       13 UNK        -0.5000 
     79 N          -5.5273  -25.0380  -47.0322 N.am      14 UNK        -0.5000 
     80 CA         -6.1605  -24.9335  -48.3537 C.3       14 UNK         0.1400 
     81 CB         -6.8082  -26.2744  -48.7590 C.3       14 UNK        -0.1800 
     82 C          -5.2007  -24.3797  -49.4272 C.2       14 UNK         0.5000 
     83 O          -5.1274  -24.9119  -50.5356 O.2       14 UNK        -0.5000 
     84 N          -4.4502  -23.3364  -49.0478 N.am      15 UNK        -0.5000 
     85 CA         -3.3870  -22.6819  -49.8176 C.3       15 UNK         0.1400 
     86 CB         -3.9572  -21.9808  -51.0616 C.3       15 UNK        -0.1800 
     87 C          -2.2342  -23.6577  -50.1219 C.2       15 UNK         0.5000 
     88 O          -1.7877  -23.7599  -51.2653 O.2       15 UNK        -0.5000 
     89 N          -1.8180  -24.3895  -49.0766 N.am      16 UNK        -0.5000 
     90 CA         -0.8499  -25.4912  -49.0864 C.3       16 UNK         0.1400 
     91 CB          0.5735  -24.9560  -49.3479 C.3       16 UNK        -0.1800 
     92 C          -1.2620  -26.6097  -50.0664 C.2       16 UNK         0.5000 
     93 O          -0.4705  -27.0053  -50.9212 O.2       16 UNK        -0.5000 
     94 N          -2.5235  -27.0534  -49.9626 N.am      17 UNK        -0.5000 
     95 CA         -3.2065  -27.9856  -50.8695 C.3       17 UNK         0.1400 
     96 CB         -2.6556  -29.4149  -50.6896 C.3       17 UNK        -0.1800 
     97 C          -3.1782  -27.5036  -52.3385 C.2       17 UNK         0.5000 
     98 O          -2.8849  -28.2805  -53.2489 O.2       17 UNK        -0.5000 
     99 N          -3.4478  -26.2036  -52.5181 N.am      18 UNK        -0.5000 
    100 CA        -3.4112  -25.4217  -53.7566 C.3       18 UNK         0.1400 
    101 CB        -4.4557  -25.9392  -54.7664 C.3       18 UNK        -0.1800 
    102 C         -2.0127  -25.2546  -54.3938 C.2       18 UNK         0.5000 
    103 O         -1.9286  -24.7327  -55.5066 O.2       18 UNK        -0.5000 
    104 N         -0.9326  -25.6472  -53.7008 N.am      19 UNK        -0.5000 
    105 CA         0.4446  -25.4599  -54.1707 C.3       19 UNK         0.1400 
    106 CB         1.3899  -26.3991  -53.4078 C.3       19 UNK        -0.1800 
    107 C          0.9269  -24.0016  -54.0458 C.2       19 UNK         0.5000 
    108 O          1.8336  -23.6032  -54.7778 O.2       19 UNK        -0.5000 
    109 N          0.3137  -23.2346  -53.1365 N.am      20 UNK        -0.5000 
    110 CA         0.5934  -21.8252  -52.8742 C.3       20 UNK         0.1400 
    111 CB         1.1697  -21.6895  -51.4520 C.3       20 UNK        -0.1800 
    112 C         -0.6836  -20.9878  -53.0750 C.2       20 UNK         0.5000 
    113 O         -0.9108  -20.0391  -52.3220 O.2       20 UNK        -0.5000 
    114 N         -1.4982  -21.3701  -54.0735 N.am      21 UNK        -0.5000 
    115 CA        -2.7889  -20.7876  -54.4602 C.3       21 UNK         0.1400 
    116 CB        -3.2580  -21.4421  -55.7702 C.3       21 UNK        -0.1800 
    117 C         -2.7675  -19.2506  -54.5766 C.2       21 UNK         0.5000 
    118 O         -2.3394  -18.7192  -55.6034 O.2       21 UNK        -0.5000 
    119 N         -3.2071  -18.5813  -53.5027 N.am      22 UNK        -0.5000 
    120 CA        -3.2222  -17.1179  -53.3320 C.3       22 UNK         0.1400 
    121 C         -1.8078  -16.4592  -53.3182 C.2       22 UNK         0.5000 
    122 N         -0.7554  -17.1848  -52.9570 N.am      22 UNK        -0.7600 
    123 O         -1.6569  -15.2778  -53.6180 O.2       22 UNK        -0.5000 
    124 C124       -4.2270  -16.4133  -54.2874 C.3       23 UNK        -0.0398 
    125 S125       -5.9360  -17.0100  -54.0318 S.3       23 UNK        -0.2404 
    126 C126       -6.6696  -15.6607  -53.0515 C.3       23 UNK        -0.0205 
    127 H127       -2.2482   -8.6104  -49.4959 H         1 UNK         0.0600 
    128 H128       -0.6924   -8.1235  -50.1743 H         1 UNK         0.0600 
    129 H129       -1.1944   -7.5203  -48.5912 H         1 UNK         0.0600 
    130 H130       -2.2098  -10.6870  -48.6962 H         1 UNK         0.3000 
    131 H131        0.2271  -12.1207  -48.1347 H         1 UNK         0.0600 
    132 H132       -2.6833  -12.9503  -47.6300 H         1 UNK         0.0800 
    133 H133       -1.3031  -14.0018  -47.5231 H         1 UNK         0.0800 
    134 H134       -3.8412  -12.2667  -49.4920 H         1 UNK         0.0800 
    135 H135       -3.4023  -12.4113  -51.1694 H         1 UNK         0.0800 
    136 H136       -4.8856  -13.7078  -52.4170 H         1 UNK         0.1150 
    137 H137       -6.8605  -17.1263  -50.7546 H         1 UNK         0.1150 
    138 H138       -4.1620  -14.8271  -48.3422 H         1 UNK         0.1150 
    139 H139       -5.9438  -16.4000  -47.3355 H         1 UNK         0.0800 
    140 H140       -6.7237  -17.5536  -48.3933 H         1 UNK         0.0800 
    141 H141       -6.1678  -19.1742  -46.6785 H         1 UNK         0.0800 
    142 H142       -4.8639  -18.6346  -45.6531 H         1 UNK         0.0800 
    143 H143       -4.6779  -20.9951  -47.5817 H         1 UNK         0.0600 
    144 H144       -2.6165  -19.7390  -46.1461 H         1 UNK         0.3000 
    145 H145       -0.4485  -22.5196  -45.6889 H         1 UNK         0.0600 
    146 H146        1.0647  -21.2717  -47.1935 H         1 UNK         0.0600 
    147 H147       -0.2021  -22.0344  -48.1407 H         1 UNK         0.0600 
    148 H148       -0.2779  -20.3102  -47.8084 H         1 UNK         0.0600 
    149 H149        0.0991  -19.7799  -45.3994 H         1 UNK         0.3000 
    150 H150       -1.3709  -19.2525  -42.1682 H         1 UNK         0.0600 
    151 H151        0.8147  -20.2495  -41.6826 H         1 UNK         0.0600 
    152 H152        1.0071  -18.5069  -41.7890 H         1 UNK         0.0600 
    153 H153        1.5258  -19.5421  -43.1214 H         1 UNK         0.0600 
    154 H154        0.1005  -17.6274  -44.0624 H         1 UNK         0.3000 
    155 H155       -2.6358  -16.3877  -45.8441 H         1 UNK         0.0600 
    156 H156       -3.1436  -15.0335  -43.9014 H         1 UNK         0.0600 
    157 H157       -1.9911  -14.1343  -44.8729 H         1 UNK         0.0600 
    158 H158       -1.4647  -14.9684  -43.4058 H         1 UNK         0.0600 
    159 H159        0.1478  -15.5816  -45.3814 H         1 UNK         0.3000 
    160 H160        1.3442  -17.5577  -48.1419 H         1 UNK         0.0600 
    161 H161        1.1911  -14.5553  -47.5429 H         1 UNK         0.0600 
    162 H162        0.5599  -15.3382  -48.9896 H         1 UNK         0.0600 
    163 H163        2.2873  -15.3388  -48.6768 H         1 UNK         0.0600 
    164 H164        2.7356  -15.9744  -46.2390 H         1 UNK         0.3000 
    165 H165        3.2472  -18.0365  -43.7103 H         1 UNK         0.0600 
    166 H166        5.1778  -18.7541  -45.9724 H         1 UNK         0.0600 
    167 H167        5.5641  -18.8068  -44.2517 H         1 UNK         0.0600 
    168 H168        4.3342  -19.8711  -44.9137 H         1 UNK         0.0600 
    169 H169        4.0340  -16.0166  -43.6669 H         1 UNK         0.3000 
    170 H170        6.4401  -14.2161  -45.0992 H         1 UNK         0.0600 
    171 H171        5.0521  -13.4850  -47.0240 H         1 UNK         0.0600 
    172 H172        3.6249  -13.3868  -46.0020 H         1 UNK         0.0600 
    173 H173        4.9780  -12.2854  -45.7453 H         1 UNK         0.0600 
    174 H174        3.9940  -13.5922  -43.5801 H         1 UNK         0.3000 
    175 H175        5.2413  -14.6699  -40.4855 H         1 UNK         0.0600 
    176 H176        4.8978  -11.7610  -41.4017 H         1 UNK         0.0600 
    177 H177        4.7957  -12.3422  -39.7390 H         1 UNK         0.0600 
    178 H178        6.3218  -12.4185  -40.6042 H         1 UNK         0.0600 
    179 H179        2.9016  -13.2068  -41.2419 H         1 UNK         0.3000 
    180 H180        0.9406  -15.9321  -42.3830 H         1 UNK         0.0600 
    181 H181        0.7522  -14.4184  -39.7255 H         1 UNK         0.0600 
    182 H182        0.7518  -16.1684  -39.9129 H         1 UNK         0.0600 
    183 H183       -0.5783  -15.2220  -40.5602 H         1 UNK         0.0600 
    184 H184        0.4600  -13.1346  -41.8112 H         1 UNK         0.3000 
    185 H185       -0.2249  -11.8856  -43.6333 H         1 UNK         0.0600 
    186 H186        2.0333  -11.1245  -42.8565 H         1 UNK         0.0600 
    187 H187        2.7194  -11.4738  -44.4398 H         1 UNK         0.0600 
    188 H188        1.5261  -10.1925  -44.2551 H         1 UNK         0.0600 
    189 H189        1.0275  -12.8348  -46.1406 H         1 UNK         0.3000 
    190 H190       -3.9304  -21.2241  -44.1389 H         1 UNK         0.3000 
    191 H191       -6.4335  -22.4066  -43.3227 H         1 UNK         0.0600 
    192 H192       -3.6641  -22.5386  -42.0174 H         1 UNK         0.0600 
    193 H193       -4.8581  -21.2700  -41.7402 H         1 UNK         0.0600 
    194 H194       -5.1966  -22.9222  -41.2479 H         1 UNK         0.0600 
    195 H195       -3.7083  -23.6199  -45.0846 H         1 UNK         0.3000 
    196 H196       -4.4948  -26.4730  -44.6890 H         1 UNK         0.0600 
    197 H197       -2.1232  -25.9075  -44.0911 H         1 UNK         0.0600 
    198 H198       -1.8678  -25.2626  -45.7106 H         1 UNK         0.0600 
    199 H199       -2.2066  -26.9746  -45.4819 H         1 UNK         0.0600 
    200 H200       -5.9378  -24.4633  -46.3085 H         1 UNK         0.3000 
    201 H201       -6.9603  -24.1982  -48.2539 H         1 UNK         0.0600 
    202 H202       -7.3789  -26.1685  -49.6824 H         1 UNK         0.0600 
    203 H203       -7.4973  -26.6265  -47.9915 H         1 UNK         0.0600 
    204 H204       -6.0641  -27.0538  -48.9242 H         1 UNK         0.0600 
    205 H205       -4.5180  -23.0510  -48.0810 H         1 UNK         0.3000 
    206 H206       -2.9671  -21.8996  -49.1869 H         1 UNK         0.0600 
    207 H207       -4.8073  -21.3485  -50.8055 H         1 UNK         0.0600 
    208 H208       -4.2796  -22.6893  -51.8245 H         1 UNK         0.0600 
    209 H209       -3.1972  -21.3363  -51.4981 H         1 UNK         0.0600 
    210 H210       -2.2627  -24.2073  -48.1840 H         1 UNK         0.3000 
    211 H211       -0.8646  -25.9314  -48.0884 H         1 UNK         0.0600 
    212 H212        0.8488  -24.1925  -48.6211 H         1 UNK         0.0600 
    213 H213        1.3104  -25.7561  -49.2707 H         1 UNK         0.0600 
    214 H214        0.6680  -24.5225  -50.3436 H         1 UNK         0.0600 
    215 H215       -3.0872  -26.6999  -49.1916 H         1 UNK         0.3000 
    216 H216       -4.2552  -27.9931  -50.5693 H         1 UNK         0.0600 
    217 H217       -3.2304  -30.1319  -51.2769 H         1 UNK         0.0600 
    218 H218       -1.6150  -29.4912  -51.0066 H         1 UNK         0.0600 
    219 H219       -2.7127  -29.7296  -49.6476 H         1 UNK         0.0600 
    220 H220       -3.7235  -25.6724  -51.6967 H         1 UNK         0.3000 
    221 H221       -3.7151  -24.4154  -53.4668 H         1 UNK         0.0600 
    222 H222       -4.1870  -26.9189  -55.1620 H         1 UNK         0.0600 
    223 H223       -5.4410  -26.0198  -54.3073 H         1 UNK         0.0600 
    224 H224       -4.5506  -25.2609  -55.6151 H         1 UNK         0.0600 
    225 H225       -1.0505  -26.0552  -52.7802 H         1 UNK         0.3000 
    226 H226        0.4860  -25.7340  -55.2270 H         1 UNK         0.0600 
    227 H227        1.0342  -27.4294  -53.4331 H         1 UNK         0.0600 
    228 H228        2.3870  -26.3868  -53.8493 H         1 UNK         0.0600 
    229 H229        1.4956  -26.1027  -52.3640 H         1 UNK         0.0600 
    230 H230       -0.4428  -23.6320  -52.5819 H         1 UNK         0.3000 
    231 H231        1.3320  -21.4403  -53.5796 H         1 UNK         0.0600 
    232 H232        1.4594  -20.6595  -51.2409 H         1 UNK         0.0600 
    233 H233        2.0583  -22.3081  -51.3259 H         1 UNK         0.0600 
    234 H234        0.4438  -21.9886  -50.6952 H         1 UNK         0.0600 
    235 H235       -1.2015  -22.1637  -54.6231 H         1 UNK         0.3000 
    236 H236       -3.5204  -21.0556  -53.6992 H         1 UNK         0.0600 
    237 H237       -3.4450  -22.5069  -55.6345 H         1 UNK         0.0600 
    238 H238       -4.1899  -20.9955  -56.1196 H         1 UNK         0.0600 
    239 H239       -2.5204  -21.3284  -56.5656 H         1 UNK         0.0600 
    240 H240       -3.4843  -19.1091  -52.6886 H         1 UNK         0.3000 
    241 H241       -3.5845  -16.9562  -52.3165 H         1 UNK         0.0600 
    242 H242        0.1573  -16.7601  -52.9401 H         1 UNK         0.3800 
    243 H243       -0.8648  -18.1626  -52.7000 H         1 UNK         0.3800 
    244 H244       -4.2075  -15.3317  -54.1515 H         1 UNK         0.0800 
    245 H245       -3.9503  -16.5834  -55.3283 H         1 UNK         0.0800 
    246 H246       -7.7171  -15.8963  -52.8583 H         1 UNK         0.0800 
    247 H247       -6.6711  -14.7454  -53.6456 H         1 UNK         0.0800 
@<TRIPOS>BOND
     1    1    2 1    
     2    1  127 1    
     3    1  128 1    
     4    1  129 1    
     5    2    3 2    
     6    2    4 am   BACKBONE|DICT|INTERRES
     7    4    5 1    
     8    4  130 1    
     9    5    6 1    
    10    5   65 1    
    11    5  131 1    
    12    6    7 1    
    13    6  132 1    
    14    6  133 1    
    15    7    8 1    
    16    8    9 1    
    17    8  134 1    
    18    8  135 1    
    19    9   10 ar   
    20    9   14 ar   
    21   10   11 ar   
    22   10  136 1    
    23   11   12 ar   
    24   11  126 1    
    25   12   13 ar   
    26   12  137 1    
    27   13   14 ar   
    28   13   15 1    
    29   14  138 1    
    30   15   16 1    
    31   15  139 1    
    32   15  140 1    
    33   16   17 1    
    34   17   18 1    
    35   17  141 1    
    36   17  142 1    
    37   18   19 1    
    38   18   67 1    
    39   18  143 1    
    40   19   20 am   BACKBONE|DICT|INTERRES
    41   19  144 1    
    42   20   21 2    
    43   20   22 1    
    44   22   23 1    
    45   22   24 1    
    46   22  145 1    
    47   23  146 1    
    48   23  147 1    
    49   23  148 1    
    50   24   25 am   BACKBONE|DICT|INTERRES
    51   24  149 1    
    52   25   26 2    
    53   25   27 1    
    54   27   28 1    
    55   27   29 1    
    56   27  150 1    
    57   28  151 1    
    58   28  152 1    
    59   28  153 1    
    60   29   30 am   BACKBONE|DICT|INTERRES
    61   29  154 1    
    62   30   31 2    
    63   30   32 1    
    64   32   33 1    
    65   32   34 1    
    66   32  155 1    
    67   33  156 1    
    68   33  157 1    
    69   33  158 1    
    70   34   35 am   BACKBONE|DICT|INTERRES
    71   34  159 1    
    72   35   36 2    
    73   35   37 1    
    74   37   38 1    
    75   37   39 1    
    76   37  160 1    
    77   38  161 1    
    78   38  162 1    
    79   38  163 1    
    80   39   40 am   BACKBONE|DICT|INTERRES
    81   39  164 1    
    82   40   41 2    
    83   40   42 1    
    84   42   43 1    
    85   42   44 1    
    86   42  165 1    
    87   43  166 1    
    88   43  167 1    
    89   43  168 1    
    90   44   45 am   BACKBONE|DICT|INTERRES
    91   44  169 1    
    92   45   46 2    
    93   45   47 1    
    94   47   48 1    
    95   47   49 1    
    96   47  170 1    
    97   48  171 1    
    98   48  172 1    
    99   48  173 1    
   100   49   50 am   BACKBONE|DICT|INTERRES
   101   49  174 1    
   102   50   51 2    
   103   50   52 1    
   104   52   53 1    
   105   52   54 1    
   106   52  175 1    
   107   53  176 1    
   108   53  177 1    
   109   53  178 1    
   110   54   55 am   BACKBONE|DICT|INTERRES
   111   54  179 1    
   112   55   56 2    
   113   55   57 1    
   114   57   58 1    
   115   57   59 1    
   116   57  180 1    
   117   58  181 1    
   118   58  182 1    
   119   58  183 1    
   120   59   60 am   BACKBONE|DICT|INTERRES
   121   59  184 1    
   122   60   61 2    
   123   60   62 1    
   124   62   63 1    
   125   62   64 1    
   126   62  185 1    
   127   63  186 1    
   128   63  187 1    
   129   63  188 1    
   130   64   65 am   BACKBONE|DICT|INTERRES
   131   64  189 1    
   132   65   66 2    
   133   67   68 2    
   134   67   69 am   BACKBONE|DICT|INTERRES
   135   69   70 1    
   136   69  190 1    
   137   70   71 1    
   138   70   72 1    
   139   70  191 1    
   140   71  192 1    
   141   71  193 1    
   142   71  194 1    
   143   72   73 2    
   144   72   74 am   BACKBONE|DICT|INTERRES
   145   74   75 1    
   146   74  195 1    
   147   75   76 1    
   148   75   77 1    
   149   75  196 1    
   150   76  197 1    
   151   76  198 1    
   152   76  199 1    
   153   77   78 2    
   154   77   79 am   BACKBONE|DICT|INTERRES
   155   79   80 1    
   156   79  200 1    
   157   80   81 1    
   158   80   82 1    
   159   80  201 1    
   160   81  202 1    
   161   81  203 1    
   162   81  204 1    
   163   82   83 2    
   164   82   84 am   BACKBONE|DICT|INTERRES
   165   84   85 1    
   166   84  205 1    
   167   85   86 1    
   168   85   87 1    
   169   85  206 1    
   170   86  207 1    
   171   86  208 1    
   172   86  209 1    
   173   87   88 2    
   174   87   89 am   BACKBONE|DICT|INTERRES
   175   89   90 1    
   176   89  210 1    
   177   90   91 1    
   178   90   92 1    
   179   90  211 1    
   180   91  212 1    
   181   91  213 1    
   182   91  214 1    
   183   92   93 2    
   184   92   94 am   BACKBONE|DICT|INTERRES
   185   94   95 1    
   186   94  215 1    
   187   95   96 1    
   188   95   97 1    
   189   95  216 1    
   190   96  217 1    
   191   96  218 1    
   192   96  219 1    
   193   97   98 2    
   194   97   99 am   BACKBONE|DICT|INTERRES
   195   99  100 1    
   196   99  220 1    
   197  100  101 1    
   198  100  102 1    
   199  100  221 1    
   200  101  222 1    
   201  101  223 1    
   202  101  224 1    
   203  102  103 2    
   204  102  104 am   BACKBONE|DICT|INTERRES
   205  104  105 1    
   206  104  225 1    
   207  105  106 1    
   208  105  107 1    
   209  105  226 1    
   210  106  227 1    
   211  106  228 1    
   212  106  229 1    
   213  107  108 2    
   214  107  109 am   BACKBONE|DICT|INTERRES
   215  109  110 1    
   216  109  230 1    
   217  110  111 1    
   218  110  112 1    
   219  110  231 1    
   220  111  232 1    
   221  111  233 1    
   222  111  234 1    
   223  112  113 2    
   224  112  114 am   BACKBONE|DICT|INTERRES
   225  114  115 1    
   226  114  235 1    
   227  115  116 1    
   228  115  117 1    
   229  115  236 1    
   230  116  237 1    
   231  116  238 1    
   232  116  239 1    
   233  117  118 2    
   234  117  119 am   BACKBONE|DICT|INTERRES
   235  119  120 1    
   236  119  240 1    
   237  120  121 1    
   238  120  124 1    
   239  120  241 1    
   240  121  122 am   BACKBONE|DICT|INTERRES
   241  121  123 2    
   242  122  242 1    
   243  122  243 1    
   244  124  125 1    
   245  124  244 1    
   246  124  245 1    
   247  125  126 1    
   248  126  246 1    
   249  126  247 1    
@<TRIPOS>SUBSTRUCTURE
     1 UNK         1 GROUP             0       ****    0 ROOT    
