@<TRIPOS>MOLECULE
3R540
247   249    1
SMALL
USER_CHARGES


@<TRIPOS>ATOM
      1 CA         -3.0031  -12.1427  -45.2225 C.3       0 UNK        -0.1800 
      2 C          -1.6175  -11.7308  -45.6994 C.2       0 UNK         0.5000 
      3 O          -1.0008  -10.8489  -45.1008 O.2       0 UNK        -0.5000 
      4 N          -1.1327  -12.3570  -46.7790 N.am      1 UNK        -0.5000 
      5 CA          0.2067  -12.1599  -47.3396 C.3       1 UNK         0.1400 
      6 C6          0.3662  -12.8161  -48.7363 C.3       23 UNK        -0.0398 
      7 S7         -0.1124  -14.5773  -48.8081 S.3       23 UNK        -0.2404 
      8 C8          0.0248  -14.8974  -50.5905 C.3       23 UNK        -0.0205 
      9 C9         -0.6244  -16.2229  -50.9517 C.ar      23 UNK        -0.0193 
     10 C10        -1.9659  -16.2613  -51.3413 C.ar      23 UNK        -0.1150 
     11 C11        -2.5760  -17.4743  -51.6727 C.ar      23 UNK        -0.0193 
     12 C12        -1.8357  -18.6580  -51.5977 C.ar      23 UNK        -0.1150 
     13 C13        -0.4890  -18.6298  -51.2252 C.ar      23 UNK        -0.0193 
     14 C14         0.1115  -17.4097  -50.9012 C.ar      23 UNK        -0.1150 
     15 C15         0.3212  -19.9159  -51.1853 C.3       23 UNK        -0.0205 
     16 S16         0.6248  -20.4674  -49.4789 S.3       23 UNK        -0.2404 
     17 C17        -1.0769  -20.7627  -48.8951 C.3       23 UNK        -0.0398 
     18 CA         -1.1265  -21.8812  -47.8324 C.3       11 UNK         0.1400 
     19 N          -0.5253  -21.4746  -46.5608 N.am      11 UNK        -0.5000 
     20 C          -0.2128  -22.3129  -45.5642 C.2       10 UNK         0.5000 
     21 O          -0.3807  -23.5300  -45.6221 O.2       10 UNK        -0.5000 
     22 CA          0.3125  -21.6816  -44.2620 C.3       10 UNK         0.1400 
     23 CB          1.7876  -21.2761  -44.3965 C.3       10 UNK        -0.1800 
     24 N          -0.4863  -20.5278  -43.8473 N.am      10 UNK        -0.5000 
     25 C          -1.7836  -20.5898  -43.5147 C.2       9 UNK         0.5000 
     26 O          -2.4273  -21.6382  -43.4674 O.2       9 UNK        -0.5000 
     27 CA         -2.4937  -19.2543  -43.2384 C.3       9 UNK         0.1400 
     28 CB         -2.2630  -18.7993  -41.7898 C.3       9 UNK        -0.1800 
     29 N          -2.0647  -18.2058  -44.1645 N.am      9 UNK        -0.5000 
     30 C          -2.3949  -18.1670  -45.4637 C.2       8 UNK         0.5000 
     31 O          -3.1174  -18.9998  -46.0100 O.2       8 UNK        -0.5000 
     32 CA         -1.7838  -17.0263  -46.3002 C.3       8 UNK         0.1400 
     33 CB         -2.5934  -15.7353  -46.1117 C.3       8 UNK        -0.1800 
     34 N          -0.3761  -16.7748  -45.9834 N.am      8 UNK        -0.5000 
     35 C           0.6008  -17.6813  -46.1291 C.2       7 UNK         0.5000 
     36 O           0.4201  -18.8105  -46.5778 O.2       7 UNK        -0.5000 
     37 CA          1.9987  -17.2972  -45.6146 C.3       7 UNK         0.1400 
     38 CB          2.8123  -16.6005  -46.7141 C.3       7 UNK        -0.1800 
     39 N           1.9618  -16.4707  -44.4044 N.am      7 UNK        -0.5000 
     40 C           1.4189  -16.8593  -43.2403 C.2       6 UNK         0.5000 
     41 O           0.8853  -17.9578  -43.0707 O.2       6 UNK        -0.5000 
     42 CA          1.4937  -15.8400  -42.0895 C.3       6 UNK         0.1400 
     43 CB          0.7844  -16.3039  -40.8010 C.3       6 UNK        -0.1800 
     44 N           2.8763  -15.4438  -41.8253 N.am      6 UNK        -0.5000 
     45 C           3.8930  -16.1969  -41.3798 C.2       5 UNK         0.5000 
     46 O           3.7891  -17.3742  -41.0353 O.2       5 UNK        -0.5000 
     47 CA          5.2709  -15.5114  -41.3133 C.3       5 UNK         0.1400 
     48 CB          6.0496  -15.7685  -42.6137 C.3       5 UNK        -0.1800 
     49 N           5.1444  -14.0656  -41.1190 N.am      5 UNK        -0.5000 
     50 C           5.2327  -13.4335  -39.9415 C.2       4 UNK         0.5000 
     51 O           5.5203  -13.9933  -38.8827 O.2       4 UNK        -0.5000 
     52 CA          4.9402  -11.9178  -39.9419 C.3       4 UNK         0.1400 
     53 CB          6.2281  -11.1215  -40.2013 C.3       4 UNK        -0.1800 
     54 N           3.9285  -11.5260  -40.9269 N.am      4 UNK        -0.5000 
     55 C           2.6313  -11.8563  -40.8573 C.2       3 UNK         0.5000 
     56 O           2.1326  -12.4517  -39.9021 O.2       3 UNK        -0.5000 
     57 CA          1.7359  -11.4893  -42.0603 C.3       3 UNK         0.1400 
     58 CB          0.9523  -10.2007  -41.7684 C.3       3 UNK        -0.1800 
     59 N           2.4099  -11.3481  -43.3584 N.am      3 UNK        -0.5000 
     60 C           3.2001  -12.2556  -43.9487 C.2       2 UNK         0.5000 
     61 O           3.5944  -13.2811  -43.3953 O.2       2 UNK        -0.5000 
     62 CA          3.5620  -11.9899  -45.4224 C.3       2 UNK         0.1400 
     63 CB          4.4704  -13.0845  -46.0167 C.3       2 UNK        -0.1800 
     64 N           2.3735  -11.8087  -46.2641 N.am      2 UNK        -0.5000 
     65 C           1.3061  -12.6190  -46.3580 C.2       1 UNK         0.5000 
     66 O           1.1633  -13.6703  -45.7250 O.2       1 UNK        -0.5000 
     67 C          -2.5627  -22.4130  -47.6659 C.2       11 UNK         0.5000 
     68 O          -2.9556  -23.2923  -48.4318 O.2       11 UNK        -0.5000 
     69 N          -3.3213  -21.9076  -46.6838 N.am      12 UNK        -0.5000 
     70 CA         -4.6367  -22.4395  -46.3236 C.3       12 UNK         0.1400 
     71 CB         -5.3760  -21.4563  -45.4045 C.3       12 UNK        -0.1800 
     72 C          -4.5350  -23.8366  -45.6876 C.2       12 UNK         0.5000 
     73 O          -5.2840  -24.7321  -46.0775 O.2       12 UNK        -0.5000 
     74 N          -3.5811  -24.0118  -44.7618 N.am      13 UNK        -0.5000 
     75 CA         -3.2827  -25.2853  -44.1020 C.3       13 UNK         0.1400 
     76 CB         -2.2943  -25.0448  -42.9508 C.3       13 UNK        -0.1800 
     77 C          -2.7458  -26.3556  -45.0725 C.2       13 UNK         0.5000 
     78 O          -3.1417  -27.5177  -44.9771 O.2       13 UNK        -0.5000 
     79 N          -1.8795  -25.9395  -46.0061 N.am      14 UNK        -0.5000 
     80 CA         -1.3121  -26.7812  -47.0631 C.3       14 UNK         0.1400 
     81 CB         -0.0521  -26.0945  -47.6144 C.3       14 UNK        -0.1800 
     82 C          -2.2945  -27.0828  -48.2139 C.2       14 UNK         0.5000 
     83 O          -1.9945  -27.9412  -49.0440 O.2       14 UNK        -0.5000 
     84 N          -3.4205  -26.3550  -48.2639 N.am      15 UNK        -0.5000 
     85 CA         -4.4619  -26.3674  -49.2989 C.3       15 UNK         0.1400 
     86 CB         -5.1159  -27.7578  -49.4323 C.3       15 UNK        -0.1800 
     87 C          -4.0015  -25.7938  -50.6572 C.2       15 UNK         0.5000 
     88 O          -4.7014  -25.9523  -51.6571 O.2       15 UNK        -0.5000 
     89 N          -2.8717  -25.0754  -50.6674 N.am      16 UNK        -0.5000 
     90 CA         -2.3577  -24.3255  -51.8125 C.3       16 UNK         0.1400 
     91 CB         -0.9228  -23.8661  -51.5149 C.3       16 UNK        -0.1800 
     92 C          -3.2546  -23.1250  -52.1616 C.2       16 UNK         0.5000 
     93 O          -3.4427  -22.8296  -53.3407 O.2       16 UNK        -0.5000 
     94 N          -3.8350  -22.4863  -51.1351 N.am      17 UNK        -0.5000 
     95 CA         -4.8176  -21.4129  -51.2936 C.3       17 UNK         0.1400 
     96 CB         -5.0094  -20.6840  -49.9562 C.3       17 UNK        -0.1800 
     97 C          -6.1633  -21.9295  -51.8356 C.2       17 UNK         0.5000 
     98 O          -6.7977  -21.2407  -52.6331 O.2       17 UNK        -0.5000 
     99 N          -6.5529  -23.1487  -51.4331 N.am      18 UNK        -0.5000 
    100 CA        -7.7449  -23.8446  -51.9275 C.3       18 UNK         0.1400 
    101 CB        -8.0709  -25.0298  -51.0060 C.3       18 UNK        -0.1800 
    102 C         -7.5839  -24.3055  -53.3890 C.2       18 UNK         0.5000 
    103 O         -8.5394  -24.2304  -54.1615 O.2       18 UNK        -0.5000 
    104 N         -6.3624  -24.7213  -53.7525 N.am      19 UNK        -0.5000 
    105 CA        -5.9425  -25.0316  -55.1218 C.3       19 UNK         0.1400 
    106 CB        -4.6436  -25.8514  -55.0631 C.3       19 UNK        -0.1800 
    107 C         -5.7507  -23.7804  -56.0080 C.2       19 UNK         0.5000 
    108 O         -5.5660  -23.9261  -57.2169 O.2       19 UNK        -0.5000 
    109 N         -5.7915  -22.5873  -55.3965 N.am      20 UNK        -0.5000 
    110 CA        -5.6184  -21.2598  -55.9898 C.3       20 UNK         0.1400 
    111 CB        -6.7353  -20.9541  -57.0093 C.3       20 UNK        -0.1800 
    112 C         -4.2014  -21.0202  -56.5490 C.2       20 UNK         0.5000 
    113 O         -4.0362  -20.2736  -57.5161 O.2       20 UNK        -0.5000 
    114 N         -3.1864  -21.6106  -55.9035 N.am      21 UNK        -0.5000 
    115 CA        -1.7640  -21.4125  -56.1910 C.3       21 UNK         0.1400 
    116 CB        -0.9915  -22.6722  -55.7601 C.3       21 UNK        -0.1800 
    117 C         -1.2440  -20.1262  -55.5126 C.2       21 UNK         0.5000 
    118 O         -0.2771  -20.1661  -54.7502 O.2       21 UNK        -0.5000 
    119 N         -1.9334  -19.0133  -55.7824 N.am      22 UNK        -0.5000 
    120 CA        -1.7574  -17.7071  -55.1285 C.3       22 UNK         0.1400 
    121 C         -0.8416  -16.7248  -55.9142 C.2       22 UNK         0.5000 
    122 N         -0.2881  -17.1015  -57.0607 N.am      22 UNK        -0.7600 
    123 O         -0.6180  -15.6010  -55.4731 O.2       22 UNK        -0.5000 
    124 C124       -3.1300  -17.0593  -54.7940 C.3       23 UNK        -0.0398 
    125 S125       -4.2219  -18.1575  -53.8171 S.3       23 UNK        -0.2404 
    126 C126       -4.0282  -17.4971  -52.1292 C.3       23 UNK        -0.0205 
    127 H127       -3.6335  -11.2628  -45.0938 H         1 UNK         0.0600 
    128 H128       -3.4946  -12.8090  -45.9315 H         1 UNK         0.0600 
    129 H129       -2.9313  -12.6558  -44.2635 H         1 UNK         0.0600 
    130 H130       -1.6712  -13.0897  -47.2168 H         1 UNK         0.3000 
    131 H131        0.3249  -11.0832  -47.4804 H         1 UNK         0.0600 
    132 H132       -0.2539  -12.2734  -49.4510 H         1 UNK         0.0800 
    133 H133        1.3909  -12.7133  -49.0984 H         1 UNK         0.0800 
    134 H134       -0.4494  -14.0887  -51.1489 H         1 UNK         0.0800 
    135 H135        1.0768  -14.8994  -50.8799 H         1 UNK         0.0800 
    136 H136       -2.5330  -15.3423  -51.3894 H         1 UNK         0.1150 
    137 H137       -2.3004  -19.5971  -51.8615 H         1 UNK         0.1150 
    138 H138        1.1499  -17.3865  -50.6017 H         1 UNK         0.1150 
    139 H139        1.2786  -19.7541  -51.6825 H         1 UNK         0.0800 
    140 H140       -0.1797  -20.7081  -51.7444 H         1 UNK         0.0800 
    141 H141       -1.6861  -21.0274  -49.7605 H         1 UNK         0.0800 
    142 H142       -1.4873  -19.8304  -48.5024 H         1 UNK         0.0800 
    143 H143       -0.5388  -22.7209  -48.2084 H         1 UNK         0.0600 
    144 H144       -0.2975  -20.4860  -46.4667 H         1 UNK         0.3000 
    145 H145        0.2397  -22.4339  -43.4739 H         1 UNK         0.0600 
    146 H146        2.1610  -20.8295  -43.4747 H         1 UNK         0.0600 
    147 H147        2.4095  -22.1450  -44.6146 H         1 UNK         0.0600 
    148 H148        1.9384  -20.5580  -45.2017 H         1 UNK         0.0600 
    149 H149       -0.0205  -19.6264  -43.8229 H         1 UNK         0.3000 
    150 H150       -3.5659  -19.4099  -43.3748 H         1 UNK         0.0600 
    151 H151       -1.2036  -18.6712  -41.5683 H         1 UNK         0.0600 
    152 H152       -2.6545  -19.5355  -41.0869 H         1 UNK         0.0600 
    153 H153       -2.7673  -17.8546  -41.5857 H         1 UNK         0.0600 
    154 H154       -1.4087  -17.5262  -43.8086 H         1 UNK         0.3000 
    155 H155       -1.8419  -17.3174  -47.3515 H         1 UNK         0.0600 
    156 H156       -2.4954  -15.3394  -45.1003 H         1 UNK         0.0600 
    157 H157       -3.6544  -15.9074  -46.2975 H         1 UNK         0.0600 
    158 H158       -2.2686  -14.9658  -46.8086 H         1 UNK         0.0600 
    159 H159       -0.1301  -15.8558  -45.6407 H         1 UNK         0.3000 
    160 H160        2.5162  -18.2227  -45.3560 H         1 UNK         0.0600 
    161 H161        2.3659  -15.6511  -47.0092 H         1 UNK         0.0600 
    162 H162        2.8674  -17.2231  -47.6082 H         1 UNK         0.0600 
    163 H163        3.8349  -16.4121  -46.3881 H         1 UNK         0.0600 
    164 H164        2.3388  -15.5353  -44.4827 H         1 UNK         0.3000 
    165 H165        0.9813  -14.9422  -42.4385 H         1 UNK         0.0600 
    166 H166        1.1890  -17.2440  -40.4252 H         1 UNK         0.0600 
    167 H167        0.8783  -15.5581  -40.0114 H         1 UNK         0.0600 
    168 H168       -0.2804  -16.4548  -40.9793 H         1 UNK         0.0600 
    169 H169        3.1230  -14.5228  -42.1777 H         1 UNK         0.3000 
    170 H170        5.8293  -15.9561  -40.4870 H         1 UNK         0.0600 
    171 H171        6.1793  -16.8376  -42.7864 H         1 UNK         0.0600 
    172 H172        5.5336  -15.3559  -43.4820 H         1 UNK         0.0600 
    173 H173        7.0434  -15.3227  -42.5718 H         1 UNK         0.0600 
    174 H174        4.8499  -13.5360  -41.9328 H         1 UNK         0.3000 
    175 H175        4.5695  -11.6520  -38.9496 H         1 UNK         0.0600 
    176 H176        6.6378  -11.3290  -41.1907 H         1 UNK         0.0600 
    177 H177        6.0499  -10.0484  -40.1289 H         1 UNK         0.0600 
    178 H178        6.9963  -11.3725  -39.4686 H         1 UNK         0.0600 
    179 H179        4.2533  -11.0316  -41.7446 H         1 UNK         0.3000 
    180 H180        1.0149  -12.3015  -42.1713 H         1 UNK         0.0600 
    181 H181        1.6139   -9.3364  -41.6991 H         1 UNK         0.0600 
    182 H182        0.4090  -10.2756  -40.8254 H         1 UNK         0.0600 
    183 H183        0.2170  -10.0008  -42.5484 H         1 UNK         0.0600 
    184 H184        2.1279  -10.5489  -43.9076 H         1 UNK         0.3000 
    185 H185        4.1155  -11.0502  -45.4441 H         1 UNK         0.0600 
    186 H186        3.9853  -14.0590  -46.0005 H         1 UNK         0.0600 
    187 H187        4.7372  -12.8600  -47.0492 H         1 UNK         0.0600 
    188 H188        5.3991  -13.1724  -45.4516 H         1 UNK         0.0600 
    189 H189        2.3713  -10.9613  -46.8147 H         1 UNK         0.3000 
    190 H190       -2.9749  -21.1274  -46.1382 H         1 UNK         0.3000 
    191 H191       -5.2255  -22.5433  -47.2360 H         1 UNK         0.0600 
    192 H192       -6.3728  -21.8260  -45.1618 H         1 UNK         0.0600 
    193 H193       -5.4979  -20.4855  -45.8852 H         1 UNK         0.0600 
    194 H194       -4.8481  -21.3004  -44.4647 H         1 UNK         0.0600 
    195 H195       -3.0305  -23.2090  -44.4700 H         1 UNK         0.3000 
    196 H196       -4.2134  -25.6641  -43.6747 H         1 UNK         0.0600 
    197 H197       -1.3481  -24.6385  -43.3091 H         1 UNK         0.0600 
    198 H198       -2.7023  -24.3443  -42.2219 H         1 UNK         0.0600 
    199 H199       -2.0749  -25.9737  -42.4231 H         1 UNK         0.0600 
    200 H200       -1.5376  -24.9824  -45.9575 H         1 UNK         0.3000 
    201 H201       -1.0169  -27.7367  -46.6249 H         1 UNK         0.0600 
    202 H202       -0.2881  -25.1357  -48.0765 H         1 UNK         0.0600 
    203 H203        0.4346  -26.7122  -48.3702 H         1 UNK         0.0600 
    204 H204        0.6774  -25.9151  -46.8244 H         1 UNK         0.0600 
    205 H205       -3.5561  -25.6678  -47.5341 H         1 UNK         0.3000 
    206 H206       -5.2318  -25.6830  -48.9400 H         1 UNK         0.0600 
    207 H207       -5.4346  -28.1378  -48.4617 H         1 UNK         0.0600 
    208 H208       -6.0003  -27.7152  -50.0685 H         1 UNK         0.0600 
    209 H209       -4.4369  -28.4873  -49.8738 H         1 UNK         0.0600 
    210 H210       -2.4228  -24.9092  -49.7767 H         1 UNK         0.3000 
    211 H211       -2.3340  -24.9911  -52.6774 H         1 UNK         0.0600 
    212 H212       -0.5086  -23.3022  -52.3513 H         1 UNK         0.0600 
    213 H213       -0.2659  -24.7184  -51.3410 H         1 UNK         0.0600 
    214 H214       -0.8775  -23.2260  -50.6346 H         1 UNK         0.0600 
    215 H215       -3.6326  -22.8018  -50.1914 H         1 UNK         0.3000 
    216 H216       -4.4270  -20.6964  -52.0186 H         1 UNK         0.0600 
    217 H217       -5.3841  -21.3551  -49.1849 H         1 UNK         0.0600 
    218 H218       -5.7289  -19.8704  -50.0554 H         1 UNK         0.0600 
    219 H219       -4.0757  -20.2479  -49.6019 H         1 UNK         0.0600 
    220 H220       -5.9612  -23.6576  -50.7953 H         1 UNK         0.3000 
    221 H221       -8.5848  -23.1474  -51.8894 H         1 UNK         0.0600 
    222 H222       -8.2132  -24.7029  -49.9758 H         1 UNK         0.0600 
    223 H223       -7.2819  -25.7809  -51.0147 H         1 UNK         0.0600 
    224 H224       -8.9918  -25.5225  -51.3203 H         1 UNK         0.0600 
    225 H225       -5.6590  -24.8434  -53.0314 H         1 UNK         0.3000 
    226 H226       -6.7149  -25.6470  -55.5873 H         1 UNK         0.0600 
    227 H227       -3.8253  -25.2749  -54.6316 H         1 UNK         0.0600 
    228 H228       -4.7713  -26.7530  -54.4636 H         1 UNK         0.0600 
    229 H229       -4.3324  -26.1656  -56.0600 H         1 UNK         0.0600 
    230 H230       -5.9280  -22.5899  -54.3952 H         1 UNK         0.3000 
    231 H231       -5.7323  -20.5534  -55.1668 H         1 UNK         0.0600 
    232 H232       -6.6474  -21.5683  -57.9057 H         1 UNK         0.0600 
    233 H233       -6.7004  -19.9107  -57.3247 H         1 UNK         0.0600 
    234 H234       -7.7208  -21.1279  -56.5771 H         1 UNK         0.0600 
    235 H235       -3.3941  -22.1463  -55.0629 H         1 UNK         0.3000 
    236 H236       -1.6276  -21.2926  -57.2676 H         1 UNK         0.0600 
    237 H237       -1.3769  -23.5610  -56.2601 H         1 UNK         0.0600 
    238 H238        0.0659  -22.5887  -56.0136 H         1 UNK         0.0600 
    239 H239       -1.0600  -22.8379  -54.6852 H         1 UNK         0.0600 
    240 H240       -2.7094  -19.0874  -56.4299 H         1 UNK         0.3000 
    241 H241       -1.2375  -17.8660  -54.1837 H         1 UNK         0.0600 
    242 H242        0.3076  -16.4602  -57.5609 H         1 UNK         0.3800 
    243 H243       -0.4564  -18.0237  -57.4300 H         1 UNK         0.3800 
    244 H244       -3.6559  -16.8004  -55.7143 H         1 UNK         0.0800 
    245 H245       -2.9931  -16.1218  -54.2525 H         1 UNK         0.0800 
    246 H246       -4.4639  -16.4975  -52.0917 H         1 UNK         0.0800 
    247 H247       -4.6089  -18.1090  -51.4392 H         1 UNK         0.0800 
@<TRIPOS>BOND
     1    1    2 1    
     2    1  127 1    
     3    1  128 1    
     4    1  129 1    
     5    2    3 2    
     6    2    4 am   BACKBONE|DICT|INTERRES
     7    4    5 1    
     8    4  130 1    
     9    5    6 1    
    10    5   65 1    
    11    5  131 1    
    12    6    7 1    
    13    6  132 1    
    14    6  133 1    
    15    7    8 1    
    16    8    9 1    
    17    8  134 1    
    18    8  135 1    
    19    9   10 ar   
    20    9   14 ar   
    21   10   11 ar   
    22   10  136 1    
    23   11   12 ar   
    24   11  126 1    
    25   12   13 ar   
    26   12  137 1    
    27   13   14 ar   
    28   13   15 1    
    29   14  138 1    
    30   15   16 1    
    31   15  139 1    
    32   15  140 1    
    33   16   17 1    
    34   17   18 1    
    35   17  141 1    
    36   17  142 1    
    37   18   19 1    
    38   18   67 1    
    39   18  143 1    
    40   19   20 am   BACKBONE|DICT|INTERRES
    41   19  144 1    
    42   20   21 2    
    43   20   22 1    
    44   22   23 1    
    45   22   24 1    
    46   22  145 1    
    47   23  146 1    
    48   23  147 1    
    49   23  148 1    
    50   24   25 am   BACKBONE|DICT|INTERRES
    51   24  149 1    
    52   25   26 2    
    53   25   27 1    
    54   27   28 1    
    55   27   29 1    
    56   27  150 1    
    57   28  151 1    
    58   28  152 1    
    59   28  153 1    
    60   29   30 am   BACKBONE|DICT|INTERRES
    61   29  154 1    
    62   30   31 2    
    63   30   32 1    
    64   32   33 1    
    65   32   34 1    
    66   32  155 1    
    67   33  156 1    
    68   33  157 1    
    69   33  158 1    
    70   34   35 am   BACKBONE|DICT|INTERRES
    71   34  159 1    
    72   35   36 2    
    73   35   37 1    
    74   37   38 1    
    75   37   39 1    
    76   37  160 1    
    77   38  161 1    
    78   38  162 1    
    79   38  163 1    
    80   39   40 am   BACKBONE|DICT|INTERRES
    81   39  164 1    
    82   40   41 2    
    83   40   42 1    
    84   42   43 1    
    85   42   44 1    
    86   42  165 1    
    87   43  166 1    
    88   43  167 1    
    89   43  168 1    
    90   44   45 am   BACKBONE|DICT|INTERRES
    91   44  169 1    
    92   45   46 2    
    93   45   47 1    
    94   47   48 1    
    95   47   49 1    
    96   47  170 1    
    97   48  171 1    
    98   48  172 1    
    99   48  173 1    
   100   49   50 am   BACKBONE|DICT|INTERRES
   101   49  174 1    
   102   50   51 2    
   103   50   52 1    
   104   52   53 1    
   105   52   54 1    
   106   52  175 1    
   107   53  176 1    
   108   53  177 1    
   109   53  178 1    
   110   54   55 am   BACKBONE|DICT|INTERRES
   111   54  179 1    
   112   55   56 2    
   113   55   57 1    
   114   57   58 1    
   115   57   59 1    
   116   57  180 1    
   117   58  181 1    
   118   58  182 1    
   119   58  183 1    
   120   59   60 am   BACKBONE|DICT|INTERRES
   121   59  184 1    
   122   60   61 2    
   123   60   62 1    
   124   62   63 1    
   125   62   64 1    
   126   62  185 1    
   127   63  186 1    
   128   63  187 1    
   129   63  188 1    
   130   64   65 am   BACKBONE|DICT|INTERRES
   131   64  189 1    
   132   65   66 2    
   133   67   68 2    
   134   67   69 am   BACKBONE|DICT|INTERRES
   135   69   70 1    
   136   69  190 1    
   137   70   71 1    
   138   70   72 1    
   139   70  191 1    
   140   71  192 1    
   141   71  193 1    
   142   71  194 1    
   143   72   73 2    
   144   72   74 am   BACKBONE|DICT|INTERRES
   145   74   75 1    
   146   74  195 1    
   147   75   76 1    
   148   75   77 1    
   149   75  196 1    
   150   76  197 1    
   151   76  198 1    
   152   76  199 1    
   153   77   78 2    
   154   77   79 am   BACKBONE|DICT|INTERRES
   155   79   80 1    
   156   79  200 1    
   157   80   81 1    
   158   80   82 1    
   159   80  201 1    
   160   81  202 1    
   161   81  203 1    
   162   81  204 1    
   163   82   83 2    
   164   82   84 am   BACKBONE|DICT|INTERRES
   165   84   85 1    
   166   84  205 1    
   167   85   86 1    
   168   85   87 1    
   169   85  206 1    
   170   86  207 1    
   171   86  208 1    
   172   86  209 1    
   173   87   88 2    
   174   87   89 am   BACKBONE|DICT|INTERRES
   175   89   90 1    
   176   89  210 1    
   177   90   91 1    
   178   90   92 1    
   179   90  211 1    
   180   91  212 1    
   181   91  213 1    
   182   91  214 1    
   183   92   93 2    
   184   92   94 am   BACKBONE|DICT|INTERRES
   185   94   95 1    
   186   94  215 1    
   187   95   96 1    
   188   95   97 1    
   189   95  216 1    
   190   96  217 1    
   191   96  218 1    
   192   96  219 1    
   193   97   98 2    
   194   97   99 am   BACKBONE|DICT|INTERRES
   195   99  100 1    
   196   99  220 1    
   197  100  101 1    
   198  100  102 1    
   199  100  221 1    
   200  101  222 1    
   201  101  223 1    
   202  101  224 1    
   203  102  103 2    
   204  102  104 am   BACKBONE|DICT|INTERRES
   205  104  105 1    
   206  104  225 1    
   207  105  106 1    
   208  105  107 1    
   209  105  226 1    
   210  106  227 1    
   211  106  228 1    
   212  106  229 1    
   213  107  108 2    
   214  107  109 am   BACKBONE|DICT|INTERRES
   215  109  110 1    
   216  109  230 1    
   217  110  111 1    
   218  110  112 1    
   219  110  231 1    
   220  111  232 1    
   221  111  233 1    
   222  111  234 1    
   223  112  113 2    
   224  112  114 am   BACKBONE|DICT|INTERRES
   225  114  115 1    
   226  114  235 1    
   227  115  116 1    
   228  115  117 1    
   229  115  236 1    
   230  116  237 1    
   231  116  238 1    
   232  116  239 1    
   233  117  118 2    
   234  117  119 am   BACKBONE|DICT|INTERRES
   235  119  120 1    
   236  119  240 1    
   237  120  121 1    
   238  120  124 1    
   239  120  241 1    
   240  121  122 am   BACKBONE|DICT|INTERRES
   241  121  123 2    
   242  122  242 1    
   243  122  243 1    
   244  124  125 1    
   245  124  244 1    
   246  124  245 1    
   247  125  126 1    
   248  126  246 1    
   249  126  247 1    
@<TRIPOS>SUBSTRUCTURE
     1 UNK         1 GROUP             0       ****    0 ROOT    
