@<TRIPOS>MOLECULE
3R540
247   249    1
SMALL
USER_CHARGES


@<TRIPOS>ATOM
      1 CA         -5.0952  -17.5766  -43.9443 C.3       0 UNK        -0.1800 
      2 C          -4.8320  -16.4408  -44.9207 C.2       0 UNK         0.5000 
      3 O          -5.6355  -15.5124  -45.0166 O.2       0 UNK        -0.5000 
      4 N          -3.7114  -16.5138  -45.6477 N.am      1 UNK        -0.5000 
      5 CA         -3.2456  -15.4787  -46.5711 C.3       1 UNK         0.1400 
      6 C6         -2.1792  -16.0465  -47.5342 C.3       23 UNK        -0.0398 
      7 S7         -2.0296  -15.1002  -49.0842 S.3       23 UNK        -0.2404 
      8 C8         -2.0097  -16.4441  -50.3254 C.3       23 UNK        -0.0205 
      9 C9         -0.9023  -17.4857  -50.1439 C.ar      23 UNK        -0.0193 
     10 C10        -1.1155  -18.7980  -50.5821 C.ar      23 UNK        -0.1150 
     11 C11        -0.1283  -19.7814  -50.4294 C.ar      23 UNK        -0.0193 
     12 C12         1.0833  -19.4347  -49.8307 C.ar      23 UNK        -0.1150 
     13 C13         1.3049  -18.1366  -49.3670 C.ar      23 UNK        -0.0193 
     14 C14         0.3221  -17.1631  -49.5484 C.ar      23 UNK        -0.1150 
     15 C15         2.5869  -17.7948  -48.6265 C.3       23 UNK        -0.0205 
     16 S16         2.8227  -18.8427  -47.1556 S.3       23 UNK        -0.2404 
     17 C17         1.2782  -18.5853  -46.2049 C.3       23 UNK        -0.0398 
     18 CA          0.2816  -19.7651  -46.3071 C.3       11 UNK         0.1400 
     19 N           0.9289  -21.0530  -46.0486 N.am      11 UNK        -0.5000 
     20 C           0.4877  -22.2299  -46.5086 C.2       10 UNK         0.5000 
     21 O          -0.6243  -22.3864  -47.0172 O.2       10 UNK        -0.5000 
     22 CA          1.4387  -23.4257  -46.3592 C.3       10 UNK         0.1400 
     23 CB          2.5351  -23.3802  -47.4346 C.3       10 UNK        -0.1800 
     24 N           2.0500  -23.4282  -45.0311 N.am      10 UNK        -0.5000 
     25 C           2.0505  -24.4741  -44.1953 C.2       9 UNK         0.5000 
     26 O           1.7138  -25.6118  -44.5251 O.2       9 UNK        -0.5000 
     27 CA          2.4684  -24.2149  -42.7304 C.3       9 UNK         0.1400 
     28 CB          3.8996  -24.7174  -42.4864 C.3       9 UNK        -0.1800 
     29 N           2.3826  -22.8163  -42.2953 N.am      9 UNK        -0.5000 
     30 C           1.2951  -22.0334  -42.3396 C.2       8 UNK         0.5000 
     31 O           0.1977  -22.4075  -42.7527 O.2       8 UNK        -0.5000 
     32 CA          1.4694  -20.5612  -41.9191 C.3       8 UNK         0.1400 
     33 CB          1.0603  -20.3846  -40.4490 C.3       8 UNK        -0.1800 
     34 N           2.8103  -19.9983  -42.1209 N.am      8 UNK        -0.5000 
     35 C           3.5292  -20.0225  -43.2555 C.2       7 UNK         0.5000 
     36 O           3.1631  -20.6101  -44.2769 O.2       7 UNK        -0.5000 
     37 CA          4.8810  -19.2827  -43.2208 C.3       7 UNK         0.1400 
     38 CB          5.3948  -18.8918  -44.6162 C.3       7 UNK        -0.1800 
     39 N           4.7801  -18.0766  -42.4010 N.am      7 UNK        -0.5000 
     40 C           5.5783  -17.7550  -41.3741 C.2       6 UNK         0.5000 
     41 O           6.5282  -18.4470  -41.0061 O.2       6 UNK        -0.5000 
     42 CA          5.2651  -16.4450  -40.6162 C.3       6 UNK         0.1400 
     43 CB          6.2220  -15.3279  -41.0601 C.3       6 UNK        -0.1800 
     44 N           3.8869  -15.9789  -40.7883 N.am      6 UNK        -0.5000 
     45 C           2.7964  -16.6246  -40.3533 C.2       5 UNK         0.5000 
     46 O           2.8468  -17.6375  -39.6562 O.2       5 UNK        -0.5000 
     47 CA          1.4222  -16.0845  -40.8056 C.3       5 UNK         0.1400 
     48 CB          0.7321  -15.3388  -39.6539 C.3       5 UNK        -0.1800 
     49 N           1.4496  -15.2108  -41.9858 N.am      5 UNK        -0.5000 
     50 C           1.9092  -15.5350  -43.2036 C.2       4 UNK         0.5000 
     51 O           2.4335  -16.6203  -43.4570 O.2       4 UNK        -0.5000 
     52 CA          1.7813  -14.4741  -44.3152 C.3       4 UNK         0.1400 
     53 CB          1.2786  -15.0943  -45.6241 C.3       4 UNK        -0.1800 
     54 N           0.8811  -13.3772  -43.9524 N.am      4 UNK        -0.5000 
     55 C           1.2798  -12.1705  -43.5292 C.2       3 UNK         0.5000 
     56 O           2.4579  -11.8961  -43.2953 O.2       3 UNK        -0.5000 
     57 CA          0.1907  -11.0963  -43.3050 C.3       3 UNK         0.1400 
     58 CB          0.6796   -9.6818  -43.6814 C.3       3 UNK        -0.1800 
     59 N          -1.1005  -11.3816  -43.9465 N.am      3 UNK        -0.5000 
     60 C          -1.3602  -11.5038  -45.2571 C.2       2 UNK         0.5000 
     61 O          -0.5132  -11.4266  -46.1491 O.2       2 UNK        -0.5000 
     62 CA         -2.8346  -11.7594  -45.6245 C.3       2 UNK         0.1400 
     63 CB         -3.3753  -10.6401  -46.5287 C.3       2 UNK        -0.1800 
     64 N          -3.0625  -13.0508  -46.2756 N.am      2 UNK        -0.5000 
     65 C          -2.7343  -14.2521  -45.7809 C.2       1 UNK         0.5000 
     66 O          -2.0853  -14.4162  -44.7427 O.2       1 UNK        -0.5000 
     67 C          -0.9770  -19.5146  -45.4486 C.2       11 UNK         0.5000 
     68 O          -1.6672  -18.5237  -45.6834 O.2       11 UNK        -0.5000 
     69 N          -1.2767  -20.4017  -44.4921 N.am      12 UNK        -0.5000 
     70 CA         -2.5273  -20.4051  -43.7333 C.3       12 UNK         0.1400 
     71 CB         -2.2717  -19.9687  -42.2831 C.3       12 UNK        -0.1800 
     72 C          -3.1992  -21.7839  -43.7942 C.2       12 UNK         0.5000 
     73 O          -4.4218  -21.8500  -43.9184 O.2       12 UNK        -0.5000 
     74 N          -2.3964  -22.8564  -43.7247 N.am      13 UNK        -0.5000 
     75 CA         -2.8466  -24.2482  -43.7733 C.3       13 UNK         0.1400 
     76 CB         -1.6560  -25.1722  -43.4847 C.3       13 UNK        -0.1800 
     77 C          -3.5155  -24.6387  -45.1043 C.2       13 UNK         0.5000 
     78 O          -4.4766  -25.4093  -45.0848 O.2       13 UNK        -0.5000 
     79 N          -3.0117  -24.0967  -46.2215 N.am      14 UNK        -0.5000 
     80 CA         -3.6166  -24.2325  -47.5431 C.3       14 UNK         0.1400 
     81 CB         -2.5728  -24.7235  -48.5636 C.3       14 UNK        -0.1800 
     82 C          -4.2339  -22.8880  -47.9463 C.2       14 UNK         0.5000 
     83 O          -5.4565  -22.7973  -48.0557 O.2       14 UNK        -0.5000 
     84 N          -3.3766  -21.8739  -48.1550 N.am      15 UNK        -0.5000 
     85 CA         -3.7099  -20.4954  -48.5545 C.3       15 UNK         0.1400 
     86 CB         -4.4389  -19.7695  -47.4061 C.3       15 UNK        -0.1800 
     87 C          -4.4880  -20.3741  -49.8904 C.2       15 UNK         0.5000 
     88 O          -5.0971  -19.3366  -50.1555 O.2       15 UNK        -0.5000 
     89 N          -4.4548  -21.4269  -50.7171 N.am      16 UNK        -0.5000 
     90 CA         -5.2796  -21.6479  -51.9084 C.3       16 UNK         0.1400 
     91 CB         -5.3329  -23.1628  -52.1695 C.3       16 UNK        -0.1800 
     92 C          -4.8527  -20.8430  -53.1572 C.2       16 UNK         0.5000 
     93 O          -4.9108  -21.3543  -54.2792 O.2       16 UNK        -0.5000 
     94 N          -4.4578  -19.5796  -52.9592 N.am      17 UNK        -0.5000 
     95 CA         -4.1042  -18.6439  -54.0289 C.3       17 UNK         0.1400 
     96 CB         -3.3909  -17.4236  -53.4357 C.3       17 UNK        -0.1800 
     97 C          -5.3218  -18.2131  -54.8658 C.2       17 UNK         0.5000 
     98 O          -5.1714  -17.9517  -56.0583 O.2       17 UNK        -0.5000 
     99 N          -6.5135  -18.2077  -54.2499 N.am      18 UNK        -0.5000 
    100 CA        -7.7980  -17.9510  -54.9091 C.3       18 UNK         0.1400 
    101 CB        -8.8891  -17.8024  -53.8380 C.3       18 UNK        -0.1800 
    102 C         -8.1858  -19.0430  -55.9277 C.2       18 UNK         0.5000 
    103 O         -8.8767  -18.7474  -56.9028 O.2       18 UNK        -0.5000 
    104 N         -7.7093  -20.2741  -55.6966 N.am      19 UNK        -0.5000 
    105 CA        -7.8427  -21.4150  -56.6045 C.3       19 UNK         0.1400 
    106 CB        -7.9325  -22.6974  -55.7602 C.3       19 UNK        -0.1800 
    107 C         -6.6705  -21.5099  -57.6040 C.2       19 UNK         0.5000 
    108 O         -6.6830  -22.3966  -58.4582 O.2       19 UNK        -0.5000 
    109 N         -5.6700  -20.6253  -57.4600 N.am      20 UNK        -0.5000 
    110 CA        -4.3996  -20.5616  -58.1918 C.3       20 UNK         0.1400 
    111 CB        -4.6357  -20.2906  -59.6920 C.3       20 UNK        -0.1800 
    112 C         -3.4739  -21.7729  -57.9453 C.2       20 UNK         0.5000 
    113 O         -2.5269  -21.9796  -58.7062 O.2       20 UNK        -0.5000 
    114 N         -3.7320  -22.5402  -56.8763 N.am      21 UNK        -0.5000 
    115 CA        -2.9783  -23.7427  -56.5157 C.3       21 UNK         0.1400 
    116 CB        -3.8010  -24.5660  -55.5155 C.3       21 UNK        -0.1800 
    117 C         -1.5851  -23.4213  -55.9453 C.2       21 UNK         0.5000 
    118 O         -0.6660  -24.2281  -56.0906 O.2       21 UNK        -0.5000 
    119 N         -1.4545  -22.2408  -55.3296 N.am      22 UNK        -0.5000 
    120 CA        -0.1985  -21.6988  -54.7861 C.3       22 UNK         0.1400 
    121 C          0.7408  -21.0686  -55.8586 C.2       22 UNK         0.5000 
    122 N          0.3612  -20.9983  -57.1299 N.am      22 UNK        -0.7600 
    123 O          1.8450  -20.6419  -55.5330 O.2       22 UNK        -0.5000 
    124 C124       -0.4653  -20.7091  -53.6233 C.3       23 UNK        -0.0398 
    125 S125       -1.4328  -21.4745  -52.2781 S.3       23 UNK        -0.2404 
    126 C126       -0.3483  -21.2378  -50.8355 C.3       23 UNK        -0.0205 
    127 H127       -4.2329  -17.7290  -43.2954 H         1 UNK         0.0600 
    128 H128       -5.3019  -18.5014  -44.4832 H         1 UNK         0.0600 
    129 H129       -5.9550  -17.3523  -43.3128 H         1 UNK         0.0600 
    130 H130       -3.0623  -17.2858  -45.5110 H         1 UNK         0.3000 
    131 H131       -4.1103  -15.1737  -47.1650 H         1 UNK         0.0600 
    132 H132       -1.2018  -16.1153  -47.0582 H         1 UNK         0.0800 
    133 H133       -2.4463  -17.0704  -47.7993 H         1 UNK         0.0800 
    134 H134       -2.9856  -16.9327  -50.3133 H         1 UNK         0.0800 
    135 H135       -1.8974  -15.9922  -51.3111 H         1 UNK         0.0800 
    136 H136       -2.0614  -19.0551  -51.0345 H         1 UNK         0.1150 
    137 H137        1.8445  -20.1879  -49.6808 H         1 UNK         0.1150 
    138 H138        0.5078  -16.1575  -49.2004 H         1 UNK         0.1150 
    139 H139        2.5976  -16.7477  -48.3206 H         1 UNK         0.0800 
    140 H140        3.4346  -17.9301  -49.2992 H         1 UNK         0.0800 
    141 H141        0.7971  -17.6741  -46.5567 H         1 UNK         0.0800 
    142 H142        1.5537  -18.4113  -45.1644 H         1 UNK         0.0800 
    143 H143       -0.0798  -19.7890  -47.3363 H         1 UNK         0.0600 
    144 H144        1.8495  -20.9838  -45.6243 H         1 UNK         0.3000 
    145 H145        0.8416  -24.3276  -46.5106 H         1 UNK         0.0600 
    146 H146        2.1008  -23.3566  -48.4351 H         1 UNK         0.0600 
    147 H147        3.1760  -24.2600  -47.3777 H         1 UNK         0.0600 
    148 H148        3.1680  -22.4978  -47.3291 H         1 UNK         0.0600 
    149 H149        2.3673  -22.5352  -44.6724 H         1 UNK         0.3000 
    150 H150        1.7890  -24.7915  -42.0996 H         1 UNK         0.0600 
    151 H151        4.6276  -24.1507  -43.0683 H         1 UNK         0.0600 
    152 H152        4.0002  -25.7668  -42.7668 H         1 UNK         0.0600 
    153 H153        4.1731  -24.6373  -41.4341 H         1 UNK         0.0600 
    154 H154        3.2395  -22.4035  -41.9585 H         1 UNK         0.3000 
    155 H155        0.7859  -19.9742  -42.5344 H         1 UNK         0.0600 
    156 H156        1.8200  -20.7744  -39.7707 H         1 UNK         0.0600 
    157 H157        0.1287  -20.9054  -40.2251 H         1 UNK         0.0600 
    158 H158        0.9001  -19.3347  -40.2086 H         1 UNK         0.0600 
    159 H159        3.1946  -19.4890  -41.3365 H         1 UNK         0.3000 
    160 H160        5.5932  -19.9850  -42.7840 H         1 UNK         0.0600 
    161 H161        4.7505  -18.1440  -45.0785 H         1 UNK         0.0600 
    162 H162        5.4411  -19.7534  -45.2834 H         1 UNK         0.0600 
    163 H163        6.3992  -18.4726  -44.5588 H         1 UNK         0.0600 
    164 H164        4.0052  -17.4615  -42.6371 H         1 UNK         0.3000 
    165 H165        5.4273  -16.6349  -39.5532 H         1 UNK         0.0600 
    166 H166        6.0631  -14.4181  -40.4810 H         1 UNK         0.0600 
    167 H167        7.2622  -15.6242  -40.9178 H         1 UNK         0.0600 
    168 H168        6.0918  -15.0831  -42.1150 H         1 UNK         0.0600 
    169 H169        3.7552  -15.1539  -41.3543 H         1 UNK         0.3000 
    170 H170        0.8117  -16.9521  -41.0636 H         1 UNK         0.0600 
    171 H171       -0.2830  -15.0469  -39.9239 H         1 UNK         0.0600 
    172 H172        1.2792  -14.4375  -39.3747 H         1 UNK         0.0600 
    173 H173        0.6610  -15.9684  -38.7658 H         1 UNK         0.0600 
    174 H174        1.0440  -14.2938  -41.8731 H         1 UNK         0.3000 
    175 H175        2.7853  -14.0877  -44.5012 H         1 UNK         0.0600 
    176 H176        2.0200  -15.7817  -46.0308 H         1 UNK         0.0600 
    177 H177        0.3527  -15.6451  -45.4620 H         1 UNK         0.0600 
    178 H178        1.0918  -14.3343  -46.3834 H         1 UNK         0.0600 
    179 H179       -0.1076  -13.5393  -44.1087 H         1 UNK         0.3000 
    180 H180       -0.0041  -11.0972  -42.2317 H         1 UNK         0.0600 
    181 H181        0.9633   -9.6179  -44.7323 H         1 UNK         0.0600 
    182 H182        1.5507   -9.3958  -43.0908 H         1 UNK         0.0600 
    183 H183       -0.0926   -8.9351  -43.4964 H         1 UNK         0.0600 
    184 H184       -1.8726  -11.4994  -43.3047 H         1 UNK         0.3000 
    185 H185       -3.4265  -11.7573  -44.7070 H         1 UNK         0.0600 
    186 H186       -3.2309   -9.6618  -46.0681 H         1 UNK         0.0600 
    187 H187       -2.8708  -10.6250  -47.4957 H         1 UNK         0.0600 
    188 H188       -4.4440  -10.7582  -46.7090 H         1 UNK         0.0600 
    189 H189       -3.5576  -13.0148  -47.1546 H         1 UNK         0.3000 
    190 H190       -0.6601  -21.1909  -44.3545 H         1 UNK         0.3000 
    191 H191       -3.2318  -19.7017  -44.1752 H         1 UNK         0.0600 
    192 H192       -1.7687  -19.0024  -42.2428 H         1 UNK         0.0600 
    193 H193       -3.2111  -19.8710  -41.7379 H         1 UNK         0.0600 
    194 H194       -1.6599  -20.6926  -41.7473 H         1 UNK         0.0600 
    195 H195       -1.4138  -22.7186  -43.5009 H         1 UNK         0.3000 
    196 H196       -3.5834  -24.3837  -42.9789 H         1 UNK         0.0600 
    197 H197       -1.9703  -26.2159  -43.4457 H         1 UNK         0.0600 
    198 H198       -1.1895  -24.9356  -42.5282 H         1 UNK         0.0600 
    199 H199       -0.8960  -25.0877  -44.2608 H         1 UNK         0.0600 
    200 H200       -2.2291  -23.4573  -46.1514 H         1 UNK         0.3000 
    201 H201       -4.4227  -24.9690  -47.5280 H         1 UNK         0.0600 
    202 H202       -3.0160  -24.8184  -49.5557 H         1 UNK         0.0600 
    203 H203       -2.1910  -25.7057  -48.2851 H         1 UNK         0.0600 
    204 H204       -1.7193  -24.0528  -48.6517 H         1 UNK         0.0600 
    205 H205       -2.3900  -22.0536  -47.9952 H         1 UNK         0.3000 
    206 H206       -2.7562  -19.9902  -48.7031 H         1 UNK         0.0600 
    207 H207       -3.9024  -19.8810  -46.4660 H         1 UNK         0.0600 
    208 H208       -4.5230  -18.7008  -47.6063 H         1 UNK         0.0600 
    209 H209       -5.4478  -20.1561  -47.2592 H         1 UNK         0.0600 
    210 H210       -3.8713  -22.2033  -50.4457 H         1 UNK         0.3000 
    211 H211       -6.2952  -21.3226  -51.6751 H         1 UNK         0.0600 
    212 H212       -4.3380  -23.5681  -52.3552 H         1 UNK         0.0600 
    213 H213       -5.9592  -23.4020  -53.0294 H         1 UNK         0.0600 
    214 H214       -5.7519  -23.6924  -51.3135 H         1 UNK         0.0600 
    215 H215       -4.4870  -19.2242  -52.0090 H         1 UNK         0.3000 
    216 H216       -3.4082  -19.1459  -54.7043 H         1 UNK         0.0600 
    217 H217       -3.1674  -16.6854  -54.2071 H         1 UNK         0.0600 
    218 H218       -2.4417  -17.7117  -52.9865 H         1 UNK         0.0600 
    219 H219       -3.9978  -16.9319  -52.6748 H         1 UNK         0.0600 
    220 H220       -6.5442  -18.4264  -53.2648 H         1 UNK         0.3000 
    221 H221       -7.7177  -17.0067  -55.4516 H         1 UNK         0.0600 
    222 H222       -9.0011  -18.7128  -53.2477 H         1 UNK         0.0600 
    223 H223       -8.6624  -16.9839  -53.1546 H         1 UNK         0.0600 
    224 H224       -9.8563  -17.5853  -54.2934 H         1 UNK         0.0600 
    225 H225       -7.1336  -20.4233  -54.8804 H         1 UNK         0.3000 
    226 H226       -8.7640  -21.3210  -57.1829 H         1 UNK         0.0600 
    227 H227       -8.7574  -22.6463  -55.0495 H         1 UNK         0.0600 
    228 H228       -8.1030  -23.5707  -56.3910 H         1 UNK         0.0600 
    229 H229       -7.0150  -22.8752  -55.1988 H         1 UNK         0.0600 
    230 H230       -5.7749  -19.9172  -56.7451 H         1 UNK         0.3000 
    231 H231       -3.8675  -19.6998  -57.7871 H         1 UNK         0.0600 
    232 H232       -5.0887  -21.1458  -60.1938 H         1 UNK         0.0600 
    233 H233       -3.6968  -20.0743  -60.2030 H         1 UNK         0.0600 
    234 H234       -5.2880  -19.4297  -59.8387 H         1 UNK         0.0600 
    235 H235       -4.4782  -22.2660  -56.2486 H         1 UNK         0.3000 
    236 H236       -2.8375  -24.3440  -57.4164 H         1 UNK         0.0600 
    237 H237       -3.9782  -24.0087  -54.5973 H         1 UNK         0.0600 
    238 H238       -4.7696  -24.8425  -55.9325 H         1 UNK         0.0600 
    239 H239       -3.2843  -25.4883  -55.2473 H         1 UNK         0.0600 
    240 H240       -2.2740  -21.6594  -55.2355 H         1 UNK         0.3000 
    241 H241        0.3656  -22.5346  -54.3678 H         1 UNK         0.0600 
    242 H242        0.9859  -20.5928  -57.8091 H         1 UNK         0.3800 
    243 H243       -0.5278  -21.3707  -57.4292 H         1 UNK         0.3800 
    244 H244       -1.0092  -19.8339  -53.9811 H         1 UNK         0.0800 
    245 H245        0.4757  -20.3351  -53.2162 H         1 UNK         0.0800 
    246 H246       -0.7819  -21.7666  -49.9860 H         1 UNK         0.0800 
    247 H247        0.6069  -21.7227  -51.0431 H         1 UNK         0.0800 
@<TRIPOS>BOND
     1    1    2 1    
     2    1  127 1    
     3    1  128 1    
     4    1  129 1    
     5    2    3 2    
     6    2    4 am   BACKBONE|DICT|INTERRES
     7    4    5 1    
     8    4  130 1    
     9    5    6 1    
    10    5   65 1    
    11    5  131 1    
    12    6    7 1    
    13    6  132 1    
    14    6  133 1    
    15    7    8 1    
    16    8    9 1    
    17    8  134 1    
    18    8  135 1    
    19    9   10 ar   
    20    9   14 ar   
    21   10   11 ar   
    22   10  136 1    
    23   11   12 ar   
    24   11  126 1    
    25   12   13 ar   
    26   12  137 1    
    27   13   14 ar   
    28   13   15 1    
    29   14  138 1    
    30   15   16 1    
    31   15  139 1    
    32   15  140 1    
    33   16   17 1    
    34   17   18 1    
    35   17  141 1    
    36   17  142 1    
    37   18   19 1    
    38   18   67 1    
    39   18  143 1    
    40   19   20 am   BACKBONE|DICT|INTERRES
    41   19  144 1    
    42   20   21 2    
    43   20   22 1    
    44   22   23 1    
    45   22   24 1    
    46   22  145 1    
    47   23  146 1    
    48   23  147 1    
    49   23  148 1    
    50   24   25 am   BACKBONE|DICT|INTERRES
    51   24  149 1    
    52   25   26 2    
    53   25   27 1    
    54   27   28 1    
    55   27   29 1    
    56   27  150 1    
    57   28  151 1    
    58   28  152 1    
    59   28  153 1    
    60   29   30 am   BACKBONE|DICT|INTERRES
    61   29  154 1    
    62   30   31 2    
    63   30   32 1    
    64   32   33 1    
    65   32   34 1    
    66   32  155 1    
    67   33  156 1    
    68   33  157 1    
    69   33  158 1    
    70   34   35 am   BACKBONE|DICT|INTERRES
    71   34  159 1    
    72   35   36 2    
    73   35   37 1    
    74   37   38 1    
    75   37   39 1    
    76   37  160 1    
    77   38  161 1    
    78   38  162 1    
    79   38  163 1    
    80   39   40 am   BACKBONE|DICT|INTERRES
    81   39  164 1    
    82   40   41 2    
    83   40   42 1    
    84   42   43 1    
    85   42   44 1    
    86   42  165 1    
    87   43  166 1    
    88   43  167 1    
    89   43  168 1    
    90   44   45 am   BACKBONE|DICT|INTERRES
    91   44  169 1    
    92   45   46 2    
    93   45   47 1    
    94   47   48 1    
    95   47   49 1    
    96   47  170 1    
    97   48  171 1    
    98   48  172 1    
    99   48  173 1    
   100   49   50 am   BACKBONE|DICT|INTERRES
   101   49  174 1    
   102   50   51 2    
   103   50   52 1    
   104   52   53 1    
   105   52   54 1    
   106   52  175 1    
   107   53  176 1    
   108   53  177 1    
   109   53  178 1    
   110   54   55 am   BACKBONE|DICT|INTERRES
   111   54  179 1    
   112   55   56 2    
   113   55   57 1    
   114   57   58 1    
   115   57   59 1    
   116   57  180 1    
   117   58  181 1    
   118   58  182 1    
   119   58  183 1    
   120   59   60 am   BACKBONE|DICT|INTERRES
   121   59  184 1    
   122   60   61 2    
   123   60   62 1    
   124   62   63 1    
   125   62   64 1    
   126   62  185 1    
   127   63  186 1    
   128   63  187 1    
   129   63  188 1    
   130   64   65 am   BACKBONE|DICT|INTERRES
   131   64  189 1    
   132   65   66 2    
   133   67   68 2    
   134   67   69 am   BACKBONE|DICT|INTERRES
   135   69   70 1    
   136   69  190 1    
   137   70   71 1    
   138   70   72 1    
   139   70  191 1    
   140   71  192 1    
   141   71  193 1    
   142   71  194 1    
   143   72   73 2    
   144   72   74 am   BACKBONE|DICT|INTERRES
   145   74   75 1    
   146   74  195 1    
   147   75   76 1    
   148   75   77 1    
   149   75  196 1    
   150   76  197 1    
   151   76  198 1    
   152   76  199 1    
   153   77   78 2    
   154   77   79 am   BACKBONE|DICT|INTERRES
   155   79   80 1    
   156   79  200 1    
   157   80   81 1    
   158   80   82 1    
   159   80  201 1    
   160   81  202 1    
   161   81  203 1    
   162   81  204 1    
   163   82   83 2    
   164   82   84 am   BACKBONE|DICT|INTERRES
   165   84   85 1    
   166   84  205 1    
   167   85   86 1    
   168   85   87 1    
   169   85  206 1    
   170   86  207 1    
   171   86  208 1    
   172   86  209 1    
   173   87   88 2    
   174   87   89 am   BACKBONE|DICT|INTERRES
   175   89   90 1    
   176   89  210 1    
   177   90   91 1    
   178   90   92 1    
   179   90  211 1    
   180   91  212 1    
   181   91  213 1    
   182   91  214 1    
   183   92   93 2    
   184   92   94 am   BACKBONE|DICT|INTERRES
   185   94   95 1    
   186   94  215 1    
   187   95   96 1    
   188   95   97 1    
   189   95  216 1    
   190   96  217 1    
   191   96  218 1    
   192   96  219 1    
   193   97   98 2    
   194   97   99 am   BACKBONE|DICT|INTERRES
   195   99  100 1    
   196   99  220 1    
   197  100  101 1    
   198  100  102 1    
   199  100  221 1    
   200  101  222 1    
   201  101  223 1    
   202  101  224 1    
   203  102  103 2    
   204  102  104 am   BACKBONE|DICT|INTERRES
   205  104  105 1    
   206  104  225 1    
   207  105  106 1    
   208  105  107 1    
   209  105  226 1    
   210  106  227 1    
   211  106  228 1    
   212  106  229 1    
   213  107  108 2    
   214  107  109 am   BACKBONE|DICT|INTERRES
   215  109  110 1    
   216  109  230 1    
   217  110  111 1    
   218  110  112 1    
   219  110  231 1    
   220  111  232 1    
   221  111  233 1    
   222  111  234 1    
   223  112  113 2    
   224  112  114 am   BACKBONE|DICT|INTERRES
   225  114  115 1    
   226  114  235 1    
   227  115  116 1    
   228  115  117 1    
   229  115  236 1    
   230  116  237 1    
   231  116  238 1    
   232  116  239 1    
   233  117  118 2    
   234  117  119 am   BACKBONE|DICT|INTERRES
   235  119  120 1    
   236  119  240 1    
   237  120  121 1    
   238  120  124 1    
   239  120  241 1    
   240  121  122 am   BACKBONE|DICT|INTERRES
   241  121  123 2    
   242  122  242 1    
   243  122  243 1    
   244  124  125 1    
   245  124  244 1    
   246  124  245 1    
   247  125  126 1    
   248  126  246 1    
   249  126  247 1    
@<TRIPOS>SUBSTRUCTURE
     1 UNK         1 GROUP             0       ****    0 ROOT    
