@<TRIPOS>MOLECULE
3R540
247   249    1
SMALL
USER_CHARGES


@<TRIPOS>ATOM
      1 CA          5.9223  -13.6571  -49.2195 C.3       0 UNK        -0.1800 
      2 C           4.6664  -13.9594  -48.4167 C.2       0 UNK         0.5000 
      3 O           4.0039  -13.0352  -47.9477 O.2       0 UNK        -0.5000 
      4 N           4.3233  -15.2460  -48.2757 N.am      1 UNK        -0.5000 
      5 CA          3.1739  -15.7741  -47.5218 C.3       1 UNK         0.1400 
      6 C6          3.2036  -17.3226  -47.4544 C.3       23 UNK        -0.0398 
      7 S7          3.3445  -18.1260  -49.0938 S.3       23 UNK        -0.2404 
      8 C8          1.8945  -19.2225  -49.1303 C.3       23 UNK        -0.0205 
      9 C9          0.5836  -18.4647  -49.2718 C.ar      23 UNK        -0.0193 
     10 C10         0.1546  -18.0174  -50.5252 C.ar      23 UNK        -0.1150 
     11 C11        -1.0895  -17.3934  -50.6688 C.ar      23 UNK        -0.0193 
     12 C12        -1.9012  -17.2149  -49.5435 C.ar      23 UNK        -0.1150 
     13 C13        -1.4719  -17.6373  -48.2816 C.ar      23 UNK        -0.0193 
     14 C14        -0.2232  -18.2489  -48.1529 C.ar      23 UNK        -0.1150 
     15 C15        -2.3523  -17.4282  -47.0582 C.3       23 UNK        -0.0205 
     16 S16        -3.2465  -18.9482  -46.5933 S.3       23 UNK        -0.2404 
     17 C17        -2.0201  -19.8315  -45.5725 C.3       23 UNK        -0.0398 
     18 CA         -1.2991  -20.9682  -46.3369 C.3       11 UNK         0.1400 
     19 N           0.0244  -21.2383  -45.7755 N.am      11 UNK        -0.5000 
     20 C           0.9438  -22.0435  -46.3235 C.2       10 UNK         0.5000 
     21 O           0.7963  -22.6248  -47.3965 O.2       10 UNK        -0.5000 
     22 CA          2.2259  -22.2729  -45.5087 C.3       10 UNK         0.1400 
     23 CB          3.2242  -21.1250  -45.7261 C.3       10 UNK        -0.1800 
     24 N           1.9347  -22.4204  -44.0824 N.am      10 UNK        -0.5000 
     25 C           1.2846  -23.4670  -43.5518 C.2       9 UNK         0.5000 
     26 O           0.9055  -24.4402  -44.2034 O.2       9 UNK        -0.5000 
     27 CA          0.9561  -23.3823  -42.0504 C.3       9 UNK         0.1400 
     28 CB          2.1833  -23.7450  -41.2010 C.3       9 UNK        -0.1800 
     29 N           0.4656  -22.0588  -41.6615 N.am      9 UNK        -0.5000 
     30 C          -0.6893  -21.5273  -42.0862 C.2       8 UNK         0.5000 
     31 O          -1.4801  -22.1121  -42.8238 O.2       8 UNK        -0.5000 
     32 CA         -0.9963  -20.0840  -41.6548 C.3       8 UNK         0.1400 
     33 CB         -1.7445  -20.0671  -40.3143 C.3       8 UNK        -0.1800 
     34 N           0.1872  -19.2304  -41.5561 N.am      8 UNK        -0.5000 
     35 C           1.0239  -18.9258  -42.5557 C.2       7 UNK         0.5000 
     36 O           0.9405  -19.4210  -43.6816 O.2       7 UNK        -0.5000 
     37 CA          2.1133  -17.8778  -42.2333 C.3       7 UNK         0.1400 
     38 CB          3.0833  -17.6623  -43.4093 C.3       7 UNK        -0.1800 
     39 N           1.5228  -16.5884  -41.8644 N.am      7 UNK        -0.5000 
     40 C           0.8892  -16.3131  -40.7122 C.2       6 UNK         0.5000 
     41 O           0.8511  -17.0962  -39.7614 O.2       6 UNK        -0.5000 
     42 CA          0.1376  -14.9685  -40.6028 C.3       6 UNK         0.1400 
     43 CB          0.9476  -13.9679  -39.7646 C.3       6 UNK        -0.1800 
     44 N          -0.1691  -14.3584  -41.8969 N.am      6 UNK        -0.5000 
     45 C          -0.9528  -14.8818  -42.8511 C.2       5 UNK         0.5000 
     46 O          -1.6473  -15.8851  -42.6870 O.2       5 UNK        -0.5000 
     47 CA         -0.9251  -14.1949  -44.2337 C.3       5 UNK         0.1400 
     48 CB         -2.2559  -13.4820  -44.5171 C.3       5 UNK        -0.1800 
     49 N           0.1725  -13.2390  -44.4272 N.am      5 UNK        -0.5000 
     50 C           1.4825  -13.5193  -44.3948 C.2       4 UNK         0.5000 
     51 O           1.9346  -14.6316  -44.1173 O.2       4 UNK        -0.5000 
     52 CA          2.4310  -12.3500  -44.7206 C.3       4 UNK         0.1400 
     53 CB          3.9128  -12.7159  -44.5213 C.3       4 UNK        -0.1800 
     54 N           2.2382  -11.8941  -46.0946 N.am      4 UNK        -0.5000 
     55 C           1.2652  -11.0795  -46.5231 C.2       3 UNK         0.5000 
     56 O           0.4152  -10.5845  -45.7814 O.2       3 UNK        -0.5000 
     57 CA          1.2123  -10.8134  -48.0352 C.3       3 UNK         0.1400 
     58 CB          2.3581   -9.8865  -48.4720 C.3       3 UNK        -0.1800 
     59 N           1.2999  -12.0750  -48.7676 N.am      3 UNK        -0.5000 
     60 C           0.2461  -12.7727  -49.2138 C.2       2 UNK         0.5000 
     61 O          -0.9171  -12.3735  -49.1494 O.2       2 UNK        -0.5000 
     62 CA          0.5350  -14.1561  -49.8310 C.3       2 UNK         0.1400 
     63 CB          0.7193  -14.0430  -51.3515 C.3       2 UNK        -0.1800 
     64 N           1.7145  -14.8035  -49.2578 N.am      2 UNK        -0.5000 
     65 C           1.7992  -15.2490  -47.9962 C.2       1 UNK         0.5000 
     66 O           0.8575  -15.2257  -47.2053 O.2       1 UNK        -0.5000 
     67 C          -2.1591  -22.2429  -46.4448 C.2       11 UNK         0.5000 
     68 O          -2.7587  -22.4819  -47.4917 O.2       11 UNK        -0.5000 
     69 N          -2.1756  -23.0670  -45.3905 N.am      12 UNK        -0.5000 
     70 CA         -2.8548  -24.3617  -45.3728 C.3       12 UNK         0.1400 
     71 CB         -2.8324  -24.9325  -43.9473 C.3       12 UNK        -0.1800 
     72 C          -2.2510  -25.3647  -46.3732 C.2       12 UNK         0.5000 
     73 O          -3.0013  -26.0614  -47.0565 O.2       12 UNK        -0.5000 
     74 N          -0.9142  -25.4133  -46.4430 N.am      13 UNK        -0.5000 
     75 CA         -0.1670  -26.3324  -47.2973 C.3       13 UNK         0.1400 
     76 CB          1.2889  -26.4140  -46.8101 C.3       13 UNK        -0.1800 
     77 C          -0.2237  -25.9638  -48.7904 C.2       13 UNK         0.5000 
     78 O          -0.6124  -26.8009  -49.6060 O.2       13 UNK        -0.5000 
     79 N           0.2047  -24.7412  -49.1283 N.am      14 UNK        -0.5000 
     80 CA          0.4496  -24.3176  -50.5072 C.3       14 UNK         0.1400 
     81 CB          1.6413  -23.3465  -50.5316 C.3       14 UNK        -0.1800 
     82 C          -0.7740  -23.6626  -51.1620 C.2       14 UNK         0.5000 
     83 O          -0.9787  -23.8435  -52.3629 O.2       14 UNK        -0.5000 
     84 N          -1.5490  -22.9015  -50.3800 N.am      15 UNK        -0.5000 
     85 CA         -2.6712  -22.1012  -50.8736 C.3       15 UNK         0.1400 
     86 CB         -2.5596  -20.6791  -50.3035 C.3       15 UNK        -0.1800 
     87 C          -4.0385  -22.7177  -50.5476 C.2       15 UNK         0.5000 
     88 O          -5.0504  -22.1016  -50.8709 O.2       15 UNK        -0.5000 
     89 N          -4.0653  -23.8914  -49.8988 N.am      16 UNK        -0.5000 
     90 CA         -5.2664  -24.6159  -49.4635 C.3       16 UNK         0.1400 
     91 CB         -6.0168  -25.1876  -50.6855 C.3       16 UNK        -0.1800 
     92 C          -6.1776  -23.7766  -48.5367 C.2       16 UNK         0.5000 
     93 O          -7.4027  -23.8592  -48.6367 O.2       16 UNK        -0.5000 
     94 N          -5.5459  -22.9753  -47.6654 N.am      17 UNK        -0.5000 
     95 CA         -6.1396  -21.9899  -46.7590 C.3       17 UNK         0.1400 
     96 CB         -7.0760  -22.6567  -45.7294 C.3       17 UNK        -0.1800 
     97 C          -6.7879  -20.8216  -47.5300 C.2       17 UNK         0.5000 
     98 O          -7.9771  -20.5444  -47.3628 O.2       17 UNK        -0.5000 
     99 N          -5.9630  -20.1556  -48.3512 N.am      18 UNK        -0.5000 
    100 CA        -6.2629  -18.9589  -49.1463 C.3       18 UNK         0.1400 
    101 CB        -6.5829  -17.7540  -48.2355 C.3       18 UNK        -0.1800 
    102 C         -7.3313  -19.1998  -50.2326 C.2       18 UNK         0.5000 
    103 O         -8.2449  -18.3897  -50.4050 O.2       18 UNK        -0.5000 
    104 N         -7.1776  -20.3094  -50.9574 N.am      19 UNK        -0.5000 
    105 CA        -7.9375  -20.6772  -52.1438 C.3       19 UNK         0.1400 
    106 CB        -8.8788  -21.8465  -51.7896 C.3       19 UNK        -0.1800 
    107 C         -6.9193  -20.9899  -53.2578 C.2       19 UNK         0.5000 
    108 O         -5.9769  -20.2143  -53.4405 O.2       19 UNK        -0.5000 
    109 N         -7.1065  -22.1144  -53.9658 N.am      20 UNK        -0.5000 
    110 CA        -6.2202  -22.6635  -54.9977 C.3       20 UNK         0.1400 
    111 CB        -4.9484  -23.2457  -54.3357 C.3       20 UNK        -0.1800 
    112 C         -5.9387  -21.6512  -56.1327 C.2       20 UNK         0.5000 
    113 O         -6.8845  -21.0761  -56.6762 O.2       20 UNK        -0.5000 
    114 N         -4.6597  -21.4497  -56.4646 N.am      21 UNK        -0.5000 
    115 CA        -4.1704  -20.4752  -57.4355 C.3       21 UNK         0.1400 
    116 CB        -4.2423  -21.0628  -58.8591 C.3       21 UNK        -0.1800 
    117 C         -2.7548  -20.0365  -57.0222 C.2       21 UNK         0.5000 
    118 O         -1.8278  -20.0812  -57.8335 O.2       21 UNK        -0.5000 
    119 N         -2.6027  -19.6768  -55.7407 N.am      22 UNK        -0.5000 
    120 CA        -1.3379  -19.2321  -55.1357 C.3       22 UNK         0.1400 
    121 C         -0.8077  -17.8730  -55.6837 C.2       22 UNK         0.5000 
    122 N          0.4813  -17.6001  -55.5277 N.am      22 UNK        -0.7600 
    123 O         -1.5487  -17.0543  -56.2245 O.2       22 UNK        -0.5000 
    124 C124       -1.4139  -19.2575  -53.5866 C.3       23 UNK        -0.0398 
    125 S125       -2.6374  -18.1021  -52.8690 S.3       23 UNK        -0.2404 
    126 C126       -1.5586  -16.8973  -52.0302 C.3       23 UNK        -0.0205 
    127 H127        6.6423  -13.1234  -48.5993 H         1 UNK         0.0600 
    128 H128        5.6769  -13.0292  -50.0759 H         1 UNK         0.0600 
    129 H129        6.3973  -14.5666  -49.5880 H         1 UNK         0.0600 
    130 H130        4.8950  -15.9532  -48.7164 H         1 UNK         0.3000 
    131 H131        3.2874  -15.4095  -46.4990 H         1 UNK         0.0600 
    132 H132        4.0655  -17.6372  -46.8645 H         1 UNK         0.0800 
    133 H133        2.3366  -17.7041  -46.9133 H         1 UNK         0.0800 
    134 H134        1.8842  -19.8440  -48.2346 H         1 UNK         0.0800 
    135 H135        2.0003  -19.9106  -49.9701 H         1 UNK         0.0800 
    136 H136        0.7882  -18.1662  -51.3874 H         1 UNK         0.1150 
    137 H137       -2.8668  -16.7414  -49.6516 H         1 UNK         0.1150 
    138 H138        0.1126  -18.5745  -47.1794 H         1 UNK         0.1150 
    139 H139       -1.7535  -17.0637  -46.2223 H         1 UNK         0.0800 
    140 H140       -3.0862  -16.6469  -47.2607 H         1 UNK         0.0800 
    141 H141       -2.5190  -20.2126  -44.6800 H         1 UNK         0.0800 
    142 H142       -1.2963  -19.1027  -45.2065 H         1 UNK         0.0800 
    143 H143       -1.1244  -20.6387  -47.3613 H         1 UNK         0.0600 
    144 H144        0.2608  -20.7616  -44.9099 H         1 UNK         0.3000 
    145 H145        2.6884  -23.1978  -45.8599 H         1 UNK         0.0600 
    146 H146        4.1310  -21.2725  -45.1397 H         1 UNK         0.0600 
    147 H147        3.5227  -21.0647  -46.7734 H         1 UNK         0.0600 
    148 H148        2.8007  -20.1584  -45.4530 H         1 UNK         0.0600 
    149 H149        2.1567  -21.6341  -43.4899 H         1 UNK         0.3000 
    150 H150        0.1690  -24.1099  -41.8410 H         1 UNK         0.0600 
    151 H151        2.5603  -24.7343  -41.4639 H         1 UNK         0.0600 
    152 H152        1.9355  -23.7647  -40.1395 H         1 UNK         0.0600 
    153 H153        2.9986  -23.0344  -41.3424 H         1 UNK         0.0600 
    154 H154        1.0566  -21.5062  -41.0580 H         1 UNK         0.3000 
    155 H155       -1.6491  -19.6469  -42.4125 H         1 UNK         0.0600 
    156 H156       -1.1274  -20.4570  -39.5038 H         1 UNK         0.0600 
    157 H157       -2.6482  -20.6761  -40.3628 H         1 UNK         0.0600 
    158 H158       -2.0494  -19.0551  -40.0467 H         1 UNK         0.0600 
    159 H159        0.3186  -18.7344  -40.6796 H         1 UNK         0.3000 
    160 H160        2.6913  -18.2528  -41.3864 H         1 UNK         0.0600 
    161 H161        2.5620  -17.3140  -44.3018 H         1 UNK         0.0600 
    162 H162        3.5975  -18.5886  -43.6676 H         1 UNK         0.0600 
    163 H163        3.8471  -16.9250  -43.1615 H         1 UNK         0.0600 
    164 H164        1.5171  -15.8860  -42.5980 H         1 UNK         0.3000 
    165 H165       -0.8076  -15.1633  -40.0922 H         1 UNK         0.0600 
    166 H166        0.3954  -13.0399  -39.6142 H         1 UNK         0.0600 
    167 H167        1.1704  -14.3749  -38.7773 H         1 UNK         0.0600 
    168 H168        1.8978  -13.7216  -40.2403 H         1 UNK         0.0600 
    169 H169        0.3542  -13.5291  -42.1338 H         1 UNK         0.3000 
    170 H170       -0.7987  -14.9863  -44.9752 H         1 UNK         0.0600 
    171 H171       -3.0975  -14.1698  -44.4241 H         1 UNK         0.0600 
    172 H172       -2.4251  -12.6578  -43.8231 H         1 UNK         0.0600 
    173 H173       -2.2784  -13.0797  -45.5304 H         1 UNK         0.0600 
    174 H174       -0.0918  -12.2970  -44.6937 H         1 UNK         0.3000 
    175 H175        2.1958  -11.5328  -44.0356 H         1 UNK         0.0600 
    176 H176        4.2203  -13.5322  -45.1755 H         1 UNK         0.0600 
    177 H177        4.5598  -11.8630  -44.7268 H         1 UNK         0.0600 
    178 H178        4.1035  -13.0288  -43.4940 H         1 UNK         0.0600 
    179 H179        2.8852  -12.2799  -46.7801 H         1 UNK         0.3000 
    180 H180        0.2695  -10.3097  -48.2588 H         1 UNK         0.0600 
    181 H181        3.3366  -10.3303  -48.2847 H         1 UNK         0.0600 
    182 H182        2.3187   -8.9385  -47.9341 H         1 UNK         0.0600 
    183 H183        2.2937   -9.6595  -49.5362 H         1 UNK         0.0600 
    184 H184        2.2173  -12.5037  -48.8087 H         1 UNK         0.3000 
    185 H185       -0.3294  -14.7919  -49.6332 H         1 UNK         0.0600 
    186 H186       -0.1750  -13.6335  -51.8227 H         1 UNK         0.0600 
    187 H187        1.5553  -13.3913  -51.6082 H         1 UNK         0.0600 
    188 H188        0.9062  -15.0185  -51.8000 H         1 UNK         0.0600 
    189 H189        2.5318  -14.8732  -49.8453 H         1 UNK         0.3000 
    190 H190       -1.7105  -22.7856  -44.5303 H         1 UNK         0.3000 
    191 H191       -3.8974  -24.1996  -45.6524 H         1 UNK         0.0600 
    192 H192       -1.8131  -25.0766  -43.5871 H         1 UNK         0.0600 
    193 H193       -3.3379  -25.8980  -43.9037 H         1 UNK         0.0600 
    194 H194       -3.3413  -24.2669  -43.2498 H         1 UNK         0.0600 
    195 H195       -0.3691  -24.8286  -45.8189 H         1 UNK         0.3000 
    196 H196       -0.6056  -27.3267  -47.1877 H         1 UNK         0.0600 
    197 H197        1.8742  -27.0905  -47.4342 H         1 UNK         0.0600 
    198 H198        1.3400  -26.7894  -45.7879 H         1 UNK         0.0600 
    199 H199        1.7784  -25.4397  -46.8309 H         1 UNK         0.0600 
    200 H200        0.4666  -24.0783  -48.4000 H         1 UNK         0.3000 
    201 H201        0.7232  -25.1869  -51.1094 H         1 UNK         0.0600 
    202 H202        2.5288  -23.7987  -50.0887 H         1 UNK         0.0600 
    203 H203        1.4258  -22.4275  -49.9856 H         1 UNK         0.0600 
    204 H204        1.8945  -23.0658  -51.5547 H         1 UNK         0.0600 
    205 H205       -1.3404  -22.8262  -49.3928 H         1 UNK         0.3000 
    206 H206       -2.6284  -22.0184  -51.9606 H         1 UNK         0.0600 
    207 H207       -1.5952  -20.2396  -50.5512 H         1 UNK         0.0600 
    208 H208       -3.3291  -20.0287  -50.7195 H         1 UNK         0.0600 
    209 H209       -2.6687  -20.6501  -49.2221 H         1 UNK         0.0600 
    210 H210       -3.1803  -24.3005  -49.6355 H         1 UNK         0.3000 
    211 H211       -4.9198  -25.4596  -48.8663 H         1 UNK         0.0600 
    212 H212       -6.4409  -24.3977  -51.3060 H         1 UNK         0.0600 
    213 H213       -6.8371  -25.8351  -50.3741 H         1 UNK         0.0600 
    214 H214       -5.3533  -25.7843  -51.3112 H         1 UNK         0.0600 
    215 H215       -4.5288  -22.9545  -47.7077 H         1 UNK         0.3000 
    216 H216       -5.3085  -21.5589  -46.1984 H         1 UNK         0.0600 
    217 H217       -7.4090  -21.9324  -44.9853 H         1 UNK         0.0600 
    218 H218       -6.5666  -23.4593  -45.1962 H         1 UNK         0.0600 
    219 H219       -7.9684  -23.0753  -46.1947 H         1 UNK         0.0600 
    220 H220       -5.0149  -20.4937  -48.4308 H         1 UNK         0.3000 
    221 H221       -5.3426  -18.7197  -49.6817 H         1 UNK         0.0600 
    222 H222       -7.5187  -17.8913  -47.6932 H         1 UNK         0.0600 
    223 H223       -5.7929  -17.5890  -47.5037 H         1 UNK         0.0600 
    224 H224       -6.6759  -16.8381  -48.8200 H         1 UNK         0.0600 
    225 H225       -6.3659  -20.9033  -50.7848 H         1 UNK         0.3000 
    226 H226       -8.5385  -19.8353  -52.4924 H         1 UNK         0.0600 
    227 H227       -9.5444  -21.5722  -50.9708 H         1 UNK         0.0600 
    228 H228       -9.5109  -22.1221  -52.6343 H         1 UNK         0.0600 
    229 H229       -8.3233  -22.7312  -51.4750 H         1 UNK         0.0600 
    230 H230       -7.9277  -22.6654  -53.7623 H         1 UNK         0.3000 
    231 H231       -6.7601  -23.4913  -55.4594 H         1 UNK         0.0600 
    232 H232       -5.2094  -23.9642  -53.5586 H         1 UNK         0.0600 
    233 H233       -4.3388  -22.4709  -53.8690 H         1 UNK         0.0600 
    234 H234       -4.3273  -23.7751  -55.0591 H         1 UNK         0.0600 
    235 H235       -3.9448  -21.9528  -55.9573 H         1 UNK         0.3000 
    236 H236       -4.7967  -19.5813  -57.3974 H         1 UNK         0.0600 
    237 H237       -3.8874  -20.3436  -59.5982 H         1 UNK         0.0600 
    238 H238       -3.6325  -21.9621  -58.9524 H         1 UNK         0.0600 
    239 H239       -5.2658  -21.3232  -59.1288 H         1 UNK         0.0600 
    240 H240       -3.4172  -19.6308  -55.1439 H         1 UNK         0.3000 
    241 H241       -0.5942  -19.9783  -55.4230 H         1 UNK         0.0600 
    242 H242        0.8369  -16.7217  -55.8716 H         1 UNK         0.3800 
    243 H243        1.1176  -18.2545  -55.1000 H         1 UNK         0.3800 
    244 H244       -0.4288  -19.0693  -53.1612 H         1 UNK         0.0800 
    245 H245       -1.6762  -20.2627  -53.2575 H         1 UNK         0.0800 
    246 H246       -0.7078  -16.6569  -52.6691 H         1 UNK         0.0800 
    247 H247       -2.1106  -15.9650  -51.9032 H         1 UNK         0.0800 
@<TRIPOS>BOND
     1    1    2 1    
     2    1  127 1    
     3    1  128 1    
     4    1  129 1    
     5    2    3 2    
     6    2    4 am   BACKBONE|DICT|INTERRES
     7    4    5 1    
     8    4  130 1    
     9    5    6 1    
    10    5   65 1    
    11    5  131 1    
    12    6    7 1    
    13    6  132 1    
    14    6  133 1    
    15    7    8 1    
    16    8    9 1    
    17    8  134 1    
    18    8  135 1    
    19    9   10 ar   
    20    9   14 ar   
    21   10   11 ar   
    22   10  136 1    
    23   11   12 ar   
    24   11  126 1    
    25   12   13 ar   
    26   12  137 1    
    27   13   14 ar   
    28   13   15 1    
    29   14  138 1    
    30   15   16 1    
    31   15  139 1    
    32   15  140 1    
    33   16   17 1    
    34   17   18 1    
    35   17  141 1    
    36   17  142 1    
    37   18   19 1    
    38   18   67 1    
    39   18  143 1    
    40   19   20 am   BACKBONE|DICT|INTERRES
    41   19  144 1    
    42   20   21 2    
    43   20   22 1    
    44   22   23 1    
    45   22   24 1    
    46   22  145 1    
    47   23  146 1    
    48   23  147 1    
    49   23  148 1    
    50   24   25 am   BACKBONE|DICT|INTERRES
    51   24  149 1    
    52   25   26 2    
    53   25   27 1    
    54   27   28 1    
    55   27   29 1    
    56   27  150 1    
    57   28  151 1    
    58   28  152 1    
    59   28  153 1    
    60   29   30 am   BACKBONE|DICT|INTERRES
    61   29  154 1    
    62   30   31 2    
    63   30   32 1    
    64   32   33 1    
    65   32   34 1    
    66   32  155 1    
    67   33  156 1    
    68   33  157 1    
    69   33  158 1    
    70   34   35 am   BACKBONE|DICT|INTERRES
    71   34  159 1    
    72   35   36 2    
    73   35   37 1    
    74   37   38 1    
    75   37   39 1    
    76   37  160 1    
    77   38  161 1    
    78   38  162 1    
    79   38  163 1    
    80   39   40 am   BACKBONE|DICT|INTERRES
    81   39  164 1    
    82   40   41 2    
    83   40   42 1    
    84   42   43 1    
    85   42   44 1    
    86   42  165 1    
    87   43  166 1    
    88   43  167 1    
    89   43  168 1    
    90   44   45 am   BACKBONE|DICT|INTERRES
    91   44  169 1    
    92   45   46 2    
    93   45   47 1    
    94   47   48 1    
    95   47   49 1    
    96   47  170 1    
    97   48  171 1    
    98   48  172 1    
    99   48  173 1    
   100   49   50 am   BACKBONE|DICT|INTERRES
   101   49  174 1    
   102   50   51 2    
   103   50   52 1    
   104   52   53 1    
   105   52   54 1    
   106   52  175 1    
   107   53  176 1    
   108   53  177 1    
   109   53  178 1    
   110   54   55 am   BACKBONE|DICT|INTERRES
   111   54  179 1    
   112   55   56 2    
   113   55   57 1    
   114   57   58 1    
   115   57   59 1    
   116   57  180 1    
   117   58  181 1    
   118   58  182 1    
   119   58  183 1    
   120   59   60 am   BACKBONE|DICT|INTERRES
   121   59  184 1    
   122   60   61 2    
   123   60   62 1    
   124   62   63 1    
   125   62   64 1    
   126   62  185 1    
   127   63  186 1    
   128   63  187 1    
   129   63  188 1    
   130   64   65 am   BACKBONE|DICT|INTERRES
   131   64  189 1    
   132   65   66 2    
   133   67   68 2    
   134   67   69 am   BACKBONE|DICT|INTERRES
   135   69   70 1    
   136   69  190 1    
   137   70   71 1    
   138   70   72 1    
   139   70  191 1    
   140   71  192 1    
   141   71  193 1    
   142   71  194 1    
   143   72   73 2    
   144   72   74 am   BACKBONE|DICT|INTERRES
   145   74   75 1    
   146   74  195 1    
   147   75   76 1    
   148   75   77 1    
   149   75  196 1    
   150   76  197 1    
   151   76  198 1    
   152   76  199 1    
   153   77   78 2    
   154   77   79 am   BACKBONE|DICT|INTERRES
   155   79   80 1    
   156   79  200 1    
   157   80   81 1    
   158   80   82 1    
   159   80  201 1    
   160   81  202 1    
   161   81  203 1    
   162   81  204 1    
   163   82   83 2    
   164   82   84 am   BACKBONE|DICT|INTERRES
   165   84   85 1    
   166   84  205 1    
   167   85   86 1    
   168   85   87 1    
   169   85  206 1    
   170   86  207 1    
   171   86  208 1    
   172   86  209 1    
   173   87   88 2    
   174   87   89 am   BACKBONE|DICT|INTERRES
   175   89   90 1    
   176   89  210 1    
   177   90   91 1    
   178   90   92 1    
   179   90  211 1    
   180   91  212 1    
   181   91  213 1    
   182   91  214 1    
   183   92   93 2    
   184   92   94 am   BACKBONE|DICT|INTERRES
   185   94   95 1    
   186   94  215 1    
   187   95   96 1    
   188   95   97 1    
   189   95  216 1    
   190   96  217 1    
   191   96  218 1    
   192   96  219 1    
   193   97   98 2    
   194   97   99 am   BACKBONE|DICT|INTERRES
   195   99  100 1    
   196   99  220 1    
   197  100  101 1    
   198  100  102 1    
   199  100  221 1    
   200  101  222 1    
   201  101  223 1    
   202  101  224 1    
   203  102  103 2    
   204  102  104 am   BACKBONE|DICT|INTERRES
   205  104  105 1    
   206  104  225 1    
   207  105  106 1    
   208  105  107 1    
   209  105  226 1    
   210  106  227 1    
   211  106  228 1    
   212  106  229 1    
   213  107  108 2    
   214  107  109 am   BACKBONE|DICT|INTERRES
   215  109  110 1    
   216  109  230 1    
   217  110  111 1    
   218  110  112 1    
   219  110  231 1    
   220  111  232 1    
   221  111  233 1    
   222  111  234 1    
   223  112  113 2    
   224  112  114 am   BACKBONE|DICT|INTERRES
   225  114  115 1    
   226  114  235 1    
   227  115  116 1    
   228  115  117 1    
   229  115  236 1    
   230  116  237 1    
   231  116  238 1    
   232  116  239 1    
   233  117  118 2    
   234  117  119 am   BACKBONE|DICT|INTERRES
   235  119  120 1    
   236  119  240 1    
   237  120  121 1    
   238  120  124 1    
   239  120  241 1    
   240  121  122 am   BACKBONE|DICT|INTERRES
   241  121  123 2    
   242  122  242 1    
   243  122  243 1    
   244  124  125 1    
   245  124  244 1    
   246  124  245 1    
   247  125  126 1    
   248  126  246 1    
   249  126  247 1    
@<TRIPOS>SUBSTRUCTURE
     1 UNK         1 GROUP             0       ****    0 ROOT    
