@<TRIPOS>MOLECULE
3R540
247   249    1
SMALL
USER_CHARGES


@<TRIPOS>ATOM
      1 CA          6.5696  -14.8613  -48.1066 C.3       0 UNK        -0.1800 
      2 C           5.5456  -14.1386  -47.2431 C.2       0 UNK         0.5000 
      3 O           5.6435  -14.1770  -46.0190 O.2       0 UNK        -0.5000 
      4 N           4.5690  -13.4788  -47.8789 N.am      1 UNK        -0.5000 
      5 CA          3.4849  -12.7350  -47.2234 C.3       1 UNK         0.1400 
      6 C6          2.2922  -12.5511  -48.1981 C.3       23 UNK        -0.0398 
      7 S7          0.6914  -12.2525  -47.3734 S.3       23 UNK        -0.2404 
      8 C8          0.2720  -13.8976  -46.7185 C.3       23 UNK        -0.0205 
      9 C9         -0.0391  -14.9067  -47.8128 C.ar      23 UNK        -0.0193 
     10 C10        -1.3232  -14.9720  -48.3626 C.ar      23 UNK        -0.1150 
     11 C11        -1.6394  -15.9383  -49.3223 C.ar      23 UNK        -0.0193 
     12 C12        -0.6459  -16.8228  -49.7501 C.ar      23 UNK        -0.1150 
     13 C13         0.6416  -16.7671  -49.2113 C.ar      23 UNK        -0.0193 
     14 C14         0.9396  -15.8097  -48.2389 C.ar      23 UNK        -0.1150 
     15 C15         1.6966  -17.7646  -49.6630 C.3       23 UNK        -0.0205 
     16 S16         1.7406  -19.2336  -48.5891 S.3       23 UNK        -0.2404 
     17 C17         0.0464  -19.8819  -48.7959 C.3       23 UNK        -0.0398 
     18 CA         -0.1023  -21.3284  -48.2829 C.3       11 UNK         0.1400 
     19 N           0.1423  -21.4429  -46.8445 N.am      11 UNK        -0.5000 
     20 C           0.2846  -22.6015  -46.1888 C.2       10 UNK         0.5000 
     21 O           0.2441  -23.7042  -46.7330 O.2       10 UNK        -0.5000 
     22 CA          0.4486  -22.5143  -44.6633 C.3       10 UNK         0.1400 
     23 CB          1.8972  -22.1746  -44.2809 C.3       10 UNK        -0.1800 
     24 N          -0.4613  -21.5299  -44.0795 N.am      10 UNK        -0.5000 
     25 C          -1.7898  -21.6853  -44.0005 C.2       9 UNK         0.5000 
     26 O          -2.3845  -22.6957  -44.3787 O.2       9 UNK        -0.5000 
     27 CA         -2.5869  -20.4933  -43.4387 C.3       9 UNK         0.1400 
     28 CB         -2.5463  -20.4855  -41.9035 C.3       9 UNK        -0.1800 
     29 N          -2.1057  -19.2056  -43.9423 N.am      9 UNK        -0.5000 
     30 C          -2.2063  -18.8141  -45.2213 C.2       8 UNK         0.5000 
     31 O          -2.7253  -19.4956  -46.1016 O.2       8 UNK        -0.5000 
     32 CA         -1.5916  -17.4523  -45.5933 C.3       8 UNK         0.1400 
     33 CB         -2.6107  -16.3355  -45.3219 C.3       8 UNK        -0.1800 
     34 N          -0.3426  -17.1496  -44.8909 N.am      8 UNK        -0.5000 
     35 C           0.7389  -17.9444  -44.8421 C.2       7 UNK         0.5000 
     36 O           0.8099  -19.0335  -45.4089 O.2       7 UNK        -0.5000 
     37 CA          1.9243  -17.4850  -43.9712 C.3       7 UNK         0.1400 
     38 CB          3.0319  -16.8959  -44.8580 C.3       7 UNK        -0.1800 
     39 N           1.5622  -16.5181  -42.9301 N.am      7 UNK        -0.5000 
     40 C           0.6669  -16.7302  -41.9499 C.2       6 UNK         0.5000 
     41 O           0.0916  -17.8067  -41.7801 O.2       6 UNK        -0.5000 
     42 CA          0.3133  -15.5423  -41.0289 C.3       6 UNK         0.1400 
     43 CB          0.9711  -15.7189  -39.6520 C.3       6 UNK        -0.1800 
     44 N           0.6876  -14.2308  -41.5631 N.am      6 UNK        -0.5000 
     45 C           0.2328  -13.6775  -42.6972 C.2       5 UNK         0.5000 
     46 O          -0.6308  -14.1935  -43.4070 O.2       5 UNK        -0.5000 
     47 CA          0.9026  -12.3585  -43.1404 C.3       5 UNK         0.1400 
     48 CB          0.0306  -11.1538  -42.7605 C.3       5 UNK        -0.1800 
     49 N           2.2527  -12.1637  -42.5971 N.am      5 UNK        -0.5000 
     50 C           3.2994  -12.9709  -42.8161 C.2       4 UNK         0.5000 
     51 O           3.2270  -13.9893  -43.5044 O.2       4 UNK        -0.5000 
     52 CA          4.6223  -12.5859  -42.1224 C.3       4 UNK         0.1400 
     53 CB          5.7306  -13.6320  -42.3324 C.3       4 UNK        -0.1800 
     54 N           5.1142  -11.2867  -42.5734 N.am      4 UNK        -0.5000 
     55 C           4.6721  -10.0892  -42.1754 C.2       3 UNK         0.5000 
     56 O           3.7756   -9.9434  -41.3428 O.2       3 UNK        -0.5000 
     57 CA          5.3107   -8.8475  -42.8312 C.3       3 UNK         0.1400 
     58 CB          6.6938   -8.5382  -42.2264 C.3       3 UNK        -0.1800 
     59 N           5.3544   -8.9074  -44.2993 N.am      3 UNK        -0.5000 
     60 C           6.0612   -9.7274  -45.0893 C.2       2 UNK         0.5000 
     61 O           6.8810  -10.5528  -44.6806 O.2       2 UNK        -0.5000 
     62 CA          5.7478   -9.6526  -46.5952 C.3       2 UNK         0.1400 
     63 CB          7.0205   -9.3924  -47.4166 C.3       2 UNK        -0.1800 
     64 N           5.1151  -10.8845  -47.0684 N.am      2 UNK        -0.5000 
     65 C           3.9512  -11.3860  -46.6254 C.2       1 UNK         0.5000 
     66 O           3.2499  -10.8222  -45.7847 O.2       1 UNK        -0.5000 
     67 C          -1.4708  -21.9111  -48.6892 C.2       11 UNK         0.5000 
     68 O          -1.5651  -22.5202  -49.7530 O.2       11 UNK        -0.5000 
     69 N          -2.5049  -21.7440  -47.8523 N.am      12 UNK        -0.5000 
     70 CA         -3.8225  -22.3539  -48.0447 C.3       12 UNK         0.1400 
     71 CB         -4.8297  -21.7811  -47.0377 C.3       12 UNK        -0.1800 
     72 C          -3.7698  -23.8855  -47.9445 C.2       12 UNK         0.5000 
     73 O          -4.3687  -24.5639  -48.7795 O.2       12 UNK        -0.5000 
     74 N          -3.0272  -24.4010  -46.9542 N.am      13 UNK        -0.5000 
     75 CA         -2.7812  -25.8306  -46.7634 C.3       13 UNK         0.1400 
     76 CB         -2.0785  -26.0626  -45.4176 C.3       13 UNK        -0.1800 
     77 C          -1.9808  -26.4480  -47.9249 C.2       13 UNK         0.5000 
     78 O          -2.3632  -27.5054  -48.4273 O.2       13 UNK        -0.5000 
     79 N          -0.9238  -25.7522  -48.3696 N.am      14 UNK        -0.5000 
     80 CA         -0.1034  -26.1188  -49.5285 C.3       14 UNK         0.1400 
     81 CB          1.0978  -25.1670  -49.6268 C.3       14 UNK        -0.1800 
     82 C          -0.8957  -26.1282  -50.8504 C.2       14 UNK         0.5000 
     83 O          -0.6513  -26.9832  -51.7017 O.2       14 UNK        -0.5000 
     84 N          -1.8639  -25.2116  -50.9722 N.am      15 UNK        -0.5000 
     85 CA         -2.8254  -25.1228  -52.0706 C.3       15 UNK         0.1400 
     86 CB         -3.2729  -23.6586  -52.2188 C.3       15 UNK        -0.1800 
     87 C          -4.0322  -26.0742  -51.9113 C.2       15 UNK         0.5000 
     88 O          -5.0173  -25.9009  -52.6255 O.2       15 UNK        -0.5000 
     89 N          -3.9562  -27.0516  -50.9939 N.am      16 UNK        -0.5000 
     90 CA         -4.9456  -28.1049  -50.7386 C.3       16 UNK         0.1400 
     91 CB         -5.0325  -29.0695  -51.9405 C.3       16 UNK        -0.1800 
     92 C          -6.3165  -27.5418  -50.3127 C.2       16 UNK         0.5000 
     93 O          -7.3417  -27.8766  -50.9088 O.2       16 UNK        -0.5000 
     94 N          -6.2853  -26.6785  -49.2885 N.am      17 UNK        -0.5000 
     95 CA         -7.3994  -25.8936  -48.7485 C.3       17 UNK         0.1400 
     96 CB         -8.5469  -26.7901  -48.2352 C.3       17 UNK        -0.1800 
     97 C          -7.8522  -24.8015  -49.7374 C.2       17 UNK         0.5000 
     98 O          -9.0501  -24.6199  -49.9620 O.2       17 UNK        -0.5000 
     99 N          -6.8595  -24.0877  -50.2882 N.am      18 UNK        -0.5000 
    100 CA        -6.9781  -22.9495  -51.2032 C.3       18 UNK         0.1400 
    101 CB        -7.5449  -21.7227  -50.4588 C.3       18 UNK        -0.1800 
    102 C         -7.7389  -23.2807  -52.5064 C.2       18 UNK         0.5000 
    103 O         -8.6817  -22.5758  -52.8747 O.2       18 UNK        -0.5000 
    104 N         -7.3151  -24.3522  -53.1870 N.am      19 UNK        -0.5000 
    105 CA        -7.7986  -24.7364  -54.5082 C.3       19 UNK         0.1400 
    106 CB        -7.8106  -26.2701  -54.6153 C.3       19 UNK        -0.1800 
    107 C         -6.8869  -24.1109  -55.5778 C.2       19 UNK         0.5000 
    108 O         -5.6856  -24.3848  -55.5896 O.2       19 UNK        -0.5000 
    109 N         -7.4750  -23.2798  -56.4512 N.am      20 UNK        -0.5000 
    110 CA        -6.8597  -22.5994  -57.6052 C.3       20 UNK         0.1400 
    111 CB        -6.3570  -23.6285  -58.6394 C.3       20 UNK        -0.1800 
    112 C         -5.7755  -21.5484  -57.2640 C.2       20 UNK         0.5000 
    113 O         -5.1403  -21.0140  -58.1747 O.2       20 UNK        -0.5000 
    114 N         -5.6026  -21.2416  -55.9767 N.am      21 UNK        -0.5000 
    115 CA        -4.6769  -20.2715  -55.4035 C.3       21 UNK         0.1400 
    116 CB        -3.2350  -20.8109  -55.4569 C.3       21 UNK        -0.1800 
    117 C         -5.1183  -20.0379  -53.9529 C.2       21 UNK         0.5000 
    118 O         -5.8525  -20.8657  -53.4097 O.2       21 UNK        -0.5000 
    119 N         -4.6689  -18.9381  -53.3372 N.am      22 UNK        -0.5000 
    120 CA        -4.9990  -18.6093  -51.9380 C.3       22 UNK         0.1400 
    121 C         -4.2703  -19.4759  -50.8643 C.2       22 UNK         0.5000 
    122 N         -3.2894  -20.2957  -51.2278 N.am      22 UNK        -0.7600 
    123 O         -4.6203  -19.4164  -49.6908 O.2       22 UNK        -0.5000 
    124 C124       -4.9177  -17.0844  -51.6602 C.3       23 UNK        -0.0398 
    125 S125       -3.2234  -16.4005  -51.6045 S.3       23 UNK        -0.2404 
    126 C126       -3.0749  -16.0834  -49.8118 C.3       23 UNK        -0.0205 
    127 H127        6.5664  -15.9270  -47.8777 H         1 UNK         0.0600 
    128 H128        7.5683  -14.4720  -47.9088 H         1 UNK         0.0600 
    129 H129        6.3618  -14.7416  -49.1702 H         1 UNK         0.0600 
    130 H130        4.5518  -13.4825  -48.8891 H         1 UNK         0.3000 
    131 H131        3.1518  -13.3438  -46.3809 H         1 UNK         0.0600 
    132 H132        2.4821  -11.7280  -48.8893 H         1 UNK         0.0800 
    133 H133        2.1776  -13.4301  -48.8318 H         1 UNK         0.0800 
    134 H134        1.0705  -14.2638  -46.0730 H         1 UNK         0.0800 
    135 H135       -0.5991  -13.7855  -46.0734 H         1 UNK         0.0800 
    136 H136       -2.0863  -14.2908  -48.0130 H         1 UNK         0.1150 
    137 H137       -0.8848  -17.5815  -50.4816 H         1 UNK         0.1150 
    138 H138        1.9294  -15.7775  -47.8057 H         1 UNK         0.1150 
    139 H139        1.5133  -18.0723  -50.6937 H         1 UNK         0.0800 
    140 H140        2.6796  -17.2915  -49.6562 H         1 UNK         0.0800 
    141 H141       -0.2060  -19.8303  -49.8567 H         1 UNK         0.0800 
    142 H142       -0.6502  -19.2247  -48.2731 H         1 UNK         0.0800 
    143 H143        0.6553  -21.9331  -48.7852 H         1 UNK         0.0600 
    144 H144        0.2489  -20.5711  -46.3303 H         1 UNK         0.3000 
    145 H145        0.2083  -23.4937  -44.2442 H         1 UNK         0.0600 
    146 H146        2.0251  -22.1562  -43.1985 H         1 UNK         0.0600 
    147 H147        2.5876  -22.9201  -44.6773 H         1 UNK         0.0600 
    148 H148        2.2051  -21.2044  -44.6716 H         1 UNK         0.0600 
    149 H149       -0.0607  -20.6412  -43.8156 H         1 UNK         0.3000 
    150 H150       -3.6265  -20.6128  -43.7515 H         1 UNK         0.0600 
    151 H151       -2.9078  -21.4315  -41.4981 H         1 UNK         0.0600 
    152 H152       -3.1779  -19.6954  -41.4970 H         1 UNK         0.0600 
    153 H153       -1.5340  -20.3309  -41.5274 H         1 UNK         0.0600 
    154 H154       -1.6267  -18.6048  -43.2841 H         1 UNK         0.3000 
    155 H155       -1.3686  -17.4696  -46.6613 H         1 UNK         0.0600 
    156 H156       -3.5367  -16.5107  -45.8711 H         1 UNK         0.0600 
    157 H157       -2.2325  -15.3633  -45.6310 H         1 UNK         0.0600 
    158 H158       -2.8616  -16.2693  -44.2625 H         1 UNK         0.0600 
    159 H159       -0.3181  -16.2766  -44.3796 H         1 UNK         0.3000 
    160 H160        2.3208  -18.3716  -43.4727 H         1 UNK         0.0600 
    161 H161        3.9195  -16.6515  -44.2740 H         1 UNK         0.0600 
    162 H162        2.7038  -15.9859  -45.3608 H         1 UNK         0.0600 
    163 H163        3.3355  -17.6044  -45.6301 H         1 UNK         0.0600 
    164 H164        2.0004  -15.6060  -43.0038 H         1 UNK         0.3000 
    165 H165       -0.7704  -15.5486  -40.8970 H         1 UNK         0.0600 
    166 H166        0.6609  -14.9341  -38.9619 H         1 UNK         0.0600 
    167 H167        0.6902  -16.6727  -39.2032 H         1 UNK         0.0600 
    168 H168        2.0595  -15.6965  -39.7210 H         1 UNK         0.0600 
    169 H169        1.3988  -13.7282  -41.0534 H         1 UNK         0.3000 
    170 H170        0.9903  -12.3867  -44.2279 H         1 UNK         0.0600 
    171 H171       -0.9738  -11.2525  -43.1747 H         1 UNK         0.0600 
    172 H172       -0.0667  -11.0528  -41.6789 H         1 UNK         0.0600 
    173 H173        0.4513  -10.2261  -43.1492 H         1 UNK         0.0600 
    174 H174        2.4103  -11.3309  -42.0399 H         1 UNK         0.3000 
    175 H175        4.4201  -12.5327  -41.0507 H         1 UNK         0.0600 
    176 H176        6.0073  -13.7169  -43.3836 H         1 UNK         0.0600 
    177 H177        6.6282  -13.3731  -41.7708 H         1 UNK         0.0600 
    178 H178        5.4097  -14.6185  -41.9952 H         1 UNK         0.0600 
    179 H179        5.8252  -11.2967  -43.3000 H         1 UNK         0.3000 
    180 H180        4.6606   -8.0037  -42.5942 H         1 UNK         0.0600 
    181 H181        7.4046   -9.3492  -42.3860 H         1 UNK         0.0600 
    182 H182        6.6183   -8.3826  -41.1496 H         1 UNK         0.0600 
    183 H183        7.1179   -7.6309  -42.6567 H         1 UNK         0.0600 
    184 H184        4.6729   -8.3150  -44.7534 H         1 UNK         0.3000 
    185 H185        5.0540   -8.8289  -46.7754 H         1 UNK         0.0600 
    186 H186        7.5146   -8.4767  -47.0893 H         1 UNK         0.0600 
    187 H187        7.7394  -10.2068  -47.3169 H         1 UNK         0.0600 
    188 H188        6.7902   -9.2759  -48.4757 H         1 UNK         0.0600 
    189 H189        5.6404  -11.4314  -47.7340 H         1 UNK         0.3000 
    190 H190       -2.4011  -21.1383  -47.0430 H         1 UNK         0.3000 
    191 H191       -4.1726  -22.1027  -49.0474 H         1 UNK         0.0600 
    192 H192       -4.5146  -21.9505  -46.0079 H         1 UNK         0.0600 
    193 H193       -5.8119  -22.2384  -47.1639 H         1 UNK         0.0600 
    194 H194       -4.9536  -20.7071  -47.1777 H         1 UNK         0.0600 
    195 H195       -2.5885  -23.7705  -46.2933 H         1 UNK         0.3000 
    196 H196       -3.7507  -26.3317  -46.7268 H         1 UNK         0.0600 
    197 H197       -1.9182  -27.1267  -45.2399 H         1 UNK         0.0600 
    198 H198       -2.6775  -25.6807  -44.5906 H         1 UNK         0.0600 
    199 H199       -1.1057  -25.5732  -45.3768 H         1 UNK         0.0600 
    200 H200       -0.6439  -24.9155  -47.8627 H         1 UNK         0.3000 
    201 H201        0.2740  -27.1294  -49.3606 H         1 UNK         0.0600 
    202 H202        1.6968  -25.1908  -48.7163 H         1 UNK         0.0600 
    203 H203        0.7802  -24.1376  -49.7928 H         1 UNK         0.0600 
    204 H204        1.7510  -25.4466  -50.4542 H         1 UNK         0.0600 
    205 H205       -1.9559  -24.5090  -50.2469 H         1 UNK         0.3000 
    206 H206       -2.3260  -25.4091  -52.9982 H         1 UNK         0.0600 
    207 H207       -2.4225  -23.0102  -52.4290 H         1 UNK         0.0600 
    208 H208       -3.9818  -23.5324  -53.0386 H         1 UNK         0.0600 
    209 H209       -3.7480  -23.2969  -51.3077 H         1 UNK         0.0600 
    210 H210       -3.1349  -27.0845  -50.4024 H         1 UNK         0.3000 
    211 H211       -4.5717  -28.6767  -49.8880 H         1 UNK         0.0600 
    212 H212       -5.4320  -28.5787  -52.8286 H         1 UNK         0.0600 
    213 H213       -5.6829  -29.9153  -51.7148 H         1 UNK         0.0600 
    214 H214       -4.0518  -29.4728  -52.1930 H         1 UNK         0.0600 
    215 H215       -5.3733  -26.4009  -48.9440 H         1 UNK         0.3000 
    216 H216       -6.9978  -25.3646  -47.8829 H         1 UNK         0.0600 
    217 H217       -9.2849  -26.1987  -47.6923 H         1 UNK         0.0600 
    218 H218       -8.1759  -27.5531  -47.5511 H         1 UNK         0.0600 
    219 H219       -9.0718  -27.2924  -49.0478 H         1 UNK         0.0600 
    220 H220       -5.9139  -24.3346  -50.0140 H         1 UNK         0.3000 
    221 H221       -5.9629  -22.6963  -51.5049 H         1 UNK         0.0600 
    222 H222       -8.5670  -21.8896  -50.1182 H         1 UNK         0.0600 
    223 H223       -6.9351  -21.4737  -49.5901 H         1 UNK         0.0600 
    224 H224       -7.5541  -20.8456  -51.1066 H         1 UNK         0.0600 
    225 H225       -6.5034  -24.8724  -52.8562 H         1 UNK         0.3000 
    226 H226       -8.8231  -24.3863  -54.6506 H         1 UNK         0.0600 
    227 H227       -8.4443  -26.7130  -53.8466 H         1 UNK         0.0600 
    228 H228       -8.1971  -26.5895  -55.5837 H         1 UNK         0.0600 
    229 H229       -6.8114  -26.6931  -54.5049 H         1 UNK         0.0600 
    230 H230       -8.4611  -23.0928  -56.3291 H         1 UNK         0.3000 
    231 H231       -7.6675  -22.0380  -58.0767 H         1 UNK         0.0600 
    232 H232       -7.1393  -24.3414  -58.8998 H         1 UNK         0.0600 
    233 H233       -5.4996  -24.1907  -58.2684 H         1 UNK         0.0600 
    234 H234       -6.0480  -23.1382  -59.5633 H         1 UNK         0.0600 
    235 H235       -6.1734  -21.7041  -55.2789 H         1 UNK         0.3000 
    236 H236       -4.7504  -19.3314  -55.9536 H         1 UNK         0.0600 
    237 H237       -2.5346  -20.1087  -55.0037 H         1 UNK         0.0600 
    238 H238       -3.1434  -21.7590  -54.9252 H         1 UNK         0.0600 
    239 H239       -2.9077  -20.9725  -56.4839 H         1 UNK         0.0600 
    240 H240       -4.0501  -18.3004  -53.8171 H         1 UNK         0.3000 
    241 H241       -6.0535  -18.8623  -51.8094 H         1 UNK         0.0600 
    242 H242       -2.8439  -20.8881  -50.5444 H         1 UNK         0.3800 
    243 H243       -3.0047  -20.3436  -52.1912 H         1 UNK         0.3800 
    244 H244       -5.4713  -16.5442  -52.4292 H         1 UNK         0.0800 
    245 H245       -5.4344  -16.8539  -50.7270 H         1 UNK         0.0800 
    246 H246       -3.5237  -16.9081  -49.2566 H         1 UNK         0.0800 
    247 H247       -3.6560  -15.1925  -49.5691 H         1 UNK         0.0800 
@<TRIPOS>BOND
     1    1    2 1    
     2    1  127 1    
     3    1  128 1    
     4    1  129 1    
     5    2    3 2    
     6    2    4 am   BACKBONE|DICT|INTERRES
     7    4    5 1    
     8    4  130 1    
     9    5    6 1    
    10    5   65 1    
    11    5  131 1    
    12    6    7 1    
    13    6  132 1    
    14    6  133 1    
    15    7    8 1    
    16    8    9 1    
    17    8  134 1    
    18    8  135 1    
    19    9   10 ar   
    20    9   14 ar   
    21   10   11 ar   
    22   10  136 1    
    23   11   12 ar   
    24   11  126 1    
    25   12   13 ar   
    26   12  137 1    
    27   13   14 ar   
    28   13   15 1    
    29   14  138 1    
    30   15   16 1    
    31   15  139 1    
    32   15  140 1    
    33   16   17 1    
    34   17   18 1    
    35   17  141 1    
    36   17  142 1    
    37   18   19 1    
    38   18   67 1    
    39   18  143 1    
    40   19   20 am   BACKBONE|DICT|INTERRES
    41   19  144 1    
    42   20   21 2    
    43   20   22 1    
    44   22   23 1    
    45   22   24 1    
    46   22  145 1    
    47   23  146 1    
    48   23  147 1    
    49   23  148 1    
    50   24   25 am   BACKBONE|DICT|INTERRES
    51   24  149 1    
    52   25   26 2    
    53   25   27 1    
    54   27   28 1    
    55   27   29 1    
    56   27  150 1    
    57   28  151 1    
    58   28  152 1    
    59   28  153 1    
    60   29   30 am   BACKBONE|DICT|INTERRES
    61   29  154 1    
    62   30   31 2    
    63   30   32 1    
    64   32   33 1    
    65   32   34 1    
    66   32  155 1    
    67   33  156 1    
    68   33  157 1    
    69   33  158 1    
    70   34   35 am   BACKBONE|DICT|INTERRES
    71   34  159 1    
    72   35   36 2    
    73   35   37 1    
    74   37   38 1    
    75   37   39 1    
    76   37  160 1    
    77   38  161 1    
    78   38  162 1    
    79   38  163 1    
    80   39   40 am   BACKBONE|DICT|INTERRES
    81   39  164 1    
    82   40   41 2    
    83   40   42 1    
    84   42   43 1    
    85   42   44 1    
    86   42  165 1    
    87   43  166 1    
    88   43  167 1    
    89   43  168 1    
    90   44   45 am   BACKBONE|DICT|INTERRES
    91   44  169 1    
    92   45   46 2    
    93   45   47 1    
    94   47   48 1    
    95   47   49 1    
    96   47  170 1    
    97   48  171 1    
    98   48  172 1    
    99   48  173 1    
   100   49   50 am   BACKBONE|DICT|INTERRES
   101   49  174 1    
   102   50   51 2    
   103   50   52 1    
   104   52   53 1    
   105   52   54 1    
   106   52  175 1    
   107   53  176 1    
   108   53  177 1    
   109   53  178 1    
   110   54   55 am   BACKBONE|DICT|INTERRES
   111   54  179 1    
   112   55   56 2    
   113   55   57 1    
   114   57   58 1    
   115   57   59 1    
   116   57  180 1    
   117   58  181 1    
   118   58  182 1    
   119   58  183 1    
   120   59   60 am   BACKBONE|DICT|INTERRES
   121   59  184 1    
   122   60   61 2    
   123   60   62 1    
   124   62   63 1    
   125   62   64 1    
   126   62  185 1    
   127   63  186 1    
   128   63  187 1    
   129   63  188 1    
   130   64   65 am   BACKBONE|DICT|INTERRES
   131   64  189 1    
   132   65   66 2    
   133   67   68 2    
   134   67   69 am   BACKBONE|DICT|INTERRES
   135   69   70 1    
   136   69  190 1    
   137   70   71 1    
   138   70   72 1    
   139   70  191 1    
   140   71  192 1    
   141   71  193 1    
   142   71  194 1    
   143   72   73 2    
   144   72   74 am   BACKBONE|DICT|INTERRES
   145   74   75 1    
   146   74  195 1    
   147   75   76 1    
   148   75   77 1    
   149   75  196 1    
   150   76  197 1    
   151   76  198 1    
   152   76  199 1    
   153   77   78 2    
   154   77   79 am   BACKBONE|DICT|INTERRES
   155   79   80 1    
   156   79  200 1    
   157   80   81 1    
   158   80   82 1    
   159   80  201 1    
   160   81  202 1    
   161   81  203 1    
   162   81  204 1    
   163   82   83 2    
   164   82   84 am   BACKBONE|DICT|INTERRES
   165   84   85 1    
   166   84  205 1    
   167   85   86 1    
   168   85   87 1    
   169   85  206 1    
   170   86  207 1    
   171   86  208 1    
   172   86  209 1    
   173   87   88 2    
   174   87   89 am   BACKBONE|DICT|INTERRES
   175   89   90 1    
   176   89  210 1    
   177   90   91 1    
   178   90   92 1    
   179   90  211 1    
   180   91  212 1    
   181   91  213 1    
   182   91  214 1    
   183   92   93 2    
   184   92   94 am   BACKBONE|DICT|INTERRES
   185   94   95 1    
   186   94  215 1    
   187   95   96 1    
   188   95   97 1    
   189   95  216 1    
   190   96  217 1    
   191   96  218 1    
   192   96  219 1    
   193   97   98 2    
   194   97   99 am   BACKBONE|DICT|INTERRES
   195   99  100 1    
   196   99  220 1    
   197  100  101 1    
   198  100  102 1    
   199  100  221 1    
   200  101  222 1    
   201  101  223 1    
   202  101  224 1    
   203  102  103 2    
   204  102  104 am   BACKBONE|DICT|INTERRES
   205  104  105 1    
   206  104  225 1    
   207  105  106 1    
   208  105  107 1    
   209  105  226 1    
   210  106  227 1    
   211  106  228 1    
   212  106  229 1    
   213  107  108 2    
   214  107  109 am   BACKBONE|DICT|INTERRES
   215  109  110 1    
   216  109  230 1    
   217  110  111 1    
   218  110  112 1    
   219  110  231 1    
   220  111  232 1    
   221  111  233 1    
   222  111  234 1    
   223  112  113 2    
   224  112  114 am   BACKBONE|DICT|INTERRES
   225  114  115 1    
   226  114  235 1    
   227  115  116 1    
   228  115  117 1    
   229  115  236 1    
   230  116  237 1    
   231  116  238 1    
   232  116  239 1    
   233  117  118 2    
   234  117  119 am   BACKBONE|DICT|INTERRES
   235  119  120 1    
   236  119  240 1    
   237  120  121 1    
   238  120  124 1    
   239  120  241 1    
   240  121  122 am   BACKBONE|DICT|INTERRES
   241  121  123 2    
   242  122  242 1    
   243  122  243 1    
   244  124  125 1    
   245  124  244 1    
   246  124  245 1    
   247  125  126 1    
   248  126  246 1    
   249  126  247 1    
@<TRIPOS>SUBSTRUCTURE
     1 UNK         1 GROUP             0       ****    0 ROOT    
