@<TRIPOS>MOLECULE
3R540
247   249    1
SMALL
USER_CHARGES


@<TRIPOS>ATOM
      1 CA         -3.7385  -17.6840  -46.5068 C.3       0 UNK        -0.1800 
      2 C          -3.3873  -16.7488  -47.6553 C.2       0 UNK         0.5000 
      3 O          -4.2688  -16.0632  -48.1716 O.2       0 UNK        -0.5000 
      4 N          -2.1141  -16.7283  -48.0723 N.am      1 UNK        -0.5000 
      5 CA         -1.5971  -15.8037  -49.0885 C.3       1 UNK         0.1400 
      6 C6         -0.3705  -16.3812  -49.8376 C.3       23 UNK        -0.0398 
      7 S7          1.0949  -16.6787  -48.7893 S.3       23 UNK        -0.2404 
      8 C8          2.3385  -17.1390  -50.0361 C.3       23 UNK        -0.0205 
      9 C9          2.3677  -18.6375  -50.3072 C.ar      23 UNK        -0.0193 
     10 C10         1.4865  -19.2088  -51.2308 C.ar      23 UNK        -0.1150 
     11 C11         1.5362  -20.5796  -51.5100 C.ar      23 UNK        -0.0193 
     12 C12         2.5044  -21.3683  -50.8800 C.ar      23 UNK        -0.1150 
     13 C13         3.4056  -20.8097  -49.9699 C.ar      23 UNK        -0.0193 
     14 C14         3.3180  -19.4458  -49.6738 C.ar      23 UNK        -0.1150 
     15 C15         4.5275  -21.6574  -49.3770 C.3       23 UNK        -0.0205 
     16 S16         3.9433  -23.1287  -48.4721 S.3       23 UNK        -0.2404 
     17 C17         3.2316  -22.3618  -46.9796 C.3       23 UNK        -0.0398 
     18 CA          1.8774  -22.9623  -46.5306 C.3       11 UNK         0.1400 
     19 N           1.4468  -22.3715  -45.2604 N.am      11 UNK        -0.5000 
     20 C           0.3939  -22.7644  -44.5309 C.2       10 UNK         0.5000 
     21 O          -0.3138  -23.7288  -44.8161 O.2       10 UNK        -0.5000 
     22 CA          0.0399  -21.9014  -43.3042 C.3       10 UNK         0.1400 
     23 CB          0.9298  -22.2554  -42.1038 C.3       10 UNK        -0.1800 
     24 N           0.1354  -20.4673  -43.5818 N.am      10 UNK        -0.5000 
     25 C          -0.6235  -19.8183  -44.4762 C.2       9 UNK         0.5000 
     26 O          -1.5297  -20.3475  -45.1168 O.2       9 UNK        -0.5000 
     27 CA         -0.2723  -18.3457  -44.7486 C.3       9 UNK         0.1400 
     28 CB         -0.9174  -17.4192  -43.7082 C.3       9 UNK        -0.1800 
     29 N           1.1727  -18.1224  -44.8015 N.am      9 UNK        -0.5000 
     30 C           1.9703  -18.6347  -45.7505 C.2       8 UNK         0.5000 
     31 O           1.5595  -19.3296  -46.6778 O.2       8 UNK        -0.5000 
     32 CA          3.4812  -18.3794  -45.6031 C.3       8 UNK         0.1400 
     33 CB          3.8497  -16.9677  -46.0819 C.3       8 UNK        -0.1800 
     34 N           3.9384  -18.5576  -44.2251 N.am      8 UNK        -0.5000 
     35 C           3.9331  -19.7260  -43.5670 C.2       7 UNK         0.5000 
     36 O           3.6011  -20.7949  -44.0776 O.2       7 UNK        -0.5000 
     37 CA          4.3056  -19.6789  -42.0717 C.3       7 UNK         0.1400 
     38 CB          5.8225  -19.8317  -41.8877 C.3       7 UNK        -0.1800 
     39 N           3.8538  -18.4517  -41.4062 N.am      7 UNK        -0.5000 
     40 C           2.5716  -18.0794  -41.3020 C.2       6 UNK         0.5000 
     41 O           1.6290  -18.7589  -41.7216 O.2       6 UNK        -0.5000 
     42 CA          2.3010  -16.6978  -40.6889 C.3       6 UNK         0.1400 
     43 CB          2.8040  -15.5842  -41.6324 C.3       6 UNK        -0.1800 
     44 N           0.8619  -16.5751  -40.4901 N.am      6 UNK        -0.5000 
     45 C           0.2204  -15.6041  -39.8370 C.2       5 UNK         0.5000 
     46 O           0.7813  -14.6941  -39.2214 O.2       5 UNK        -0.5000 
     47 CA         -1.3186  -15.6728  -39.8729 C.3       5 UNK         0.1400 
     48 CB         -1.8690  -16.2337  -38.5526 C.3       5 UNK        -0.1800 
     49 N          -1.9225  -14.3645  -40.1296 N.am      5 UNK        -0.5000 
     50 C          -1.7528  -13.6522  -41.2510 C.2       4 UNK         0.5000 
     51 O          -1.0957  -14.0407  -42.2209 O.2       4 UNK        -0.5000 
     52 CA         -2.4317  -12.2750  -41.2911 C.3       4 UNK         0.1400 
     53 CB         -1.7183  -11.2702  -40.3697 C.3       4 UNK        -0.1800 
     54 N          -2.4020  -11.7741  -42.6607 N.am      4 UNK        -0.5000 
     55 C          -3.3628  -11.0649  -43.2612 C.2       3 UNK         0.5000 
     56 O          -4.3956  -10.7049  -42.6939 O.2       3 UNK        -0.5000 
     57 CA         -3.1398  -10.6741  -44.7385 C.3       3 UNK         0.1400 
     58 CB         -2.9215   -9.1575  -44.8654 C.3       3 UNK        -0.1800 
     59 N          -2.0131  -11.3611  -45.3796 N.am      3 UNK        -0.5000 
     60 C          -2.0216  -12.6377  -45.7821 C.2       2 UNK         0.5000 
     61 O          -2.9825  -13.3961  -45.6314 O.2       2 UNK        -0.5000 
     62 CA         -0.7234  -13.1440  -46.4358 C.3       2 UNK         0.1400 
     63 CB          0.3417  -13.4548  -45.3715 C.3       2 UNK        -0.1800 
     64 N          -0.9698  -14.3580  -47.2063 N.am      2 UNK        -0.5000 
     65 C          -1.3181  -14.4030  -48.4988 C.2       1 UNK         0.5000 
     66 O          -1.4276  -13.4068  -49.2151 O.2       1 UNK        -0.5000 
     67 C           0.7819  -22.8464  -47.6140 C.2       11 UNK         0.5000 
     68 O           0.4466  -23.8440  -48.2531 O.2       11 UNK        -0.5000 
     69 N           0.2071  -21.6471  -47.7626 N.am      12 UNK        -0.5000 
     70 CA         -0.8844  -21.3624  -48.6913 C.3       12 UNK         0.1400 
     71 CB         -1.1250  -19.8511  -48.7076 C.3       12 UNK        -0.1800 
     72 C          -2.1778  -22.1278  -48.3532 C.2       12 UNK         0.5000 
     73 O          -2.8414  -22.6284  -49.2611 O.2       12 UNK        -0.5000 
     74 N          -2.4953  -22.2388  -47.0557 N.am      13 UNK        -0.5000 
     75 CA         -3.6135  -23.0287  -46.5407 C.3       13 UNK         0.1400 
     76 CB         -3.8268  -22.7189  -45.0521 C.3       13 UNK        -0.1800 
     77 C          -3.4234  -24.5397  -46.7679 C.2       13 UNK         0.5000 
     78 O          -4.3762  -25.2146  -47.1564 O.2       13 UNK        -0.5000 
     79 N          -2.1942  -25.0412  -46.5755 N.am      14 UNK        -0.5000 
     80 CA         -1.8038  -26.4254  -46.8637 C.3       14 UNK         0.1400 
     81 CB         -0.4010  -26.6967  -46.2998 C.3       14 UNK        -0.1800 
     82 C          -1.8689  -26.7712  -48.3652 C.2       14 UNK         0.5000 
     83 O          -2.1526  -27.9181  -48.7116 O.2       14 UNK        -0.5000 
     84 N          -1.6606  -25.7656  -49.2264 N.am      15 UNK        -0.5000 
     85 CA         -1.8479  -25.8349  -50.6775 C.3       15 UNK         0.1400 
     86 CB         -1.0031  -24.7376  -51.3436 C.3       15 UNK        -0.1800 
     87 C          -3.3302  -25.7559  -51.1150 C.2       15 UNK         0.5000 
     88 O          -3.6035  -25.7901  -52.3158 O.2       15 UNK        -0.5000 
     89 N          -4.2574  -25.6611  -50.1499 N.am      16 UNK        -0.5000 
     90 CA         -5.7205  -25.7285  -50.2378 C.3       16 UNK         0.1400 
     91 CB         -6.1859  -27.0547  -50.8688 C.3       16 UNK        -0.1800 
     92 C          -6.3981  -24.5235  -50.9120 C.2       16 UNK         0.5000 
     93 O          -7.3924  -24.0253  -50.3825 O.2       16 UNK        -0.5000 
     94 N          -5.8762  -24.0827  -52.0624 N.am      17 UNK        -0.5000 
     95 CA         -6.4316  -22.9799  -52.8499 C.3       17 UNK         0.1400 
     96 CB         -5.8214  -23.0019  -54.2599 C.3       17 UNK        -0.1800 
     97 C          -6.2403  -21.6033  -52.1861 C.2       17 UNK         0.5000 
     98 O          -7.1146  -20.7458  -52.3201 O.2       17 UNK        -0.5000 
     99 N          -5.1127  -21.4363  -51.4776 N.am      18 UNK        -0.5000 
    100 CA        -4.6581  -20.2212  -50.7945 C.3       18 UNK         0.1400 
    101 CB        -5.4952  -19.9845  -49.5199 C.3       18 UNK        -0.1800 
    102 C         -4.5670  -18.9851  -51.7192 C.2       18 UNK         0.5000 
    103 O         -4.4476  -19.1455  -52.9364 O.2       18 UNK        -0.5000 
    104 N         -4.5966  -17.7786  -51.1280 N.am      19 UNK        -0.5000 
    105 CA        -4.5527  -16.4698  -51.7920 C.3       19 UNK         0.1400 
    106 CB        -5.9256  -16.1765  -52.4390 C.3       19 UNK        -0.1800 
    107 C         -3.3577  -16.3488  -52.7667 C.2       19 UNK         0.5000 
    108 O         -2.2496  -16.7578  -52.4181 O.2       19 UNK        -0.5000 
    109 N         -3.6047  -15.8284  -53.9741 N.am      20 UNK        -0.5000 
    110 CA        -2.6976  -15.9439  -55.1175 C.3       20 UNK         0.1400 
    111 CB        -2.8325  -14.6812  -55.9831 C.3       20 UNK        -0.1800 
    112 C         -2.9978  -17.2054  -55.9558 C.2       20 UNK         0.5000 
    113 O         -2.1813  -17.5779  -56.7996 O.2       20 UNK        -0.5000 
    114 N         -4.1613  -17.8343  -55.7249 N.am      21 UNK        -0.5000 
    115 CA        -4.6879  -18.9768  -56.4734 C.3       21 UNK         0.1400 
    116 CB        -6.1239  -19.2692  -56.0103 C.3       21 UNK        -0.1800 
    117 C         -3.8165  -20.2411  -56.3808 C.2       21 UNK         0.5000 
    118 O         -3.7611  -20.9999  -57.3496 O.2       21 UNK        -0.5000 
    119 N         -3.1326  -20.4328  -55.2449 N.am      22 UNK        -0.5000 
    120 CA        -2.1304  -21.4930  -55.0639 C.3       22 UNK         0.1400 
    121 C         -0.7924  -21.2825  -55.8374 C.2       22 UNK         0.5000 
    122 N         -0.5432  -20.1354  -56.4600 N.am      22 UNK        -0.7600 
    123 O          0.0323  -22.1908  -55.8885 O.2       22 UNK        -0.5000 
    124 C124       -1.9145  -21.8587  -53.5725 C.3       23 UNK        -0.0398 
    125 S125       -1.0998  -20.5884  -52.5406 S.3       23 UNK        -0.2404 
    126 C126        0.6119  -21.2272  -52.5363 C.3       23 UNK        -0.0205 
    127 H127       -4.7005  -18.1633  -46.6869 H         1 UNK         0.0600 
    128 H128       -2.9965  -18.4681  -46.3744 H         1 UNK         0.0600 
    129 H129       -3.8108  -17.1195  -45.5774 H         1 UNK         0.0600 
    130 H130       -1.4258  -17.3347  -47.6523 H         1 UNK         0.3000 
    131 H131       -2.3737  -15.6636  -49.8405 H         1 UNK         0.0600 
    132 H132       -0.0897  -15.7134  -50.6538 H         1 UNK         0.0800 
    133 H133       -0.6509  -17.3218  -50.3118 H         1 UNK         0.0800 
    134 H134        2.1609  -16.5940  -50.9642 H         1 UNK         0.0800 
    135 H135        3.3166  -16.8102  -49.6824 H         1 UNK         0.0800 
    136 H136        0.7669  -18.5830  -51.7388 H         1 UNK         0.1150 
    137 H137        2.5767  -22.4209  -51.1156 H         1 UNK         0.1150 
    138 H138        4.0137  -19.0021  -48.9760 H         1 UNK         0.1150 
    139 H139        5.1728  -21.9882  -50.1918 H         1 UNK         0.0800 
    140 H140        5.1583  -21.0617  -48.7152 H         1 UNK         0.0800 
    141 H141        3.1333  -21.2892  -47.1396 H         1 UNK         0.0800 
    142 H142        3.9645  -22.4760  -46.1800 H         1 UNK         0.0800 
    143 H143        2.0328  -24.0272  -46.3455 H         1 UNK         0.0600 
    144 H144        2.0066  -21.5972  -44.9175 H         1 UNK         0.3000 
    145 H145       -0.9954  -22.1180  -43.0332 H         1 UNK         0.0600 
    146 H146        0.6564  -21.6717  -41.2245 H         1 UNK         0.0600 
    147 H147        0.8275  -23.3090  -41.8415 H         1 UNK         0.0600 
    148 H148        1.9831  -22.0709  -42.3127 H         1 UNK         0.0600 
    149 H149        0.8303  -19.9412  -43.0607 H         1 UNK         0.3000 
    150 H150       -0.6774  -18.0840  -45.7269 H         1 UNK         0.0600 
    151 H151       -2.0038  -17.5126  -43.7263 H         1 UNK         0.0600 
    152 H152       -0.6793  -16.3739  -43.9014 H         1 UNK         0.0600 
    153 H153       -0.5901  -17.6568  -42.6977 H         1 UNK         0.0600 
    154 H154        1.5865  -17.6143  -44.0355 H         1 UNK         0.3000 
    155 H155        4.0069  -19.1009  -46.2318 H         1 UNK         0.0600 
    156 H156        3.5761  -16.8289  -47.1276 H         1 UNK         0.0600 
    157 H157        4.9228  -16.7924  -46.0053 H         1 UNK         0.0600 
    158 H158        3.3402  -16.1958  -45.5036 H         1 UNK         0.0600 
    159 H159        4.2347  -17.7295  -43.7309 H         1 UNK         0.3000 
    160 H160        3.8157  -20.5236  -41.5831 H         1 UNK         0.0600 
    161 H161        6.1818  -20.7484  -42.3574 H         1 UNK         0.0600 
    162 H162        6.0886  -19.8837  -40.8318 H         1 UNK         0.0600 
    163 H163        6.3692  -18.9990  -42.3321 H         1 UNK         0.0600 
    164 H164        4.5741  -17.8469  -41.0382 H         1 UNK         0.3000 
    165 H165        2.8065  -16.6351  -39.7235 H         1 UNK         0.0600 
    166 H166        2.6433  -14.5946  -41.2052 H         1 UNK         0.0600 
    167 H167        3.8739  -15.6742  -41.8226 H         1 UNK         0.0600 
    168 H168        2.2932  -15.6137  -42.5959 H         1 UNK         0.0600 
    169 H169        0.3421  -17.3300  -40.9206 H         1 UNK         0.3000 
    170 H170       -1.6234  -16.3402  -40.6819 H         1 UNK         0.0600 
    171 H171       -1.4552  -17.2216  -38.3459 H         1 UNK         0.0600 
    172 H172       -1.6202  -15.5904  -37.7075 H         1 UNK         0.0600 
    173 H173       -2.9536  -16.3379  -38.5886 H         1 UNK         0.0600 
    174 H174       -2.4503  -13.9607  -39.3698 H         1 UNK         0.3000 
    175 H175       -3.4655  -12.4029  -40.9630 H         1 UNK         0.0600 
    176 H176       -1.7343  -11.6041  -39.3317 H         1 UNK         0.0600 
    177 H177       -0.6743  -11.1362  -40.6559 H         1 UNK         0.0600 
    178 H178       -2.2020  -10.2937  -40.4024 H         1 UNK         0.0600 
    179 H179       -1.6228  -12.1103  -43.2107 H         1 UNK         0.3000 
    180 H180       -4.0525  -10.9313  -45.2802 H         1 UNK         0.0600 
    181 H181       -2.0181   -8.8366  -44.3453 H         1 UNK         0.0600 
    182 H182       -3.7591   -8.6032  -44.4397 H         1 UNK         0.0600 
    183 H183       -2.8342   -8.8567  -45.9096 H         1 UNK         0.0600 
    184 H184       -1.1810  -10.8073  -45.5252 H         1 UNK         0.3000 
    185 H185       -0.3383  -12.3637  -47.0958 H         1 UNK         0.0600 
    186 H186        1.2691  -13.7970  -45.8317 H         1 UNK         0.0600 
    187 H187        0.5812  -12.5710  -44.7794 H         1 UNK         0.0600 
    188 H188        0.0081  -14.2297  -44.6818 H         1 UNK         0.0600 
    189 H189       -0.9657  -15.2210  -46.6859 H         1 UNK         0.3000 
    190 H190        0.5757  -20.8579  -47.2376 H         1 UNK         0.3000 
    191 H191       -0.5624  -21.6717  -49.6870 H         1 UNK         0.0600 
    192 H192       -1.4729  -19.4993  -47.7393 H         1 UNK         0.0600 
    193 H193       -1.8592  -19.5639  -49.4578 H         1 UNK         0.0600 
    194 H194       -0.2032  -19.3218  -48.9397 H         1 UNK         0.0600 
    195 H195       -1.9364  -21.7400  -46.3686 H         1 UNK         0.3000 
    196 H196       -4.5125  -22.7239  -47.0808 H         1 UNK         0.0600 
    197 H197       -2.9498  -22.9745  -44.4574 H         1 UNK         0.0600 
    198 H198       -4.6711  -23.2819  -44.6527 H         1 UNK         0.0600 
    199 H199       -4.0383  -21.6607  -44.8972 H         1 UNK         0.0600 
    200 H200       -1.4712  -24.4369  -46.1944 H         1 UNK         0.3000 
    201 H201       -2.5068  -27.0821  -46.3472 H         1 UNK         0.0600 
    202 H202       -0.3708  -26.5308  -45.2228 H         1 UNK         0.0600 
    203 H203        0.3503  -26.0541  -46.7581 H         1 UNK         0.0600 
    204 H204       -0.1016  -27.7302  -46.4778 H         1 UNK         0.0600 
    205 H205       -1.3669  -24.8701  -48.8528 H         1 UNK         0.3000 
    206 H206       -1.4683  -26.7984  -51.0230 H         1 UNK         0.0600 
    207 H207       -1.3798  -23.7408  -51.1172 H         1 UNK         0.0600 
    208 H208       -1.0047  -24.8549  -52.4274 H         1 UNK         0.0600 
    209 H209        0.0359  -24.7833  -51.0164 H         1 UNK         0.0600 
    210 H210       -3.9167  -25.5662  -49.2006 H         1 UNK         0.3000 
    211 H211       -6.0675  -25.7318  -49.2037 H         1 UNK         0.0600 
    212 H212       -5.8945  -27.1346  -51.9164 H         1 UNK         0.0600 
    213 H213       -7.2721  -27.1440  -50.8270 H         1 UNK         0.0600 
    214 H214       -5.7689  -27.9106  -50.3379 H         1 UNK         0.0600 
    215 H215       -5.0607  -24.5680  -52.4264 H         1 UNK         0.3000 
    216 H216       -7.5065  -23.1447  -52.9508 H         1 UNK         0.0600 
    217 H217       -6.2026  -22.1788  -54.8653 H         1 UNK         0.0600 
    218 H218       -6.0674  -23.9278  -54.7798 H         1 UNK         0.0600 
    219 H219       -4.7366  -22.9142  -54.2333 H         1 UNK         0.0600 
    220 H220       -4.4843  -22.2235  -51.4085 H         1 UNK         0.3000 
    221 H221       -3.6354  -20.4312  -50.4913 H         1 UNK         0.0600 
    222 H222       -6.5144  -19.6786  -49.7586 H         1 UNK         0.0600 
    223 H223       -5.5518  -20.8920  -48.9181 H         1 UNK         0.0600 
    224 H224       -5.0541  -19.2152  -48.8874 H         1 UNK         0.0600 
    225 H225       -4.6648  -17.7396  -50.1215 H         1 UNK         0.3000 
    226 H226       -4.3924  -15.7258  -51.0115 H         1 UNK         0.0600 
    227 H227       -6.7257  -16.2678  -51.7041 H         1 UNK         0.0600 
    228 H228       -5.9757  -15.1604  -52.8319 H         1 UNK         0.0600 
    229 H229       -6.1512  -16.8673  -53.2524 H         1 UNK         0.0600 
    230 H230       -4.5294  -15.4722  -54.1685 H         1 UNK         0.3000 
    231 H231       -1.6630  -16.0126  -54.7745 H         1 UNK         0.0600 
    232 H232       -2.1524  -14.7168  -56.8351 H         1 UNK         0.0600 
    233 H233       -2.5893  -13.7850  -55.4120 H         1 UNK         0.0600 
    234 H234       -3.8440  -14.5662  -56.3748 H         1 UNK         0.0600 
    235 H235       -4.7222  -17.5251  -54.9462 H         1 UNK         0.3000 
    236 H236       -4.7250  -18.6861  -57.5252 H         1 UNK         0.0600 
    237 H237       -6.5560  -20.0951  -56.5767 H         1 UNK         0.0600 
    238 H238       -6.1611  -19.5422  -54.9551 H         1 UNK         0.0600 
    239 H239       -6.7702  -18.4036  -56.1554 H         1 UNK         0.0600 
    240 H240       -3.2824  -19.7984  -54.4661 H         1 UNK         0.3000 
    241 H241       -2.5594  -22.3889  -55.5172 H         1 UNK         0.0600 
    242 H242        0.3243  -20.0266  -56.9602 H         1 UNK         0.3800 
    243 H243       -1.2133  -19.3754  -56.4557 H         1 UNK         0.3800 
    244 H244       -2.8755  -22.0774  -53.1098 H         1 UNK         0.0800 
    245 H245       -1.3543  -22.7909  -53.5097 H         1 UNK         0.0800 
    246 H246        1.0489  -21.0857  -53.5247 H         1 UNK         0.0800 
    247 H247        0.5797  -22.3032  -52.3609 H         1 UNK         0.0800 
@<TRIPOS>BOND
     1    1    2 1    
     2    1  127 1    
     3    1  128 1    
     4    1  129 1    
     5    2    3 2    
     6    2    4 am   BACKBONE|DICT|INTERRES
     7    4    5 1    
     8    4  130 1    
     9    5    6 1    
    10    5   65 1    
    11    5  131 1    
    12    6    7 1    
    13    6  132 1    
    14    6  133 1    
    15    7    8 1    
    16    8    9 1    
    17    8  134 1    
    18    8  135 1    
    19    9   10 ar   
    20    9   14 ar   
    21   10   11 ar   
    22   10  136 1    
    23   11   12 ar   
    24   11  126 1    
    25   12   13 ar   
    26   12  137 1    
    27   13   14 ar   
    28   13   15 1    
    29   14  138 1    
    30   15   16 1    
    31   15  139 1    
    32   15  140 1    
    33   16   17 1    
    34   17   18 1    
    35   17  141 1    
    36   17  142 1    
    37   18   19 1    
    38   18   67 1    
    39   18  143 1    
    40   19   20 am   BACKBONE|DICT|INTERRES
    41   19  144 1    
    42   20   21 2    
    43   20   22 1    
    44   22   23 1    
    45   22   24 1    
    46   22  145 1    
    47   23  146 1    
    48   23  147 1    
    49   23  148 1    
    50   24   25 am   BACKBONE|DICT|INTERRES
    51   24  149 1    
    52   25   26 2    
    53   25   27 1    
    54   27   28 1    
    55   27   29 1    
    56   27  150 1    
    57   28  151 1    
    58   28  152 1    
    59   28  153 1    
    60   29   30 am   BACKBONE|DICT|INTERRES
    61   29  154 1    
    62   30   31 2    
    63   30   32 1    
    64   32   33 1    
    65   32   34 1    
    66   32  155 1    
    67   33  156 1    
    68   33  157 1    
    69   33  158 1    
    70   34   35 am   BACKBONE|DICT|INTERRES
    71   34  159 1    
    72   35   36 2    
    73   35   37 1    
    74   37   38 1    
    75   37   39 1    
    76   37  160 1    
    77   38  161 1    
    78   38  162 1    
    79   38  163 1    
    80   39   40 am   BACKBONE|DICT|INTERRES
    81   39  164 1    
    82   40   41 2    
    83   40   42 1    
    84   42   43 1    
    85   42   44 1    
    86   42  165 1    
    87   43  166 1    
    88   43  167 1    
    89   43  168 1    
    90   44   45 am   BACKBONE|DICT|INTERRES
    91   44  169 1    
    92   45   46 2    
    93   45   47 1    
    94   47   48 1    
    95   47   49 1    
    96   47  170 1    
    97   48  171 1    
    98   48  172 1    
    99   48  173 1    
   100   49   50 am   BACKBONE|DICT|INTERRES
   101   49  174 1    
   102   50   51 2    
   103   50   52 1    
   104   52   53 1    
   105   52   54 1    
   106   52  175 1    
   107   53  176 1    
   108   53  177 1    
   109   53  178 1    
   110   54   55 am   BACKBONE|DICT|INTERRES
   111   54  179 1    
   112   55   56 2    
   113   55   57 1    
   114   57   58 1    
   115   57   59 1    
   116   57  180 1    
   117   58  181 1    
   118   58  182 1    
   119   58  183 1    
   120   59   60 am   BACKBONE|DICT|INTERRES
   121   59  184 1    
   122   60   61 2    
   123   60   62 1    
   124   62   63 1    
   125   62   64 1    
   126   62  185 1    
   127   63  186 1    
   128   63  187 1    
   129   63  188 1    
   130   64   65 am   BACKBONE|DICT|INTERRES
   131   64  189 1    
   132   65   66 2    
   133   67   68 2    
   134   67   69 am   BACKBONE|DICT|INTERRES
   135   69   70 1    
   136   69  190 1    
   137   70   71 1    
   138   70   72 1    
   139   70  191 1    
   140   71  192 1    
   141   71  193 1    
   142   71  194 1    
   143   72   73 2    
   144   72   74 am   BACKBONE|DICT|INTERRES
   145   74   75 1    
   146   74  195 1    
   147   75   76 1    
   148   75   77 1    
   149   75  196 1    
   150   76  197 1    
   151   76  198 1    
   152   76  199 1    
   153   77   78 2    
   154   77   79 am   BACKBONE|DICT|INTERRES
   155   79   80 1    
   156   79  200 1    
   157   80   81 1    
   158   80   82 1    
   159   80  201 1    
   160   81  202 1    
   161   81  203 1    
   162   81  204 1    
   163   82   83 2    
   164   82   84 am   BACKBONE|DICT|INTERRES
   165   84   85 1    
   166   84  205 1    
   167   85   86 1    
   168   85   87 1    
   169   85  206 1    
   170   86  207 1    
   171   86  208 1    
   172   86  209 1    
   173   87   88 2    
   174   87   89 am   BACKBONE|DICT|INTERRES
   175   89   90 1    
   176   89  210 1    
   177   90   91 1    
   178   90   92 1    
   179   90  211 1    
   180   91  212 1    
   181   91  213 1    
   182   91  214 1    
   183   92   93 2    
   184   92   94 am   BACKBONE|DICT|INTERRES
   185   94   95 1    
   186   94  215 1    
   187   95   96 1    
   188   95   97 1    
   189   95  216 1    
   190   96  217 1    
   191   96  218 1    
   192   96  219 1    
   193   97   98 2    
   194   97   99 am   BACKBONE|DICT|INTERRES
   195   99  100 1    
   196   99  220 1    
   197  100  101 1    
   198  100  102 1    
   199  100  221 1    
   200  101  222 1    
   201  101  223 1    
   202  101  224 1    
   203  102  103 2    
   204  102  104 am   BACKBONE|DICT|INTERRES
   205  104  105 1    
   206  104  225 1    
   207  105  106 1    
   208  105  107 1    
   209  105  226 1    
   210  106  227 1    
   211  106  228 1    
   212  106  229 1    
   213  107  108 2    
   214  107  109 am   BACKBONE|DICT|INTERRES
   215  109  110 1    
   216  109  230 1    
   217  110  111 1    
   218  110  112 1    
   219  110  231 1    
   220  111  232 1    
   221  111  233 1    
   222  111  234 1    
   223  112  113 2    
   224  112  114 am   BACKBONE|DICT|INTERRES
   225  114  115 1    
   226  114  235 1    
   227  115  116 1    
   228  115  117 1    
   229  115  236 1    
   230  116  237 1    
   231  116  238 1    
   232  116  239 1    
   233  117  118 2    
   234  117  119 am   BACKBONE|DICT|INTERRES
   235  119  120 1    
   236  119  240 1    
   237  120  121 1    
   238  120  124 1    
   239  120  241 1    
   240  121  122 am   BACKBONE|DICT|INTERRES
   241  121  123 2    
   242  122  242 1    
   243  122  243 1    
   244  124  125 1    
   245  124  244 1    
   246  124  245 1    
   247  125  126 1    
   248  126  246 1    
   249  126  247 1    
@<TRIPOS>SUBSTRUCTURE
     1 UNK         1 GROUP             0       ****    0 ROOT    
