@<TRIPOS>MOLECULE
3R540
247   249    1
SMALL
USER_CHARGES


@<TRIPOS>ATOM
      1 CA         -2.7656  -13.7155  -48.5660 C.3       0 UNK        -0.1800 
      2 C          -1.4746  -13.0540  -49.0274 C.2       0 UNK         0.5000 
      3 O          -1.4702  -11.8581  -49.3209 O.2       0 UNK        -0.5000 
      4 N          -0.3839  -13.8262  -49.0922 N.am      1 UNK        -0.5000 
      5 CA          0.9682  -13.3548  -49.4068 C.3       1 UNK         0.1400 
      6 C6          1.9407  -14.5368  -49.6415 C.3       23 UNK        -0.0398 
      7 S7          1.6676  -15.3505  -51.2493 S.3       23 UNK        -0.2404 
      8 C8          1.0916  -17.0130  -50.7629 C.3       23 UNK        -0.0205 
      9 C9         -0.3830  -17.0810  -50.3756 C.ar      23 UNK        -0.0193 
     10 C10        -1.3535  -16.3761  -51.0970 C.ar      23 UNK        -0.1150 
     11 C11        -2.7087  -16.5003  -50.7823 C.ar      23 UNK        -0.0193 
     12 C12        -3.0959  -17.3473  -49.7405 C.ar      23 UNK        -0.1150 
     13 C13        -2.1418  -18.0674  -49.0160 C.ar      23 UNK        -0.0193 
     14 C14        -0.7869  -17.9228  -49.3337 C.ar      23 UNK        -0.1150 
     15 C15        -2.5864  -19.0685  -47.9592 C.3       23 UNK        -0.0205 
     16 S16        -1.9001  -18.7319  -46.3040 S.3       23 UNK        -0.2404 
     17 C17        -2.5271  -20.2036  -45.4267 C.3       23 UNK        -0.0398 
     18 CA         -1.5988  -21.4262  -45.6358 C.3       11 UNK         0.1400 
     19 N          -0.4982  -21.4838  -44.6715 N.am      11 UNK        -0.5000 
     20 C           0.5508  -22.3114  -44.7824 C.2       10 UNK         0.5000 
     21 O           0.7247  -23.0702  -45.7351 O.2       10 UNK        -0.5000 
     22 CA          1.5358  -22.3429  -43.6039 C.3       10 UNK         0.1400 
     23 CB          2.5235  -21.1689  -43.6775 C.3       10 UNK        -0.1800 
     24 N           0.8333  -22.3319  -42.3206 N.am      10 UNK        -0.5000 
     25 C           0.1222  -23.3652  -41.8468 C.2       9 UNK         0.5000 
     26 O           0.0164  -24.4449  -42.4294 O.2       9 UNK        -0.5000 
     27 CA         -0.6257  -23.1429  -40.5187 C.3       9 UNK         0.1400 
     28 CB          0.3085  -23.3886  -39.3247 C.3       9 UNK        -0.1800 
     29 N          -1.2100  -21.8048  -40.4098 N.am      9 UNK        -0.5000 
     30 C          -2.2091  -21.3496  -41.1789 C.2       8 UNK         0.5000 
     31 O          -2.7586  -22.0182  -42.0518 O.2       8 UNK        -0.5000 
     32 CA         -2.6303  -19.8826  -40.9795 C.3       8 UNK         0.1400 
     33 CB         -3.6570  -19.7636  -39.8439 C.3       8 UNK        -0.1800 
     34 N          -1.5110  -18.9744  -40.7189 N.am      8 UNK        -0.5000 
     35 C          -0.4475  -18.8056  -41.5147 C.2       7 UNK         0.5000 
     36 O          -0.2711  -19.4348  -42.5600 O.2       7 UNK        -0.5000 
     37 CA          0.5604  -17.7302  -41.0723 C.3       7 UNK         0.1400 
     38 CB          1.9614  -17.9668  -41.6592 C.3       7 UNK        -0.1800 
     39 N           0.0785  -16.4086  -41.4709 N.am      7 UNK        -0.5000 
     40 C          -0.8560  -15.7097  -40.8085 C.2       6 UNK         0.5000 
     41 O          -1.3492  -16.0962  -39.7466 O.2       6 UNK        -0.5000 
     42 CA         -1.3592  -14.3900  -41.4377 C.3       6 UNK         0.1400 
     43 CB         -1.6587  -13.3086  -40.3779 C.3       6 UNK        -0.1800 
     44 N          -0.5083  -13.8566  -42.5086 N.am      6 UNK        -0.5000 
     45 C           0.7458  -13.3981  -42.4002 C.2       5 UNK         0.5000 
     46 O           1.3815  -13.3422  -41.3450 O.2       5 UNK        -0.5000 
     47 CA          1.4056  -12.9339  -43.7114 C.3       5 UNK         0.1400 
     48 CB          1.5538  -11.4050  -43.7321 C.3       5 UNK        -0.1800 
     49 N           2.7142  -13.5564  -43.9118 N.am      5 UNK        -0.5000 
     50 C           2.9215  -14.8769  -44.0212 C.2       4 UNK         0.5000 
     51 O           2.0109  -15.7074  -44.0156 O.2       4 UNK        -0.5000 
     52 CA          4.3934  -15.3270  -44.1616 C.3       4 UNK         0.1400 
     53 CB          4.5448  -16.8201  -44.5246 C.3       4 UNK        -0.1800 
     54 N           5.1523  -14.4774  -45.0883 N.am      4 UNK        -0.5000 
     55 C           4.8987  -14.3000  -46.3923 C.2       3 UNK         0.5000 
     56 O           4.0307  -14.9059  -47.0239 O.2       3 UNK        -0.5000 
     57 CA          5.7412  -13.2367  -47.1158 C.3       3 UNK         0.1400 
     58 CB          6.6060  -13.8682  -48.2180 C.3       3 UNK        -0.1800 
     59 N           4.8449  -12.2502  -47.7101 N.am      3 UNK        -0.5000 
     60 C           4.1853  -11.3130  -47.0153 C.2       2 UNK         0.5000 
     61 O           4.4068  -11.0568  -45.8312 O.2       2 UNK        -0.5000 
     62 CA          3.0630  -10.5704  -47.7652 C.3       2 UNK         0.1400 
     63 CB          3.6280   -9.3729  -48.5440 C.3       2 UNK        -0.1800 
     64 N           2.3388  -11.4535  -48.6847 N.am      2 UNK        -0.5000 
     65 C           1.5139  -12.4358  -48.2929 C.2       1 UNK         0.5000 
     66 O           1.2121  -12.6467  -47.1164 O.2       1 UNK        -0.5000 
     67 C          -2.3957  -22.7452  -45.6904 C.2       11 UNK         0.5000 
     68 O          -2.7492  -23.1751  -46.7875 O.2       11 UNK        -0.5000 
     69 N          -2.6292  -23.3895  -44.5382 N.am      12 UNK        -0.5000 
     70 CA         -3.2606  -24.7077  -44.4466 C.3       12 UNK         0.1400 
     71 CB         -3.5498  -25.0550  -42.9788 C.3       12 UNK        -0.1800 
     72 C          -2.4214  -25.8093  -45.1181 C.2       12 UNK         0.5000 
     73 O          -2.9706  -26.6029  -45.8826 O.2       12 UNK        -0.5000 
     74 N          -1.1024  -25.8039  -44.8733 N.am      13 UNK        -0.5000 
     75 CA         -0.1356  -26.7049  -45.5091 C.3       13 UNK         0.1400 
     76 CB          1.2397  -26.5310  -44.8477 C.3       13 UNK        -0.1800 
     77 C          -0.0390  -26.5085  -47.0359 C.2       13 UNK         0.5000 
     78 O           0.1208  -27.4860  -47.7672 O.2       13 UNK        -0.5000 
     79 N          -0.1833  -25.2564  -47.4892 N.am      14 UNK        -0.5000 
     80 CA         -0.2475  -24.8640  -48.8982 C.3       14 UNK         0.1400 
     81 CB          0.1497  -23.3826  -49.0145 C.3       14 UNK        -0.1800 
     82 C          -1.6265  -25.1038  -49.5502 C.2       14 UNK         0.5000 
     83 O          -1.7830  -24.7903  -50.7310 O.2       14 UNK        -0.5000 
     84 N          -2.6084  -25.6094  -48.7869 N.am      15 UNK        -0.5000 
     85 CA         -3.9992  -25.8622  -49.1821 C.3       15 UNK         0.1400 
     86 CB         -4.0727  -27.0096  -50.2110 C.3       15 UNK        -0.1800 
     87 C          -4.7198  -24.5817  -49.6531 C.2       15 UNK         0.5000 
     88 O          -5.3873  -24.5881  -50.6891 O.2       15 UNK        -0.5000 
     89 N          -4.5255  -23.4919  -48.8956 N.am      16 UNK        -0.5000 
     90 CA         -4.9886  -22.1273  -49.1637 C.3       16 UNK         0.1400 
     91 CB         -6.5273  -22.0410  -49.0876 C.3       16 UNK        -0.1800 
     92 C          -4.4142  -21.5776  -50.4838 C.2       16 UNK         0.5000 
     93 O          -5.1507  -20.9930  -51.2772 O.2       16 UNK        -0.5000 
     94 N          -3.1138  -21.8275  -50.7041 N.am      17 UNK        -0.5000 
     95 CA         -2.3641  -21.5758  -51.9399 C.3       17 UNK         0.1400 
     96 CB         -2.2044  -20.0639  -52.2030 C.3       17 UNK        -0.1800 
     97 C          -2.9788  -22.3294  -53.1336 C.2       17 UNK         0.5000 
     98 O          -3.3356  -21.7105  -54.1339 O.2       17 UNK        -0.5000 
     99 N          -3.1307  -23.6523  -52.9760 N.am      18 UNK        -0.5000 
    100 CA        -3.7350  -24.5910  -53.9274 C.3       18 UNK         0.1400 
    101 CB        -2.7755  -24.8379  -55.1095 C.3       18 UNK        -0.1800 
    102 C         -5.1500  -24.1610  -54.3741 C.2       18 UNK         0.5000 
    103 O         -5.4244  -24.0758  -55.5726 O.2       18 UNK        -0.5000 
    104 N         -6.0075  -23.8784  -53.3831 N.am      19 UNK        -0.5000 
    105 CA        -7.3761  -23.3722  -53.5096 C.3       19 UNK         0.1400 
    106 CB        -8.2951  -24.4237  -54.1667 C.3       19 UNK        -0.1800 
    107 C         -7.4363  -21.9902  -54.1955 C.2       19 UNK         0.5000 
    108 O         -8.1229  -21.8228  -55.2056 O.2       19 UNK        -0.5000 
    109 N         -6.7224  -21.0223  -53.6053 N.am      20 UNK        -0.5000 
    110 CA        -6.6706  -19.6024  -53.9614 C.3       20 UNK         0.1400 
    111 CB        -8.0473  -18.9327  -53.7674 C.3       20 UNK        -0.1800 
    112 C         -6.0439  -19.3164  -55.3408 C.2       20 UNK         0.5000 
    113 O         -6.4400  -18.3621  -56.0130 O.2       20 UNK        -0.5000 
    114 N         -5.0285  -20.1013  -55.7188 N.am      21 UNK        -0.5000 
    115 CA        -4.1445  -19.8459  -56.8545 C.3       21 UNK         0.1400 
    116 CB        -3.7549  -21.1873  -57.5009 C.3       21 UNK        -0.1800 
    117 C         -2.9295  -19.0345  -56.3598 C.2       21 UNK         0.5000 
    118 O         -1.7880  -19.4898  -56.4489 O.2       21 UNK        -0.5000 
    119 N         -3.2183  -17.8525  -55.8019 N.am      22 UNK        -0.5000 
    120 CA        -2.2724  -16.9600  -55.1113 C.3       22 UNK         0.1400 
    121 C         -1.1898  -16.3012  -56.0179 C.2       22 UNK         0.5000 
    122 N         -1.3114  -16.3349  -57.3394 N.am      22 UNK        -0.7600 
    123 O         -0.2197  -15.7464  -55.5099 O.2       22 UNK        -0.5000 
    124 C124       -3.0250  -15.8720  -54.3015 C.3       23 UNK        -0.0398 
    125 S125       -4.2317  -16.5526  -53.1066 S.3       23 UNK        -0.2404 
    126 C126       -3.7573  -15.7182  -51.5588 C.3       23 UNK        -0.0205 
    127 H127       -3.5193  -13.6599  -49.3509 H         1 UNK         0.0600 
    128 H128       -3.1531  -13.2056  -47.6842 H         1 UNK         0.0600 
    129 H129       -2.6138  -14.7643  -48.3098 H         1 UNK         0.0600 
    130 H130       -0.4571  -14.8033  -48.8487 H         1 UNK         0.3000 
    131 H131        0.9076  -12.7635  -50.3232 H         1 UNK         0.0600 
    132 H132        2.9775  -14.1954  -49.6461 H         1 UNK         0.0800 
    133 H133        1.8732  -15.2617  -48.8281 H         1 UNK         0.0800 
    134 H134        1.2436  -17.6851  -51.6083 H         1 UNK         0.0800 
    135 H135        1.7241  -17.3900  -49.9577 H         1 UNK         0.0800 
    136 H136       -1.0534  -15.7350  -51.9124 H         1 UNK         0.1150 
    137 H137       -4.1458  -17.4623  -49.5105 H         1 UNK         0.1150 
    138 H138       -0.0508  -18.4982  -48.7897 H         1 UNK         0.1150 
    139 H139       -3.6749  -19.0890  -47.8885 H         1 UNK         0.0800 
    140 H140       -2.2800  -20.0627  -48.2860 H         1 UNK         0.0800 
    141 H141       -3.5420  -20.3950  -45.7815 H         1 UNK         0.0800 
    142 H142       -2.6265  -19.9704  -44.3657 H         1 UNK         0.0800 
    143 H143       -1.1355  -21.3359  -46.6200 H         1 UNK         0.0600 
    144 H144       -0.5415  -20.8518  -43.8768 H         1 UNK         0.3000 
    145 H145        2.1099  -23.2697  -43.6696 H         1 UNK         0.0600 
    146 H146        3.2141  -21.1769  -42.8343 H         1 UNK         0.0600 
    147 H147        3.1209  -21.2238  -44.5883 H         1 UNK         0.0600 
    148 H148        2.0112  -20.2075  -43.6853 H         1 UNK         0.0600 
    149 H149        0.8102  -21.4539  -41.8231 H         1 UNK         0.3000 
    150 H150       -1.4382  -23.8710  -40.4701 H         1 UNK         0.0600 
    151 H151       -0.2309  -23.3139  -38.3803 H         1 UNK         0.0600 
    152 H152        0.7447  -24.3874  -39.3702 H         1 UNK         0.0600 
    153 H153        1.1304  -22.6720  -39.3003 H         1 UNK         0.0600 
    154 H154       -0.8121  -21.1843  -39.7203 H         1 UNK         0.3000 
    155 H155       -3.1077  -19.5522  -41.9040 H         1 UNK         0.0600 
    156 H156       -4.5144  -20.4142  -40.0222 H         1 UNK         0.0600 
    157 H157       -4.0357  -18.7447  -39.7600 H         1 UNK         0.0600 
    158 H158       -3.2271  -20.0424  -38.8810 H         1 UNK         0.0600 
    159 H159       -1.6017  -18.3626  -39.9175 H         1 UNK         0.3000 
    160 H160        0.6512  -17.7698  -39.9846 H         1 UNK         0.0600 
    161 H161        1.9438  -17.9832  -42.7486 H         1 UNK         0.0600 
    162 H162        2.3675  -18.9220  -41.3249 H         1 UNK         0.0600 
    163 H163        2.6578  -17.1881  -41.3476 H         1 UNK         0.0600 
    164 H164        0.4354  -16.0480  -42.3473 H         1 UNK         0.3000 
    165 H165       -2.3069  -14.6417  -41.9156 H         1 UNK         0.0600 
    166 H166       -2.0245  -12.3922  -40.8410 H         1 UNK         0.0600 
    167 H167       -2.4267  -13.6451  -39.6805 H         1 UNK         0.0600 
    168 H168       -0.7749  -13.0590  -39.7904 H         1 UNK         0.0600 
    169 H169       -0.9239  -13.8764  -43.4298 H         1 UNK         0.3000 
    170 H170        0.7692  -13.2269  -44.5486 H         1 UNK         0.0600 
    171 H171        0.5938  -10.9169  -43.5593 H         1 UNK         0.0600 
    172 H172        2.2447  -11.0557  -42.9638 H         1 UNK         0.0600 
    173 H173        1.9201  -11.0597  -44.6979 H         1 UNK         0.0600 
    174 H174        3.5081  -12.9337  -43.9435 H         1 UNK         0.3000 
    175 H175        4.8453  -15.1859  -43.1787 H         1 UNK         0.0600 
    176 H176        5.5937  -17.0964  -44.6306 H         1 UNK         0.0600 
    177 H177        4.1214  -17.4551  -43.7464 H         1 UNK         0.0600 
    178 H178        4.0364  -17.0670  -45.4570 H         1 UNK         0.0600 
    179 H179        5.8833  -13.9222  -44.6652 H         1 UNK         0.3000 
    180 H180        6.4012  -12.7384  -46.4023 H         1 UNK         0.0600 
    181 H181        5.9988  -14.3739  -48.9701 H         1 UNK         0.0600 
    182 H182        7.2910  -14.6063  -47.7989 H         1 UNK         0.0600 
    183 H183        7.2095  -13.1153  -48.7252 H         1 UNK         0.0600 
    184 H184        4.5764  -12.4113  -48.6686 H         1 UNK         0.3000 
    185 H185        2.3572  -10.1912  -47.0231 H         1 UNK         0.0600 
    186 H186        4.3308   -9.6872  -49.3166 H         1 UNK         0.0600 
    187 H187        2.8317   -8.8044  -49.0249 H         1 UNK         0.0600 
    188 H188        4.1567   -8.6899  -47.8777 H         1 UNK         0.0600 
    189 H189        2.5218  -11.3250  -49.6697 H         1 UNK         0.3000 
    190 H190       -2.3864  -22.9411  -43.6589 H         1 UNK         0.3000 
    191 H191       -4.2162  -24.6544  -44.9726 H         1 UNK         0.0600 
    192 H192       -4.2220  -24.3256  -42.5270 H         1 UNK         0.0600 
    193 H193       -4.0280  -26.0317  -42.8954 H         1 UNK         0.0600 
    194 H194       -2.6381  -25.0841  -42.3825 H         1 UNK         0.0600 
    195 H195       -0.7309  -25.1410  -44.2004 H         1 UNK         0.3000 
    196 H196       -0.4702  -27.7288  -45.3301 H         1 UNK         0.0600 
    197 H197        1.9709  -27.2146  -45.2808 H         1 UNK         0.0600 
    198 H198        1.1921  -26.7398  -43.7788 H         1 UNK         0.0600 
    199 H199        1.6226  -25.5181  -44.9731 H         1 UNK         0.0600 
    200 H200       -0.2338  -24.5033  -46.8107 H         1 UNK         0.3000 
    201 H201        0.4805  -25.4544  -49.4580 H         1 UNK         0.0600 
    202 H202        1.1301  -23.2014  -48.5736 H         1 UNK         0.0600 
    203 H203       -0.5673  -22.7337  -48.5120 H         1 UNK         0.0600 
    204 H204        0.2036  -23.0687  -50.0575 H         1 UNK         0.0600 
    205 H205       -2.3971  -25.8095  -47.8168 H         1 UNK         0.3000 
    206 H206       -4.5202  -26.1915  -48.2822 H         1 UNK         0.0600 
    207 H207       -3.6013  -26.7406  -51.1564 H         1 UNK         0.0600 
    208 H208       -3.5802  -27.9061  -49.8347 H         1 UNK         0.0600 
    209 H209       -5.1083  -27.2751  -50.4266 H         1 UNK         0.0600 
    210 H210       -3.9107  -23.5772  -48.0866 H         1 UNK         0.3000 
    211 H211       -4.5836  -21.5024  -48.3670 H         1 UNK         0.0600 
    212 H212       -7.0076  -22.6008  -49.8905 H         1 UNK         0.0600 
    213 H213       -6.8635  -21.0065  -49.1660 H         1 UNK         0.0600 
    214 H214       -6.8967  -22.4310  -48.1393 H         1 UNK         0.0600 
    215 H215       -2.6249  -22.3707  -50.0082 H         1 UNK         0.3000 
    216 H216       -1.3663  -21.9915  -51.7940 H         1 UNK         0.0600 
    217 H217       -3.1633  -19.5606  -52.3298 H         1 UNK         0.0600 
    218 H218       -1.6781  -19.5826  -51.3827 H         1 UNK         0.0600 
    219 H219       -1.6216  -19.8826  -53.1069 H         1 UNK         0.0600 
    220 H220       -2.7881  -24.0678  -52.1118 H         1 UNK         0.3000 
    221 H221       -3.8545  -25.5357  -53.3953 H         1 UNK         0.0600 
    222 H222       -2.6119  -23.9322  -55.6937 H         1 UNK         0.0600 
    223 H223       -1.8050  -25.1904  -54.7604 H         1 UNK         0.0600 
    224 H224       -3.1728  -25.5969  -55.7843 H         1 UNK         0.0600 
    225 H225       -5.6839  -24.0094  -52.4260 H         1 UNK         0.3000 
    226 H226       -7.7352  -23.2222  -52.4902 H         1 UNK         0.0600 
    227 H227       -8.2542  -25.3718  -53.6304 H         1 UNK         0.0600 
    228 H228       -9.3335  -24.0908  -54.1584 H         1 UNK         0.0600 
    229 H229       -8.0230  -24.6137  -55.2052 H         1 UNK         0.0600 
    230 H230       -6.1607  -21.2576  -52.7886 H         1 UNK         0.3000 
    231 H231       -5.9917  -19.1498  -53.2375 H         1 UNK         0.0600 
    232 H232       -8.4454  -19.1317  -52.7724 H         1 UNK         0.0600 
    233 H233       -7.9727  -17.8498  -53.8734 H         1 UNK         0.0600 
    234 H234       -8.7760  -19.2831  -54.4987 H         1 UNK         0.0600 
    235 H235       -4.6919  -20.8125  -55.0725 H         1 UNK         0.3000 
    236 H236       -4.6592  -19.2499  -57.6108 H         1 UNK         0.0600 
    237 H237       -3.1250  -21.0300  -58.3771 H         1 UNK         0.0600 
    238 H238       -3.2040  -21.8250  -56.8097 H         1 UNK         0.0600 
    239 H239       -4.6378  -21.7375  -57.8268 H         1 UNK         0.0600 
    240 H240       -4.1885  -17.5706  -55.7668 H         1 UNK         0.3000 
    241 H241       -1.7243  -17.5778  -54.3971 H         1 UNK         0.0600 
    242 H242       -0.6027  -15.9075  -57.9148 H         1 UNK         0.3800 
    243 H243       -2.0977  -16.7941  -57.7701 H         1 UNK         0.3800 
    244 H244       -3.5671  -15.2099  -54.9787 H         1 UNK         0.0800 
    245 H245       -2.3142  -15.2354  -53.7738 H         1 UNK         0.0800 
    246 H246       -3.4019  -14.7075  -51.7639 H         1 UNK         0.0800 
    247 H247       -4.6527  -15.5982  -50.9471 H         1 UNK         0.0800 
@<TRIPOS>BOND
     1    1    2 1    
     2    1  127 1    
     3    1  128 1    
     4    1  129 1    
     5    2    3 2    
     6    2    4 am   BACKBONE|DICT|INTERRES
     7    4    5 1    
     8    4  130 1    
     9    5    6 1    
    10    5   65 1    
    11    5  131 1    
    12    6    7 1    
    13    6  132 1    
    14    6  133 1    
    15    7    8 1    
    16    8    9 1    
    17    8  134 1    
    18    8  135 1    
    19    9   10 ar   
    20    9   14 ar   
    21   10   11 ar   
    22   10  136 1    
    23   11   12 ar   
    24   11  126 1    
    25   12   13 ar   
    26   12  137 1    
    27   13   14 ar   
    28   13   15 1    
    29   14  138 1    
    30   15   16 1    
    31   15  139 1    
    32   15  140 1    
    33   16   17 1    
    34   17   18 1    
    35   17  141 1    
    36   17  142 1    
    37   18   19 1    
    38   18   67 1    
    39   18  143 1    
    40   19   20 am   BACKBONE|DICT|INTERRES
    41   19  144 1    
    42   20   21 2    
    43   20   22 1    
    44   22   23 1    
    45   22   24 1    
    46   22  145 1    
    47   23  146 1    
    48   23  147 1    
    49   23  148 1    
    50   24   25 am   BACKBONE|DICT|INTERRES
    51   24  149 1    
    52   25   26 2    
    53   25   27 1    
    54   27   28 1    
    55   27   29 1    
    56   27  150 1    
    57   28  151 1    
    58   28  152 1    
    59   28  153 1    
    60   29   30 am   BACKBONE|DICT|INTERRES
    61   29  154 1    
    62   30   31 2    
    63   30   32 1    
    64   32   33 1    
    65   32   34 1    
    66   32  155 1    
    67   33  156 1    
    68   33  157 1    
    69   33  158 1    
    70   34   35 am   BACKBONE|DICT|INTERRES
    71   34  159 1    
    72   35   36 2    
    73   35   37 1    
    74   37   38 1    
    75   37   39 1    
    76   37  160 1    
    77   38  161 1    
    78   38  162 1    
    79   38  163 1    
    80   39   40 am   BACKBONE|DICT|INTERRES
    81   39  164 1    
    82   40   41 2    
    83   40   42 1    
    84   42   43 1    
    85   42   44 1    
    86   42  165 1    
    87   43  166 1    
    88   43  167 1    
    89   43  168 1    
    90   44   45 am   BACKBONE|DICT|INTERRES
    91   44  169 1    
    92   45   46 2    
    93   45   47 1    
    94   47   48 1    
    95   47   49 1    
    96   47  170 1    
    97   48  171 1    
    98   48  172 1    
    99   48  173 1    
   100   49   50 am   BACKBONE|DICT|INTERRES
   101   49  174 1    
   102   50   51 2    
   103   50   52 1    
   104   52   53 1    
   105   52   54 1    
   106   52  175 1    
   107   53  176 1    
   108   53  177 1    
   109   53  178 1    
   110   54   55 am   BACKBONE|DICT|INTERRES
   111   54  179 1    
   112   55   56 2    
   113   55   57 1    
   114   57   58 1    
   115   57   59 1    
   116   57  180 1    
   117   58  181 1    
   118   58  182 1    
   119   58  183 1    
   120   59   60 am   BACKBONE|DICT|INTERRES
   121   59  184 1    
   122   60   61 2    
   123   60   62 1    
   124   62   63 1    
   125   62   64 1    
   126   62  185 1    
   127   63  186 1    
   128   63  187 1    
   129   63  188 1    
   130   64   65 am   BACKBONE|DICT|INTERRES
   131   64  189 1    
   132   65   66 2    
   133   67   68 2    
   134   67   69 am   BACKBONE|DICT|INTERRES
   135   69   70 1    
   136   69  190 1    
   137   70   71 1    
   138   70   72 1    
   139   70  191 1    
   140   71  192 1    
   141   71  193 1    
   142   71  194 1    
   143   72   73 2    
   144   72   74 am   BACKBONE|DICT|INTERRES
   145   74   75 1    
   146   74  195 1    
   147   75   76 1    
   148   75   77 1    
   149   75  196 1    
   150   76  197 1    
   151   76  198 1    
   152   76  199 1    
   153   77   78 2    
   154   77   79 am   BACKBONE|DICT|INTERRES
   155   79   80 1    
   156   79  200 1    
   157   80   81 1    
   158   80   82 1    
   159   80  201 1    
   160   81  202 1    
   161   81  203 1    
   162   81  204 1    
   163   82   83 2    
   164   82   84 am   BACKBONE|DICT|INTERRES
   165   84   85 1    
   166   84  205 1    
   167   85   86 1    
   168   85   87 1    
   169   85  206 1    
   170   86  207 1    
   171   86  208 1    
   172   86  209 1    
   173   87   88 2    
   174   87   89 am   BACKBONE|DICT|INTERRES
   175   89   90 1    
   176   89  210 1    
   177   90   91 1    
   178   90   92 1    
   179   90  211 1    
   180   91  212 1    
   181   91  213 1    
   182   91  214 1    
   183   92   93 2    
   184   92   94 am   BACKBONE|DICT|INTERRES
   185   94   95 1    
   186   94  215 1    
   187   95   96 1    
   188   95   97 1    
   189   95  216 1    
   190   96  217 1    
   191   96  218 1    
   192   96  219 1    
   193   97   98 2    
   194   97   99 am   BACKBONE|DICT|INTERRES
   195   99  100 1    
   196   99  220 1    
   197  100  101 1    
   198  100  102 1    
   199  100  221 1    
   200  101  222 1    
   201  101  223 1    
   202  101  224 1    
   203  102  103 2    
   204  102  104 am   BACKBONE|DICT|INTERRES
   205  104  105 1    
   206  104  225 1    
   207  105  106 1    
   208  105  107 1    
   209  105  226 1    
   210  106  227 1    
   211  106  228 1    
   212  106  229 1    
   213  107  108 2    
   214  107  109 am   BACKBONE|DICT|INTERRES
   215  109  110 1    
   216  109  230 1    
   217  110  111 1    
   218  110  112 1    
   219  110  231 1    
   220  111  232 1    
   221  111  233 1    
   222  111  234 1    
   223  112  113 2    
   224  112  114 am   BACKBONE|DICT|INTERRES
   225  114  115 1    
   226  114  235 1    
   227  115  116 1    
   228  115  117 1    
   229  115  236 1    
   230  116  237 1    
   231  116  238 1    
   232  116  239 1    
   233  117  118 2    
   234  117  119 am   BACKBONE|DICT|INTERRES
   235  119  120 1    
   236  119  240 1    
   237  120  121 1    
   238  120  124 1    
   239  120  241 1    
   240  121  122 am   BACKBONE|DICT|INTERRES
   241  121  123 2    
   242  122  242 1    
   243  122  243 1    
   244  124  125 1    
   245  124  244 1    
   246  124  245 1    
   247  125  126 1    
   248  126  246 1    
   249  126  247 1    
@<TRIPOS>SUBSTRUCTURE
     1 UNK         1 GROUP             0       ****    0 ROOT    
