@<TRIPOS>MOLECULE
3R540
247   249    1
SMALL
USER_CHARGES


@<TRIPOS>ATOM
      1 CA          3.0136  -16.0255  -51.4602 C.3       0 UNK        -0.1800 
      2 C           3.2180  -14.9868  -50.3688 C.2       0 UNK         0.5000 
      3 O           4.3186  -14.4512  -50.2326 O.2       0 UNK        -0.5000 
      4 N           2.1678  -14.7032  -49.5896 N.am      1 UNK        -0.5000 
      5 CA          2.1588  -13.6712  -48.5518 C.3       1 UNK         0.1400 
      6 C6          1.0125  -13.8895  -47.5292 C.3       23 UNK        -0.0398 
      7 S7         -0.6793  -13.7424  -48.2167 S.3       23 UNK        -0.2404 
      8 C8         -1.3668  -15.4027  -47.9305 C.3       23 UNK        -0.0205 
      9 C9         -0.7704  -16.4337  -48.8752 C.ar      23 UNK        -0.0193 
     10 C10        -1.2596  -16.5512  -50.1787 C.ar      23 UNK        -0.1150 
     11 C11        -0.7142  -17.4878  -51.0609 C.ar      23 UNK        -0.0193 
     12 C12         0.3288  -18.3117  -50.6284 C.ar      23 UNK        -0.1150 
     13 C13         0.8324  -18.1989  -49.3284 C.ar      23 UNK        -0.0193 
     14 C14         0.2711  -17.2646  -48.4535 C.ar      23 UNK        -0.1150 
     15 C15         1.9972  -19.0677  -48.8706 C.3       23 UNK        -0.0205 
     16 S16         1.6371  -20.8463  -49.0040 S.3       23 UNK        -0.2404 
     17 C17         0.1204  -20.9683  -48.0017 C.3       23 UNK        -0.0398 
     18 CA          0.0463  -22.2906  -47.2093 C.3       11 UNK         0.1400 
     19 N           1.1640  -22.4267  -46.2734 N.am      11 UNK        -0.5000 
     20 C           1.5843  -23.5726  -45.7271 C.2       10 UNK         0.5000 
     21 O           0.9378  -24.6198  -45.7904 O.2       10 UNK        -0.5000 
     22 CA          2.9662  -23.5541  -45.0335 C.3       10 UNK         0.1400 
     23 CB          3.7333  -22.2273  -45.1964 C.3       10 UNK        -0.1800 
     24 N           2.8305  -23.8434  -43.6119 N.am      10 UNK        -0.5000 
     25 C           2.7061  -25.0686  -43.0859 C.2       9 UNK         0.5000 
     26 O           2.8854  -26.1080  -43.7222 O.2       9 UNK        -0.5000 
     27 CA          2.3121  -25.1639  -41.5963 C.3       9 UNK         0.1400 
     28 CB          3.5230  -25.5801  -40.7467 C.3       9 UNK        -0.1800 
     29 N           1.7376  -23.9434  -41.0219 N.am      9 UNK        -0.5000 
     30 C           0.6486  -23.2890  -41.4502 C.2       8 UNK         0.5000 
     31 O          -0.0132  -23.6299  -42.4301 O.2       8 UNK        -0.5000 
     32 CA          0.2460  -22.0187  -40.6723 C.3       8 UNK         0.1400 
     33 CB          0.8177  -21.9680  -39.2382 C.3       8 UNK        -0.1800 
     34 N           0.5780  -20.7745  -41.3770 N.am      8 UNK        -0.5000 
     35 C           1.7605  -20.4160  -41.9021 C.2       7 UNK         0.5000 
     36 O           2.7352  -21.1658  -41.9864 O.2       7 UNK        -0.5000 
     37 CA          1.8721  -18.9473  -42.3652 C.3       7 UNK         0.1400 
     38 CB          3.0982  -18.6690  -43.2610 C.3       7 UNK        -0.1800 
     39 N           0.6490  -18.4172  -42.9780 N.am      7 UNK        -0.5000 
     40 C           0.0766  -18.8210  -44.1216 C.2       6 UNK         0.5000 
     41 O           0.4641  -19.7922  -44.7707 O.2       6 UNK        -0.5000 
     42 CA         -1.1286  -18.0023  -44.6365 C.3       6 UNK         0.1400 
     43 CB         -2.3980  -18.8612  -44.7122 C.3       6 UNK        -0.1800 
     44 N          -1.4326  -16.8074  -43.8424 N.am      6 UNK        -0.5000 
     45 C          -0.7514  -15.6557  -43.8765 C.2       5 UNK         0.5000 
     46 O           0.2499  -15.4688  -44.5702 O.2       5 UNK        -0.5000 
     47 CA         -1.2553  -14.5560  -42.9229 C.3       5 UNK         0.1400 
     48 CB         -0.6613  -14.7570  -41.5194 C.3       5 UNK        -0.1800 
     49 N          -0.9183  -13.2101  -43.3840 N.am      5 UNK        -0.5000 
     50 C          -1.4513  -12.6049  -44.4525 C.2       4 UNK         0.5000 
     51 O          -2.3288  -13.1125  -45.1543 O.2       4 UNK        -0.5000 
     52 CA         -0.9469  -11.1836  -44.7659 C.3       4 UNK         0.1400 
     53 CB          0.5067  -10.9257  -44.3156 C.3       4 UNK        -0.1800 
     54 N          -1.0488  -10.9185  -46.1980 N.am      4 UNK        -0.5000 
     55 C          -1.4963   -9.7843  -46.7476 C.2       3 UNK         0.5000 
     56 O          -1.9609   -8.8428  -46.1010 O.2       3 UNK        -0.5000 
     57 CA         -1.3354   -9.6826  -48.2799 C.3       3 UNK         0.1400 
     58 CB         -1.8569   -8.3520  -48.8616 C.3       3 UNK        -0.1800 
     59 N           0.0538   -9.9214  -48.6943 N.am      3 UNK        -0.5000 
     60 C           1.1527   -9.2584  -48.2971 C.2       2 UNK         0.5000 
     61 O           1.1306   -8.2655  -47.5678 O.2       2 UNK        -0.5000 
     62 CA          2.5059   -9.8394  -48.7649 C.3       2 UNK         0.1400 
     63 CB          3.7142   -9.1040  -48.1566 C.3       2 UNK        -0.1800 
     64 N           2.6068  -11.2622  -48.4295 N.am      2 UNK        -0.5000 
     65 C           2.1077  -12.2576  -49.1713 C.2       1 UNK         0.5000 
     66 O           1.5604  -12.0741  -50.2623 O.2       1 UNK        -0.5000 
     67 C          -1.3486  -22.4627  -46.5793 C.2       11 UNK         0.5000 
     68 O          -2.3089  -22.6240  -47.3348 O.2       11 UNK        -0.5000 
     69 N          -1.4600  -22.4302  -45.2439 N.am      12 UNK        -0.5000 
     70 CA         -2.7135  -22.7032  -44.5383 C.3       12 UNK         0.1400 
     71 CB         -2.6969  -22.0732  -43.1319 C.3       12 UNK        -0.1800 
     72 C          -2.9674  -24.2189  -44.4851 C.2       12 UNK         0.5000 
     73 O          -4.0308  -24.6741  -44.9045 O.2       12 UNK        -0.5000 
     74 N          -1.9647  -24.9731  -44.0140 N.am      13 UNK        -0.5000 
     75 CA         -1.9848  -26.4330  -43.9146 C.3       13 UNK         0.1400 
     76 CB         -0.7944  -26.9027  -43.0684 C.3       13 UNK        -0.1800 
     77 C          -1.9806  -27.1259  -45.2881 C.2       13 UNK         0.5000 
     78 O          -2.6847  -28.1205  -45.4656 O.2       13 UNK        -0.5000 
     79 N          -1.2210  -26.5722  -46.2448 N.am      14 UNK        -0.5000 
     80 CA         -1.1997  -27.0203  -47.6410 C.3       14 UNK         0.1400 
     81 CB          0.0678  -26.4821  -48.3228 C.3       14 UNK        -0.1800 
     82 C          -2.4552  -26.5981  -48.4330 C.2       14 UNK         0.5000 
     83 O          -2.6731  -27.1108  -49.5305 O.2       14 UNK        -0.5000 
     84 N          -3.2360  -25.6601  -47.8751 N.am      15 UNK        -0.5000 
     85 CA         -4.4689  -25.0646  -48.4015 C.3       15 UNK         0.1400 
     86 CB         -5.5679  -26.1299  -48.5885 C.3       15 UNK        -0.1800 
     87 C          -4.2726  -24.1986  -49.6623 C.2       15 UNK         0.5000 
     88 O          -5.2596  -23.8084  -50.2836 O.2       15 UNK        -0.5000 
     89 N          -3.0205  -23.8631  -49.9988 N.am      16 UNK        -0.5000 
     90 CA         -2.6448  -23.0143  -51.1297 C.3       16 UNK         0.1400 
     91 CB         -1.1164  -23.0258  -51.2789 C.3       16 UNK        -0.1800 
     92 C          -3.1698  -21.5725  -51.0057 C.2       16 UNK         0.5000 
     93 O          -3.5356  -20.9722  -52.0173 O.2       16 UNK        -0.5000 
     94 N          -3.2343  -21.0558  -49.7704 N.am      17 UNK        -0.5000 
     95 CA         -3.8004  -19.7397  -49.4732 C.3       17 UNK         0.1400 
     96 CB         -3.3285  -19.2750  -48.0881 C.3       17 UNK        -0.1800 
     97 C          -5.3378  -19.7464  -49.5508 C.2       17 UNK         0.5000 
     98 O          -5.9256  -18.7728  -50.0202 O.2       17 UNK        -0.5000 
     99 N          -5.9564  -20.8528  -49.1130 N.am      18 UNK        -0.5000 
    100 CA        -7.4052  -21.0649  -49.1334 C.3       18 UNK         0.1400 
    101 CB        -7.7606  -22.2468  -48.2177 C.3       18 UNK        -0.1800 
    102 C         -7.9413  -21.2917  -50.5583 C.2       18 UNK         0.5000 
    103 O         -8.9841  -20.7420  -50.9139 O.2       18 UNK        -0.5000 
    104 N         -7.1989  -22.0713  -51.3556 N.am      19 UNK        -0.5000 
    105 CA        -7.4675  -22.3330  -52.7707 C.3       19 UNK         0.1400 
    106 CB        -6.6488  -23.5580  -53.2082 C.3       19 UNK        -0.1800 
    107 C         -7.1507  -21.1327  -53.6844 C.2       19 UNK         0.5000 
    108 O         -7.5997  -21.1209  -54.8311 O.2       19 UNK        -0.5000 
    109 N         -6.3776  -20.1654  -53.1672 N.am      20 UNK        -0.5000 
    110 CA        -5.8599  -18.9750  -53.8444 C.3       20 UNK         0.1400 
    111 CB        -7.0023  -18.0176  -54.2418 C.3       20 UNK        -0.1800 
    112 C         -4.9338  -19.3473  -55.0184 C.2       20 UNK         0.5000 
    113 O         -5.0899  -18.8377  -56.1305 O.2       20 UNK        -0.5000 
    114 N         -3.9641  -20.2298  -54.7348 N.am      21 UNK        -0.5000 
    115 CA        -2.9758  -20.7607  -55.6825 C.3       21 UNK         0.1400 
    116 CB        -2.1321  -21.8267  -54.9679 C.3       21 UNK        -0.1800 
    117 C         -2.0638  -19.6873  -56.3128 C.2       21 UNK         0.5000 
    118 O         -1.4868  -19.9226  -57.3751 O.2       21 UNK        -0.5000 
    119 N         -1.9763  -18.5257  -55.6558 N.am      22 UNK        -0.5000 
    120 CA        -1.3417  -17.2985  -56.1527 C.3       22 UNK         0.1400 
    121 C         -2.0905  -16.6265  -57.3439 C.2       22 UNK         0.5000 
    122 N         -3.3406  -16.9702  -57.6367 N.am      22 UNK        -0.7600 
    123 O         -1.5207  -15.7745  -58.0201 O.2       22 UNK        -0.5000 
    124 C124       -1.1381  -16.2763  -55.0063 C.3       23 UNK        -0.0398 
    125 S125       -0.0528  -16.8891  -53.6727 S.3       23 UNK        -0.2404 
    126 C126       -1.2400  -17.5960  -52.4834 C.3       23 UNK        -0.0205 
    127 H127        3.5150  -16.9564  -51.1965 H         1 UNK         0.0600 
    128 H128        3.4226  -15.6688  -52.4053 H         1 UNK         0.0600 
    129 H129        1.9564  -16.2350  -51.6112 H         1 UNK         0.0600 
    130 H130        1.2783  -15.1516  -49.7628 H         1 UNK         0.3000 
    131 H131        3.0996  -13.7525  -48.0029 H         1 UNK         0.0600 
    132 H132        1.1320  -14.8654  -47.0596 H         1 UNK         0.0800 
    133 H133        1.1025  -13.1758  -46.7096 H         1 UNK         0.0800 
    134 H134       -1.2113  -15.6867  -46.8904 H         1 UNK         0.0800 
    135 H135       -2.4477  -15.3635  -48.0721 H         1 UNK         0.0800 
    136 H136       -2.0599  -15.9032  -50.5074 H         1 UNK         0.1150 
    137 H137        0.7614  -19.0298  -51.3108 H         1 UNK         0.1150 
    138 H138        0.6571  -17.1726  -47.4483 H         1 UNK         0.1150 
    139 H139        2.2710  -18.8412  -47.8387 H         1 UNK         0.0800 
    140 H140        2.8720  -18.8371  -49.4794 H         1 UNK         0.0800 
    141 H141       -0.7167  -20.8755  -48.6928 H         1 UNK         0.0800 
    142 H142        0.0526  -20.1159  -47.3249 H         1 UNK         0.0800 
    143 H143        0.1404  -23.1013  -47.9333 H         1 UNK         0.0600 
    144 H144        1.7044  -21.5870  -46.1194 H         1 UNK         0.3000 
    145 H145        3.5646  -24.3371  -45.5035 H         1 UNK         0.0600 
    146 H146        3.8930  -21.9862  -46.2483 H         1 UNK         0.0600 
    147 H147        4.7163  -22.2857  -44.7288 H         1 UNK         0.0600 
    148 H148        3.2009  -21.3960  -44.7362 H         1 UNK         0.0600 
    149 H149        2.6744  -23.0463  -43.0047 H         1 UNK         0.3000 
    150 H150        1.5567  -25.9467  -41.5148 H         1 UNK         0.0600 
    151 H151        4.3038  -24.8186  -40.7627 H         1 UNK         0.0600 
    152 H152        3.9617  -26.5081  -41.1161 H         1 UNK         0.0600 
    153 H153        3.2385  -25.7496  -39.7080 H         1 UNK         0.0600 
    154 H154        2.2363  -23.5508  -40.2371 H         1 UNK         0.3000 
    155 H155       -0.8410  -22.0487  -40.5883 H         1 UNK         0.0600 
    156 H156        1.9015  -21.8464  -39.2290 H         1 UNK         0.0600 
    157 H157        0.5766  -22.8760  -38.6835 H         1 UNK         0.0600 
    158 H158        0.3917  -21.1331  -38.6817 H         1 UNK         0.0600 
    159 H159       -0.1602  -20.0865  -41.4048 H         1 UNK         0.3000 
    160 H160        2.0168  -18.3734  -41.4489 H         1 UNK         0.0600 
    161 H161        3.0262  -19.1738  -44.2231 H         1 UNK         0.0600 
    162 H162        4.0217  -18.9991  -42.7839 H         1 UNK         0.0600 
    163 H163        3.2016  -17.6018  -43.4571 H         1 UNK         0.0600 
    164 H164        0.2431  -17.6151  -42.5198 H         1 UNK         0.3000 
    165 H165       -0.8786  -17.6911  -45.6514 H         1 UNK         0.0600 
    166 H166       -3.2088  -18.3188  -45.1985 H         1 UNK         0.0600 
    167 H167       -2.2261  -19.7674  -45.2911 H         1 UNK         0.0600 
    168 H168       -2.7443  -19.1563  -43.7220 H         1 UNK         0.0600 
    169 H169       -2.2339  -16.8776  -43.2314 H         1 UNK         0.3000 
    170 H170       -2.3431  -14.6271  -42.8551 H         1 UNK         0.0600 
    171 H171       -1.0332  -14.0057  -40.8224 H         1 UNK         0.0600 
    172 H172        0.4278  -14.6942  -41.5305 H         1 UNK         0.0600 
    173 H173       -0.9302  -15.7327  -41.1128 H         1 UNK         0.0600 
    174 H174       -0.1837  -12.7372  -42.8792 H         1 UNK         0.3000 
    175 H175       -1.6018  -10.5048  -44.2160 H         1 UNK         0.0600 
    176 H176        0.6037  -10.9655  -43.2303 H         1 UNK         0.0600 
    177 H177        1.1971  -11.6544  -44.7416 H         1 UNK         0.0600 
    178 H178        0.8415   -9.9349  -44.6245 H         1 UNK         0.0600 
    179 H179       -0.7792  -11.6817  -46.8040 H         1 UNK         0.3000 
    180 H180       -1.9332  -10.4879  -48.7096 H         1 UNK         0.0600 
    181 H181       -1.3207   -7.4923  -48.4588 H         1 UNK         0.0600 
    182 H182       -2.9140   -8.2147  -48.6312 H         1 UNK         0.0600 
    183 H183       -1.7560   -8.3310  -49.9466 H         1 UNK         0.0600 
    184 H184        0.1997  -10.7229  -49.2978 H         1 UNK         0.3000 
    185 H185        2.5552   -9.7134  -49.8485 H         1 UNK         0.0600 
    186 H186        3.7019   -8.0456  -48.4198 H         1 UNK         0.0600 
    187 H187        3.7230   -9.1731  -47.0681 H         1 UNK         0.0600 
    188 H188        4.6530   -9.5168  -48.5264 H         1 UNK         0.0600 
    189 H189        3.0196  -11.4744  -47.5326 H         1 UNK         0.3000 
    190 H190       -0.6272  -22.2981  -44.6862 H         1 UNK         0.3000 
    191 H191       -3.5287  -22.2367  -45.0964 H         1 UNK         0.0600 
    192 H192       -1.9671  -21.2687  -43.0512 H         1 UNK         0.0600 
    193 H193       -3.6744  -21.6544  -42.8921 H         1 UNK         0.0600 
    194 H194       -2.4686  -22.7971  -42.3498 H         1 UNK         0.0600 
    195 H195       -1.1369  -24.5050  -43.6515 H         1 UNK         0.3000 
    196 H196       -2.9030  -26.7210  -43.3987 H         1 UNK         0.0600 
    197 H197       -0.8046  -27.9861  -42.9440 H         1 UNK         0.0600 
    198 H198       -0.8196  -26.4589  -42.0731 H         1 UNK         0.0600 
    199 H199        0.1529  -26.6337  -43.5355 H         1 UNK         0.0600 
    200 H200       -0.6107  -25.7948  -46.0036 H         1 UNK         0.3000 
    201 H201       -1.1544  -28.1112  -47.6548 H         1 UNK         0.0600 
    202 H202        0.1535  -26.8576  -49.3432 H         1 UNK         0.0600 
    203 H203        0.9657  -26.7904  -47.7868 H         1 UNK         0.0600 
    204 H204        0.0659  -25.3940  -48.3741 H         1 UNK         0.0600 
    205 H205       -2.9600  -25.3123  -46.9669 H         1 UNK         0.3000 
    206 H206       -4.8127  -24.3765  -47.6281 H         1 UNK         0.0600 
    207 H207       -5.7058  -26.7160  -47.6798 H         1 UNK         0.0600 
    208 H208       -6.5272  -25.6670  -48.8226 H         1 UNK         0.0600 
    209 H209       -5.3333  -26.8176  -49.4011 H         1 UNK         0.0600 
    210 H210       -2.2762  -24.1877  -49.4010 H         1 UNK         0.3000 
    211 H211       -3.0821  -23.4452  -52.0325 H         1 UNK         0.0600 
    212 H212       -0.6196  -22.6693  -50.3772 H         1 UNK         0.0600 
    213 H213       -0.7945  -22.3872  -52.1017 H         1 UNK         0.0600 
    214 H214       -0.7497  -24.0312  -51.4864 H         1 UNK         0.0600 
    215 H215       -2.9420  -21.6263  -48.9835 H         1 UNK         0.3000 
    216 H216       -3.4311  -19.0240  -50.2114 H         1 UNK         0.0600 
    217 H217       -3.6064  -19.9871  -47.3105 H         1 UNK         0.0600 
    218 H218       -3.7695  -18.3119  -47.8278 H         1 UNK         0.0600 
    219 H219       -2.2472  -19.1462  -48.0611 H         1 UNK         0.0600 
    220 H220       -5.3912  -21.6190  -48.7804 H         1 UNK         0.3000 
    221 H221       -7.8870  -20.1701  -48.7336 H         1 UNK         0.0600 
    222 H222       -7.3048  -23.1766  -48.5587 H         1 UNK         0.0600 
    223 H223       -7.4298  -22.0669  -47.1947 H         1 UNK         0.0600 
    224 H224       -8.8394  -22.4040  -48.1871 H         1 UNK         0.0600 
    225 H225       -6.3946  -22.5529  -50.9577 H         1 UNK         0.3000 
    226 H226       -8.5278  -22.5669  -52.8850 H         1 UNK         0.0600 
    227 H227       -6.8926  -24.4321  -52.6040 H         1 UNK         0.0600 
    228 H228       -6.8511  -23.8152  -54.2487 H         1 UNK         0.0600 
    229 H229       -5.5770  -23.3763  -53.1166 H         1 UNK         0.0600 
    230 H230       -6.0488  -20.3005  -52.2215 H         1 UNK         0.3000 
    231 H231       -5.2371  -18.4563  -53.1139 H         1 UNK         0.0600 
    232 H232       -7.6468  -18.4459  -55.0098 H         1 UNK         0.0600 
    233 H233       -6.6051  -17.0813  -54.6355 H         1 UNK         0.0600 
    234 H234       -7.6242  -17.7701  -53.3814 H         1 UNK         0.0600 
    235 H235       -3.8908  -20.5697  -53.7773 H         1 UNK         0.3000 
    236 H236       -3.5241  -21.2410  -56.4953 H         1 UNK         0.0600 
    237 H237       -1.5608  -21.3934  -54.1465 H         1 UNK         0.0600 
    238 H238       -2.7583  -22.6209  -54.5611 H         1 UNK         0.0600 
    239 H239       -1.4221  -22.2905  -55.6538 H         1 UNK         0.0600 
    240 H240       -2.4885  -18.4415  -54.7928 H         1 UNK         0.3000 
    241 H241       -0.3565  -17.5752  -56.5330 H         1 UNK         0.0600 
    242 H242       -3.8028  -16.5249  -58.4134 H         1 UNK         0.3800 
    243 H243       -3.8426  -17.6658  -57.0932 H         1 UNK         0.3800 
    244 H244       -2.0969  -15.9615  -54.5914 H         1 UNK         0.0800 
    245 H245       -0.6716  -15.3683  -55.3929 H         1 UNK         0.0800 
    246 H246       -2.2029  -17.0900  -52.5631 H         1 UNK         0.0800 
    247 H247       -1.4194  -18.6445  -52.7266 H         1 UNK         0.0800 
@<TRIPOS>BOND
     1    1    2 1    
     2    1  127 1    
     3    1  128 1    
     4    1  129 1    
     5    2    3 2    
     6    2    4 am   BACKBONE|DICT|INTERRES
     7    4    5 1    
     8    4  130 1    
     9    5    6 1    
    10    5   65 1    
    11    5  131 1    
    12    6    7 1    
    13    6  132 1    
    14    6  133 1    
    15    7    8 1    
    16    8    9 1    
    17    8  134 1    
    18    8  135 1    
    19    9   10 ar   
    20    9   14 ar   
    21   10   11 ar   
    22   10  136 1    
    23   11   12 ar   
    24   11  126 1    
    25   12   13 ar   
    26   12  137 1    
    27   13   14 ar   
    28   13   15 1    
    29   14  138 1    
    30   15   16 1    
    31   15  139 1    
    32   15  140 1    
    33   16   17 1    
    34   17   18 1    
    35   17  141 1    
    36   17  142 1    
    37   18   19 1    
    38   18   67 1    
    39   18  143 1    
    40   19   20 am   BACKBONE|DICT|INTERRES
    41   19  144 1    
    42   20   21 2    
    43   20   22 1    
    44   22   23 1    
    45   22   24 1    
    46   22  145 1    
    47   23  146 1    
    48   23  147 1    
    49   23  148 1    
    50   24   25 am   BACKBONE|DICT|INTERRES
    51   24  149 1    
    52   25   26 2    
    53   25   27 1    
    54   27   28 1    
    55   27   29 1    
    56   27  150 1    
    57   28  151 1    
    58   28  152 1    
    59   28  153 1    
    60   29   30 am   BACKBONE|DICT|INTERRES
    61   29  154 1    
    62   30   31 2    
    63   30   32 1    
    64   32   33 1    
    65   32   34 1    
    66   32  155 1    
    67   33  156 1    
    68   33  157 1    
    69   33  158 1    
    70   34   35 am   BACKBONE|DICT|INTERRES
    71   34  159 1    
    72   35   36 2    
    73   35   37 1    
    74   37   38 1    
    75   37   39 1    
    76   37  160 1    
    77   38  161 1    
    78   38  162 1    
    79   38  163 1    
    80   39   40 am   BACKBONE|DICT|INTERRES
    81   39  164 1    
    82   40   41 2    
    83   40   42 1    
    84   42   43 1    
    85   42   44 1    
    86   42  165 1    
    87   43  166 1    
    88   43  167 1    
    89   43  168 1    
    90   44   45 am   BACKBONE|DICT|INTERRES
    91   44  169 1    
    92   45   46 2    
    93   45   47 1    
    94   47   48 1    
    95   47   49 1    
    96   47  170 1    
    97   48  171 1    
    98   48  172 1    
    99   48  173 1    
   100   49   50 am   BACKBONE|DICT|INTERRES
   101   49  174 1    
   102   50   51 2    
   103   50   52 1    
   104   52   53 1    
   105   52   54 1    
   106   52  175 1    
   107   53  176 1    
   108   53  177 1    
   109   53  178 1    
   110   54   55 am   BACKBONE|DICT|INTERRES
   111   54  179 1    
   112   55   56 2    
   113   55   57 1    
   114   57   58 1    
   115   57   59 1    
   116   57  180 1    
   117   58  181 1    
   118   58  182 1    
   119   58  183 1    
   120   59   60 am   BACKBONE|DICT|INTERRES
   121   59  184 1    
   122   60   61 2    
   123   60   62 1    
   124   62   63 1    
   125   62   64 1    
   126   62  185 1    
   127   63  186 1    
   128   63  187 1    
   129   63  188 1    
   130   64   65 am   BACKBONE|DICT|INTERRES
   131   64  189 1    
   132   65   66 2    
   133   67   68 2    
   134   67   69 am   BACKBONE|DICT|INTERRES
   135   69   70 1    
   136   69  190 1    
   137   70   71 1    
   138   70   72 1    
   139   70  191 1    
   140   71  192 1    
   141   71  193 1    
   142   71  194 1    
   143   72   73 2    
   144   72   74 am   BACKBONE|DICT|INTERRES
   145   74   75 1    
   146   74  195 1    
   147   75   76 1    
   148   75   77 1    
   149   75  196 1    
   150   76  197 1    
   151   76  198 1    
   152   76  199 1    
   153   77   78 2    
   154   77   79 am   BACKBONE|DICT|INTERRES
   155   79   80 1    
   156   79  200 1    
   157   80   81 1    
   158   80   82 1    
   159   80  201 1    
   160   81  202 1    
   161   81  203 1    
   162   81  204 1    
   163   82   83 2    
   164   82   84 am   BACKBONE|DICT|INTERRES
   165   84   85 1    
   166   84  205 1    
   167   85   86 1    
   168   85   87 1    
   169   85  206 1    
   170   86  207 1    
   171   86  208 1    
   172   86  209 1    
   173   87   88 2    
   174   87   89 am   BACKBONE|DICT|INTERRES
   175   89   90 1    
   176   89  210 1    
   177   90   91 1    
   178   90   92 1    
   179   90  211 1    
   180   91  212 1    
   181   91  213 1    
   182   91  214 1    
   183   92   93 2    
   184   92   94 am   BACKBONE|DICT|INTERRES
   185   94   95 1    
   186   94  215 1    
   187   95   96 1    
   188   95   97 1    
   189   95  216 1    
   190   96  217 1    
   191   96  218 1    
   192   96  219 1    
   193   97   98 2    
   194   97   99 am   BACKBONE|DICT|INTERRES
   195   99  100 1    
   196   99  220 1    
   197  100  101 1    
   198  100  102 1    
   199  100  221 1    
   200  101  222 1    
   201  101  223 1    
   202  101  224 1    
   203  102  103 2    
   204  102  104 am   BACKBONE|DICT|INTERRES
   205  104  105 1    
   206  104  225 1    
   207  105  106 1    
   208  105  107 1    
   209  105  226 1    
   210  106  227 1    
   211  106  228 1    
   212  106  229 1    
   213  107  108 2    
   214  107  109 am   BACKBONE|DICT|INTERRES
   215  109  110 1    
   216  109  230 1    
   217  110  111 1    
   218  110  112 1    
   219  110  231 1    
   220  111  232 1    
   221  111  233 1    
   222  111  234 1    
   223  112  113 2    
   224  112  114 am   BACKBONE|DICT|INTERRES
   225  114  115 1    
   226  114  235 1    
   227  115  116 1    
   228  115  117 1    
   229  115  236 1    
   230  116  237 1    
   231  116  238 1    
   232  116  239 1    
   233  117  118 2    
   234  117  119 am   BACKBONE|DICT|INTERRES
   235  119  120 1    
   236  119  240 1    
   237  120  121 1    
   238  120  124 1    
   239  120  241 1    
   240  121  122 am   BACKBONE|DICT|INTERRES
   241  121  123 2    
   242  122  242 1    
   243  122  243 1    
   244  124  125 1    
   245  124  244 1    
   246  124  245 1    
   247  125  126 1    
   248  126  246 1    
   249  126  247 1    
@<TRIPOS>SUBSTRUCTURE
     1 UNK         1 GROUP             0       ****    0 ROOT    
