@<TRIPOS>MOLECULE
3R540
247   249    1
SMALL
USER_CHARGES


@<TRIPOS>ATOM
      1 CA          3.7947  -10.6459  -51.0554 C.3       0 UNK        -0.1800 
      2 C           3.4252  -11.8707  -50.2312 C.2       0 UNK         0.5000 
      3 O           4.3122  -12.6060  -49.7967 O.2       0 UNK        -0.5000 
      4 N           2.1209  -12.0854  -50.0075 N.am      1 UNK        -0.5000 
      5 CA          1.5556  -13.2202  -49.2626 C.3       1 UNK         0.1400 
      6 C6          0.0084  -13.2204  -49.2813 C.3       23 UNK        -0.0398 
      7 S7         -0.6897  -13.3496  -50.9602 S.3       23 UNK        -0.2404 
      8 C8         -2.1990  -14.3196  -50.6434 C.3       23 UNK        -0.0205 
      9 C9         -1.9061  -15.8052  -50.4918 C.ar      23 UNK        -0.0193 
     10 C10        -1.7317  -16.5954  -51.6312 C.ar      23 UNK        -0.1150 
     11 C11        -1.4914  -17.9659  -51.5143 C.ar      23 UNK        -0.0193 
     12 C12        -1.4192  -18.5450  -50.2435 C.ar      23 UNK        -0.1150 
     13 C13        -1.5942  -17.7683  -49.0943 C.ar      23 UNK        -0.0193 
     14 C14        -1.8392  -16.3976  -49.2254 C.ar      23 UNK        -0.1150 
     15 C15        -1.5730  -18.4242  -47.7198 C.3       23 UNK        -0.0205 
     16 S16         0.1146  -18.7778  -47.1523 S.3       23 UNK        -0.2404 
     17 C17        -0.2292  -19.6221  -45.5701 C.3       23 UNK        -0.0398 
     18 CA         -0.0507  -21.1587  -45.6448 C.3       11 UNK         0.1400 
     19 N           0.2416  -21.7351  -44.3300 N.am      11 UNK        -0.5000 
     20 C           0.5604  -23.0165  -44.0990 C.2       10 UNK         0.5000 
     21 O           0.7000  -23.8595  -44.9828 O.2       10 UNK        -0.5000 
     22 CA          0.6817  -23.4421  -42.6275 C.3       10 UNK         0.1400 
     23 CB          2.0690  -23.0980  -42.0651 C.3       10 UNK        -0.1800 
     24 N          -0.3604  -22.8258  -41.8067 N.am      10 UNK        -0.5000 
     25 C          -1.6568  -23.1628  -41.8622 C.2       9 UNK         0.5000 
     26 O          -2.0979  -24.0637  -42.5760 O.2       9 UNK        -0.5000 
     27 CA         -2.6270  -22.3243  -41.0094 C.3       9 UNK         0.1400 
     28 CB         -2.6522  -22.8311  -39.5598 C.3       9 UNK        -0.1800 
     29 N          -2.3031  -20.8962  -41.0203 N.am      9 UNK        -0.5000 
     30 C          -2.3932  -20.1113  -42.1027 C.2       8 UNK         0.5000 
     31 O          -2.7767  -20.5058  -43.2031 O.2       8 UNK        -0.5000 
     32 CA         -1.9340  -18.6500  -41.9464 C.3       8 UNK         0.1400 
     33 CB         -3.0807  -17.7854  -41.4025 C.3       8 UNK        -0.1800 
     34 N          -0.7449  -18.4629  -41.1079 N.am      8 UNK        -0.5000 
     35 C           0.4341  -19.0783  -41.2733 C.2       7 UNK         0.5000 
     36 O           0.6254  -19.9706  -42.0999 O.2       7 UNK        -0.5000 
     37 CA          1.5930  -18.5558  -40.4097 C.3       7 UNK         0.1400 
     38 CB          2.8417  -19.4520  -40.4850 C.3       7 UNK        -0.1800 
     39 N           1.9306  -17.2301  -40.9120 N.am      7 UNK        -0.5000 
     40 C           1.7098  -16.0708  -40.2779 C.2       6 UNK         0.5000 
     41 O           1.3315  -15.9915  -39.1088 O.2       6 UNK        -0.5000 
     42 CA          1.8954  -14.7796  -41.1056 C.3       6 UNK         0.1400 
     43 CB          3.3165  -14.2254  -40.9278 C.3       6 UNK        -0.1800 
     44 N           1.6310  -14.9787  -42.5333 N.am      6 UNK        -0.5000 
     45 C           0.4488  -15.3548  -43.0432 C.2       5 UNK         0.5000 
     46 O          -0.5934  -15.3739  -42.3890 O.2       5 UNK        -0.5000 
     47 CA          0.4203  -15.8422  -44.5050 C.3       5 UNK         0.1400 
     48 CB         -0.4032  -14.8944  -45.3898 C.3       5 UNK        -0.1800 
     49 N           1.7374  -16.0541  -45.1148 N.am      5 UNK        -0.5000 
     50 C           2.6266  -16.9926  -44.7571 C.2       4 UNK         0.5000 
     51 O           2.4820  -17.7224  -43.7773 O.2       4 UNK        -0.5000 
     52 CA          3.9013  -17.1155  -45.6065 C.3       4 UNK         0.1400 
     53 CB          3.6239  -17.9109  -46.8907 C.3       4 UNK        -0.1800 
     54 N           4.4260  -15.7983  -45.9628 N.am      4 UNK        -0.5000 
     55 C           5.6009  -15.3023  -45.5515 C.2       3 UNK         0.5000 
     56 O           6.4032  -15.9259  -44.8554 O.2       3 UNK        -0.5000 
     57 CA          5.9450  -13.8596  -45.9791 C.3       3 UNK         0.1400 
     58 CB          6.8180  -13.8681  -47.2430 C.3       3 UNK        -0.1800 
     59 N           4.7693  -13.0230  -46.2236 N.am      3 UNK        -0.5000 
     60 C           3.8661  -12.6786  -45.2952 C.2       2 UNK         0.5000 
     61 O           3.9647  -12.9743  -44.1047 O.2       2 UNK        -0.5000 
     62 CA          2.6198  -11.9106  -45.7761 C.3       2 UNK         0.1400 
     63 CB          2.7873  -10.4065  -45.5146 C.3       2 UNK        -0.1800 
     64 N           2.2649  -12.1081  -47.1864 N.am      2 UNK        -0.5000 
     65 C           2.0363  -13.2800  -47.7995 C.2       1 UNK         0.5000 
     66 O           2.1943  -14.3766  -47.2638 O.2       1 UNK        -0.5000 
     67 C          -1.2567  -21.8518  -46.3149 C.2       11 UNK         0.5000 
     68 O          -1.1713  -22.2149  -47.4856 O.2       11 UNK        -0.5000 
     69 N          -2.3372  -22.0754  -45.5541 N.am      12 UNK        -0.5000 
     70 CA         -3.5228  -22.8062  -46.0026 C.3       12 UNK         0.1400 
     71 CB         -4.6429  -22.6590  -44.9628 C.3       12 UNK        -0.1800 
     72 C          -3.2478  -24.2878  -46.3085 C.2       12 UNK         0.5000 
     73 O          -3.7828  -24.8091  -47.2865 O.2       12 UNK        -0.5000 
     74 N          -2.4124  -24.9361  -45.4871 N.am      13 UNK        -0.5000 
     75 CA         -2.0069  -26.3280  -45.6723 C.3       13 UNK         0.1400 
     76 CB         -1.3268  -26.8406  -44.3933 C.3       13 UNK        -0.1800 
     77 C          -1.0926  -26.5233  -46.8959 C.2       13 UNK         0.5000 
     78 O          -1.3228  -27.4401  -47.6856 O.2       13 UNK        -0.5000 
     79 N          -0.0677  -25.6715  -47.0231 N.am      14 UNK        -0.5000 
     80 CA          0.9720  -25.7898  -48.0436 C.3       14 UNK         0.1400 
     81 CB          2.2609  -25.1345  -47.5231 C.3       14 UNK        -0.1800 
     82 C           0.5836  -25.1752  -49.3982 C.2       14 UNK         0.5000 
     83 O           1.0287  -25.6826  -50.4289 O.2       14 UNK        -0.5000 
     84 N          -0.1924  -24.0842  -49.3827 N.am      15 UNK        -0.5000 
     85 CA         -0.4214  -23.2218  -50.5422 C.3       15 UNK         0.1400 
     86 CB          0.5383  -22.0184  -50.4647 C.3       15 UNK        -0.1800 
     87 C          -1.8933  -22.7976  -50.6913 C.2       15 UNK         0.5000 
     88 O          -2.1631  -21.7829  -51.3279 O.2       15 UNK        -0.5000 
     89 N          -2.8291  -23.5733  -50.1273 N.am      16 UNK        -0.5000 
     90 CA         -4.2905  -23.5097  -50.3048 C.3       16 UNK         0.1400 
     91 CB         -4.6587  -23.7106  -51.7887 C.3       16 UNK        -0.1800 
     92 C          -5.0158  -22.2685  -49.7345 C.2       16 UNK         0.5000 
     93 O          -6.2159  -22.3617  -49.4782 O.2       16 UNK        -0.5000 
     94 N          -4.3076  -21.1465  -49.5458 N.am      17 UNK        -0.5000 
     95 CA         -4.7967  -19.8521  -49.0538 C.3       17 UNK         0.1400 
     96 CB         -5.1945  -19.9183  -47.5643 C.3       17 UNK        -0.1800 
     97 C          -5.8877  -19.2383  -49.9501 C.2       17 UNK         0.5000 
     98 O          -7.0135  -19.0112  -49.5040 O.2       17 UNK        -0.5000 
     99 N          -5.5103  -18.9784  -51.2094 N.am      18 UNK        -0.5000 
    100 CA        -6.2848  -18.2799  -52.2434 C.3       18 UNK         0.1400 
    101 CB        -6.6217  -16.8381  -51.8098 C.3       18 UNK        -0.1800 
    102 C         -7.5155  -19.0482  -52.7659 C.2       18 UNK         0.5000 
    103 O         -8.3336  -18.4679  -53.4826 O.2       18 UNK        -0.5000 
    104 N         -7.6125  -20.3481  -52.4578 N.am      19 UNK        -0.5000 
    105 CA        -8.6528  -21.2566  -52.9402 C.3       19 UNK         0.1400 
    106 CB        -8.7753  -22.4385  -51.9636 C.3       19 UNK        -0.1800 
    107 C         -8.3695  -21.7019  -54.3902 C.2       19 UNK         0.5000 
    108 O         -8.0543  -22.8678  -54.6337 O.2       19 UNK        -0.5000 
    109 N         -8.4414  -20.7385  -55.3193 N.am      20 UNK        -0.5000 
    110 CA        -8.2542  -20.8143  -56.7763 C.3       20 UNK         0.1400 
    111 CB        -9.2698  -21.7769  -57.4198 C.3       20 UNK        -0.1800 
    112 C         -6.8198  -21.1353  -57.2445 C.2       20 UNK         0.5000 
    113 O         -6.3653  -20.5494  -58.2286 O.2       20 UNK        -0.5000 
    114 N         -6.1236  -22.0322  -56.5346 N.am      21 UNK        -0.5000 
    115 CA        -4.7811  -22.5377  -56.8434 C.3       21 UNK         0.1400 
    116 CB        -4.4055  -23.6032  -55.8023 C.3       21 UNK        -0.1800 
    117 C         -3.6846  -21.4562  -56.9199 C.2       21 UNK         0.5000 
    118 O         -2.6966  -21.6449  -57.6309 O.2       21 UNK        -0.5000 
    119 N         -3.8855  -20.3454  -56.2023 N.am      22 UNK        -0.5000 
    120 CA        -3.0067  -19.1642  -56.2056 C.3       22 UNK         0.1400 
    121 C         -3.1684  -18.2552  -57.4610 C.2       22 UNK         0.5000 
    122 N         -4.1427  -18.4806  -58.3363 N.am      22 UNK        -0.7600 
    123 O         -2.3869  -17.3270  -57.6490 O.2       22 UNK        -0.5000 
    124 C124       -3.1490  -18.3365  -54.9011 C.3       23 UNK        -0.0398 
    125 S125       -2.9346  -19.3630  -53.4049 S.3       23 UNK        -0.2404 
    126 C126       -1.3216  -18.8223  -52.7588 C.3       23 UNK        -0.0205 
    127 H127        4.4310   -9.9798  -50.4725 H         1 UNK         0.0600 
    128 H128        2.9129  -10.0866  -51.3688 H         1 UNK         0.0600 
    129 H129        4.3419  -10.9467  -51.9487 H         1 UNK         0.0600 
    130 H130        1.4430  -11.4538  -50.4104 H         1 UNK         0.3000 
    131 H131        1.9032  -14.1343  -49.7488 H         1 UNK         0.0600 
    132 H132       -0.3685  -14.0514  -48.6842 H         1 UNK         0.0800 
    133 H133       -0.3850  -12.3133  -48.8185 H         1 UNK         0.0800 
    134 H134       -2.7094  -13.9323  -49.7601 H         1 UNK         0.0800 
    135 H135       -2.8885  -14.1738  -51.4764 H         1 UNK         0.0800 
    136 H136       -1.7919  -16.1436  -52.6114 H         1 UNK         0.1150 
    137 H137       -1.2399  -19.6057  -50.1466 H         1 UNK         0.1150 
    138 H138       -1.9921  -15.7949  -48.3416 H         1 UNK         0.1150 
    139 H139       -2.0770  -17.7916  -46.9874 H         1 UNK         0.0800 
    140 H140       -2.1265  -19.3619  -47.7560 H         1 UNK         0.0800 
    141 H141       -1.2179  -19.3499  -45.1976 H         1 UNK         0.0800 
    142 H142        0.4766  -19.2132  -44.8468 H         1 UNK         0.0800 
    143 H143        0.8246  -21.3673  -46.2642 H         1 UNK         0.0600 
    144 H144        0.2042  -21.1037  -43.5334 H         1 UNK         0.3000 
    145 H145        0.5588  -24.5261  -42.5791 H         1 UNK         0.0600 
    146 H146        2.1596  -23.4013  -41.0221 H         1 UNK         0.0600 
    147 H147        2.8507  -23.6146  -42.6233 H         1 UNK         0.0600 
    148 H148        2.2800  -22.0305  -42.1247 H         1 UNK         0.0600 
    149 H149       -0.0891  -22.0186  -41.2633 H         1 UNK         0.3000 
    150 H150       -3.6274  -22.4470  -41.4302 H         1 UNK         0.0600 
    151 H151       -2.9082  -23.8908  -39.5218 H         1 UNK         0.0600 
    152 H152       -3.3961  -22.2969  -38.9685 H         1 UNK         0.0600 
    153 H153       -1.6842  -22.7094  -39.0721 H         1 UNK         0.0600 
    154 H154       -1.9696  -20.4926  -40.1573 H         1 UNK         0.3000 
    155 H155       -1.6801  -18.2831  -42.9425 H         1 UNK         0.0600 
    156 H156       -3.3508  -18.0686  -40.3845 H         1 UNK         0.0600 
    157 H157       -2.8110  -16.7293  -41.3966 H         1 UNK         0.0600 
    158 H158       -3.9740  -17.8865  -42.0204 H         1 UNK         0.0600 
    159 H159       -0.7992  -17.7184  -40.4275 H         1 UNK         0.3000 
    160 H160        1.2555  -18.5175  -39.3722 H         1 UNK         0.0600 
    161 H161        3.2200  -19.5343  -41.5051 H         1 UNK         0.0600 
    162 H162        2.6205  -20.4595  -40.1313 H         1 UNK         0.0600 
    163 H163        3.6451  -19.0573  -39.8631 H         1 UNK         0.0600 
    164 H164        2.1943  -17.2074  -41.8935 H         1 UNK         0.3000 
    165 H165        1.1864  -14.0395  -40.7294 H         1 UNK         0.0600 
    166 H166        3.4258  -13.2588  -41.4195 H         1 UNK         0.0600 
    167 H167        3.5512  -14.0793  -39.8726 H         1 UNK         0.0600 
    168 H168        4.0667  -14.8999  -41.3425 H         1 UNK         0.0600 
    169 H169        2.4315  -14.9558  -43.1490 H         1 UNK         0.3000 
    170 H170       -0.0882  -16.8076  -44.4958 H         1 UNK         0.0600 
    171 H171        0.0383  -13.8994  -45.4343 H         1 UNK         0.0600 
    172 H172       -0.4786  -15.2768  -46.4077 H         1 UNK         0.0600 
    173 H173       -1.4194  -14.7857  -45.0089 H         1 UNK         0.0600 
    174 H174        1.9319  -15.4859  -45.9371 H         1 UNK         0.3000 
    175 H175        4.6296  -17.6758  -45.0167 H         1 UNK         0.0600 
    176 H176        4.5385  -18.0617  -47.4641 H         1 UNK         0.0600 
    177 H177        2.9065  -17.4002  -47.5346 H         1 UNK         0.0600 
    178 H178        3.2180  -18.8967  -46.6598 H         1 UNK         0.0600 
    179 H179        3.8158  -15.2050  -46.5157 H         1 UNK         0.3000 
    180 H180        6.5177  -13.4045  -45.1685 H         1 UNK         0.0600 
    181 H181        6.2831  -14.2861  -48.0970 H         1 UNK         0.0600 
    182 H182        7.7184  -14.4653  -47.0936 H         1 UNK         0.0600 
    183 H183        7.1375  -12.8602  -47.5089 H         1 UNK         0.0600 
    184 H184        4.5972  -12.7538  -47.1829 H         1 UNK         0.3000 
    185 H185        1.7796  -12.2663  -45.1775 H         1 UNK         0.0600 
    186 H186        3.0263  -10.2145  -44.4676 H         1 UNK         0.0600 
    187 H187        3.5905   -9.9816  -46.1181 H         1 UNK         0.0600 
    188 H188        1.8710   -9.8611  -45.7411 H         1 UNK         0.0600 
    189 H189        2.1350  -11.2672  -47.7299 H         1 UNK         0.3000 
    190 H190       -2.3657  -21.6990  -44.6099 H         1 UNK         0.3000 
    191 H191       -3.8606  -22.3546  -46.9347 H         1 UNK         0.0600 
    192 H192       -4.9045  -21.6116  -44.8113 H         1 UNK         0.0600 
    193 H193       -5.5469  -23.1764  -45.2861 H         1 UNK         0.0600 
    194 H194       -4.3518  -23.0734  -43.9970 H         1 UNK         0.0600 
    195 H195       -2.0490  -24.4553  -44.6723 H         1 UNK         0.3000 
    196 H196       -2.9078  -26.9241  -45.8324 H         1 UNK         0.0600 
    197 H197       -1.0323  -27.8854  -44.4993 H         1 UNK         0.0600 
    198 H198       -1.9995  -26.7774  -43.5377 H         1 UNK         0.0600 
    199 H199       -0.4297  -26.2690  -44.1548 H         1 UNK         0.0600 
    200 H200        0.0752  -24.9569  -46.3116 H         1 UNK         0.3000 
    201 H201        1.1830  -26.8487  -48.2088 H         1 UNK         0.0600 
    202 H202        2.5831  -25.5871  -46.5852 H         1 UNK         0.0600 
    203 H203        2.1264  -24.0658  -47.3500 H         1 UNK         0.0600 
    204 H204        3.0760  -25.2511  -48.2384 H         1 UNK         0.0600 
    205 H205       -0.5187  -23.7039  -48.4976 H         1 UNK         0.3000 
    206 H206       -0.1941  -23.7657  -51.4608 H         1 UNK         0.0600 
    207 H207        1.5759  -22.3457  -50.3990 H         1 UNK         0.0600 
    208 H208        0.4582  -21.3897  -51.3511 H         1 UNK         0.0600 
    209 H209        0.3308  -21.3941  -49.5952 H         1 UNK         0.0600 
    210 H210       -2.5056  -24.3452  -49.5606 H         1 UNK         0.3000 
    211 H211       -4.6842  -24.3674  -49.7582 H         1 UNK         0.0600 
    212 H212       -4.3946  -22.8411  -52.3914 H         1 UNK         0.0600 
    213 H213       -5.7287  -23.8756  -51.9070 H         1 UNK         0.0600 
    214 H214       -4.1527  -24.5790  -52.2105 H         1 UNK         0.0600 
    215 H215       -3.3527  -21.1650  -49.8898 H         1 UNK         0.3000 
    216 H216       -3.9618  -19.1605  -49.1273 H         1 UNK         0.0600 
    217 H217       -5.6001  -18.9646  -47.2246 H         1 UNK         0.0600 
    218 H218       -4.3306  -20.1277  -46.9358 H         1 UNK         0.0600 
    219 H219       -5.9504  -20.6801  -47.3731 H         1 UNK         0.0600 
    220 H220       -4.5716  -19.2382  -51.4868 H         1 UNK         0.3000 
    221 H221       -5.6214  -18.1992  -53.1020 H         1 UNK         0.0600 
    222 H222       -7.3490  -16.8163  -50.9980 H         1 UNK         0.0600 
    223 H223       -7.0434  -16.2679  -52.6382 H         1 UNK         0.0600 
    224 H224       -5.7287  -16.3088  -51.4767 H         1 UNK         0.0600 
    225 H225       -6.9014  -20.7502  -51.8647 H         1 UNK         0.3000 
    226 H226       -9.6109  -20.7324  -52.9399 H         1 UNK         0.0600 
    227 H227       -9.0224  -22.0947  -50.9589 H         1 UNK         0.0600 
    228 H228       -9.5637  -23.1241  -52.2763 H         1 UNK         0.0600 
    229 H229       -7.8499  -23.0091  -51.8998 H         1 UNK         0.0600 
    230 H230       -8.6281  -19.8045  -54.9661 H         1 UNK         0.3000 
    231 H231       -8.4784  -19.8129  -57.1473 H         1 UNK         0.0600 
    232 H232       -9.1052  -22.8099  -57.1125 H         1 UNK         0.0600 
    233 H233       -9.1977  -21.7470  -58.5078 H         1 UNK         0.0600 
    234 H234      -10.2919  -21.5064  -57.1549 H         1 UNK         0.0600 
    235 H235       -6.6100  -22.4729  -55.7582 H         1 UNK         0.3000 
    236 H236       -4.8318  -23.0173  -57.8227 H         1 UNK         0.0600 
    237 H237       -5.1294  -24.4182  -55.7902 H         1 UNK         0.0600 
    238 H238       -3.4294  -24.0385  -56.0205 H         1 UNK         0.0600 
    239 H239       -4.3593  -23.1801  -54.7988 H         1 UNK         0.0600 
    240 H240       -4.7204  -20.2831  -55.6408 H         1 UNK         0.3000 
    241 H241       -1.9774  -19.5265  -56.2389 H         1 UNK         0.0600 
    242 H242       -4.7986  -19.2441  -58.2118 H         1 UNK         0.3800 
    243 H243       -4.2265  -17.8839  -59.1440 H         1 UNK         0.3800 
    244 H244       -2.4331  -17.5134  -54.8856 H         1 UNK         0.0800 
    245 H245       -4.1344  -17.8717  -54.8596 H         1 UNK         0.0800 
    246 H246       -0.7332  -19.7085  -52.5212 H         1 UNK         0.0800 
    247 H247       -0.7539  -18.2834  -53.5180 H         1 UNK         0.0800 
@<TRIPOS>BOND
     1    1    2 1    
     2    1  127 1    
     3    1  128 1    
     4    1  129 1    
     5    2    3 2    
     6    2    4 am   BACKBONE|DICT|INTERRES
     7    4    5 1    
     8    4  130 1    
     9    5    6 1    
    10    5   65 1    
    11    5  131 1    
    12    6    7 1    
    13    6  132 1    
    14    6  133 1    
    15    7    8 1    
    16    8    9 1    
    17    8  134 1    
    18    8  135 1    
    19    9   10 ar   
    20    9   14 ar   
    21   10   11 ar   
    22   10  136 1    
    23   11   12 ar   
    24   11  126 1    
    25   12   13 ar   
    26   12  137 1    
    27   13   14 ar   
    28   13   15 1    
    29   14  138 1    
    30   15   16 1    
    31   15  139 1    
    32   15  140 1    
    33   16   17 1    
    34   17   18 1    
    35   17  141 1    
    36   17  142 1    
    37   18   19 1    
    38   18   67 1    
    39   18  143 1    
    40   19   20 am   BACKBONE|DICT|INTERRES
    41   19  144 1    
    42   20   21 2    
    43   20   22 1    
    44   22   23 1    
    45   22   24 1    
    46   22  145 1    
    47   23  146 1    
    48   23  147 1    
    49   23  148 1    
    50   24   25 am   BACKBONE|DICT|INTERRES
    51   24  149 1    
    52   25   26 2    
    53   25   27 1    
    54   27   28 1    
    55   27   29 1    
    56   27  150 1    
    57   28  151 1    
    58   28  152 1    
    59   28  153 1    
    60   29   30 am   BACKBONE|DICT|INTERRES
    61   29  154 1    
    62   30   31 2    
    63   30   32 1    
    64   32   33 1    
    65   32   34 1    
    66   32  155 1    
    67   33  156 1    
    68   33  157 1    
    69   33  158 1    
    70   34   35 am   BACKBONE|DICT|INTERRES
    71   34  159 1    
    72   35   36 2    
    73   35   37 1    
    74   37   38 1    
    75   37   39 1    
    76   37  160 1    
    77   38  161 1    
    78   38  162 1    
    79   38  163 1    
    80   39   40 am   BACKBONE|DICT|INTERRES
    81   39  164 1    
    82   40   41 2    
    83   40   42 1    
    84   42   43 1    
    85   42   44 1    
    86   42  165 1    
    87   43  166 1    
    88   43  167 1    
    89   43  168 1    
    90   44   45 am   BACKBONE|DICT|INTERRES
    91   44  169 1    
    92   45   46 2    
    93   45   47 1    
    94   47   48 1    
    95   47   49 1    
    96   47  170 1    
    97   48  171 1    
    98   48  172 1    
    99   48  173 1    
   100   49   50 am   BACKBONE|DICT|INTERRES
   101   49  174 1    
   102   50   51 2    
   103   50   52 1    
   104   52   53 1    
   105   52   54 1    
   106   52  175 1    
   107   53  176 1    
   108   53  177 1    
   109   53  178 1    
   110   54   55 am   BACKBONE|DICT|INTERRES
   111   54  179 1    
   112   55   56 2    
   113   55   57 1    
   114   57   58 1    
   115   57   59 1    
   116   57  180 1    
   117   58  181 1    
   118   58  182 1    
   119   58  183 1    
   120   59   60 am   BACKBONE|DICT|INTERRES
   121   59  184 1    
   122   60   61 2    
   123   60   62 1    
   124   62   63 1    
   125   62   64 1    
   126   62  185 1    
   127   63  186 1    
   128   63  187 1    
   129   63  188 1    
   130   64   65 am   BACKBONE|DICT|INTERRES
   131   64  189 1    
   132   65   66 2    
   133   67   68 2    
   134   67   69 am   BACKBONE|DICT|INTERRES
   135   69   70 1    
   136   69  190 1    
   137   70   71 1    
   138   70   72 1    
   139   70  191 1    
   140   71  192 1    
   141   71  193 1    
   142   71  194 1    
   143   72   73 2    
   144   72   74 am   BACKBONE|DICT|INTERRES
   145   74   75 1    
   146   74  195 1    
   147   75   76 1    
   148   75   77 1    
   149   75  196 1    
   150   76  197 1    
   151   76  198 1    
   152   76  199 1    
   153   77   78 2    
   154   77   79 am   BACKBONE|DICT|INTERRES
   155   79   80 1    
   156   79  200 1    
   157   80   81 1    
   158   80   82 1    
   159   80  201 1    
   160   81  202 1    
   161   81  203 1    
   162   81  204 1    
   163   82   83 2    
   164   82   84 am   BACKBONE|DICT|INTERRES
   165   84   85 1    
   166   84  205 1    
   167   85   86 1    
   168   85   87 1    
   169   85  206 1    
   170   86  207 1    
   171   86  208 1    
   172   86  209 1    
   173   87   88 2    
   174   87   89 am   BACKBONE|DICT|INTERRES
   175   89   90 1    
   176   89  210 1    
   177   90   91 1    
   178   90   92 1    
   179   90  211 1    
   180   91  212 1    
   181   91  213 1    
   182   91  214 1    
   183   92   93 2    
   184   92   94 am   BACKBONE|DICT|INTERRES
   185   94   95 1    
   186   94  215 1    
   187   95   96 1    
   188   95   97 1    
   189   95  216 1    
   190   96  217 1    
   191   96  218 1    
   192   96  219 1    
   193   97   98 2    
   194   97   99 am   BACKBONE|DICT|INTERRES
   195   99  100 1    
   196   99  220 1    
   197  100  101 1    
   198  100  102 1    
   199  100  221 1    
   200  101  222 1    
   201  101  223 1    
   202  101  224 1    
   203  102  103 2    
   204  102  104 am   BACKBONE|DICT|INTERRES
   205  104  105 1    
   206  104  225 1    
   207  105  106 1    
   208  105  107 1    
   209  105  226 1    
   210  106  227 1    
   211  106  228 1    
   212  106  229 1    
   213  107  108 2    
   214  107  109 am   BACKBONE|DICT|INTERRES
   215  109  110 1    
   216  109  230 1    
   217  110  111 1    
   218  110  112 1    
   219  110  231 1    
   220  111  232 1    
   221  111  233 1    
   222  111  234 1    
   223  112  113 2    
   224  112  114 am   BACKBONE|DICT|INTERRES
   225  114  115 1    
   226  114  235 1    
   227  115  116 1    
   228  115  117 1    
   229  115  236 1    
   230  116  237 1    
   231  116  238 1    
   232  116  239 1    
   233  117  118 2    
   234  117  119 am   BACKBONE|DICT|INTERRES
   235  119  120 1    
   236  119  240 1    
   237  120  121 1    
   238  120  124 1    
   239  120  241 1    
   240  121  122 am   BACKBONE|DICT|INTERRES
   241  121  123 2    
   242  122  242 1    
   243  122  243 1    
   244  124  125 1    
   245  124  244 1    
   246  124  245 1    
   247  125  126 1    
   248  126  246 1    
   249  126  247 1    
@<TRIPOS>SUBSTRUCTURE
     1 UNK         1 GROUP             0       ****    0 ROOT    
