@<TRIPOS>MOLECULE
3R540
247   249    1
SMALL
USER_CHARGES


@<TRIPOS>ATOM
      1 CA         -2.2449  -12.9039  -52.7342 C.3       0 UNK        -0.1800 
      2 C          -1.9397  -12.9665  -51.2440 C.2       0 UNK         0.5000 
      3 O          -2.0301  -11.9497  -50.5553 O.2       0 UNK        -0.5000 
      4 N          -1.5669  -14.1522  -50.7497 N.am      1 UNK        -0.5000 
      5 CA         -1.3091  -14.4385  -49.3358 C.3       1 UNK         0.1400 
      6 C6         -0.5173  -15.7608  -49.1391 C.3       23 UNK        -0.0398 
      7 S7         -1.1319  -17.1754  -50.1270 S.3       23 UNK        -0.2404 
      8 C8          0.2134  -17.3931  -51.3375 C.3       23 UNK        -0.0205 
      9 C9          1.2245  -18.4381  -50.8860 C.ar      23 UNK        -0.0193 
     10 C10         1.2468  -19.6927  -51.4993 C.ar      23 UNK        -0.1150 
     11 C11         2.1567  -20.6721  -51.0955 C.ar      23 UNK        -0.0193 
     12 C12         3.0686  -20.3813  -50.0775 C.ar      23 UNK        -0.1150 
     13 C13         3.0578  -19.1306  -49.4517 C.ar      23 UNK        -0.0193 
     14 C14         2.1387  -18.1611  -49.8652 C.ar      23 UNK        -0.1150 
     15 C15         4.0260  -18.8325  -48.3156 C.3       23 UNK        -0.0205 
     16 S16         3.7282  -19.8858  -46.8589 S.3       23 UNK        -0.2404 
     17 C17         1.9901  -19.5026  -46.4528 C.3       23 UNK        -0.0398 
     18 CA          0.9849  -20.5685  -46.9588 C.3       11 UNK         0.1400 
     19 N           1.3648  -21.9364  -46.5997 N.am      11 UNK        -0.5000 
     20 C           0.8507  -23.0408  -47.1570 C.2       10 UNK         0.5000 
     21 O           0.0031  -23.0264  -48.0480 O.2       10 UNK        -0.5000 
     22 CA          1.3340  -24.3893  -46.5916 C.3       10 UNK         0.1400 
     23 CB          2.6360  -24.8225  -47.2818 C.3       10 UNK        -0.1800 
     24 N           1.5426  -24.3531  -45.1428 N.am      10 UNK        -0.5000 
     25 C           0.5744  -24.1448  -44.2387 C.2       9 UNK         0.5000 
     26 O          -0.6152  -24.0279  -44.5288 O.2       9 UNK        -0.5000 
     27 CA          1.0157  -23.9757  -42.7717 C.3       9 UNK         0.1400 
     28 CB          1.0128  -25.3308  -42.0493 C.3       9 UNK        -0.1800 
     29 N           2.3333  -23.3476  -42.6221 N.am      9 UNK        -0.5000 
     30 C           2.6528  -22.1264  -43.0697 C.2       8 UNK         0.5000 
     31 O           1.8644  -21.3913  -43.6725 O.2       8 UNK        -0.5000 
     32 CA          4.1051  -21.6792  -42.8573 C.3       8 UNK         0.1400 
     33 CB          5.0576  -22.4552  -43.7865 C.3       8 UNK        -0.1800 
     34 N           4.1970  -20.2537  -43.1434 N.am      8 UNK        -0.5000 
     35 C           5.1444  -19.4160  -42.7102 C.2       7 UNK         0.5000 
     36 O           6.0776  -19.7589  -41.9829 O.2       7 UNK        -0.5000 
     37 CA          5.0441  -17.9482  -43.1713 C.3       7 UNK         0.1400 
     38 CB          6.0445  -17.6761  -44.3060 C.3       7 UNK        -0.1800 
     39 N           3.7028  -17.5789  -43.6311 N.am      7 UNK        -0.5000 
     40 C           2.6816  -17.2741  -42.8208 C.2       6 UNK         0.5000 
     41 O           2.7599  -17.2548  -41.5907 O.2       6 UNK        -0.5000 
     42 CA          1.3394  -16.9579  -43.5054 C.3       6 UNK         0.1400 
     43 CB          0.3117  -18.0629  -43.2253 C.3       6 UNK        -0.1800 
     44 N           0.7797  -15.6803  -43.0754 N.am      6 UNK        -0.5000 
     45 C           1.3260  -14.4763  -43.2941 C.2       5 UNK         0.5000 
     46 O           2.4011  -14.3160  -43.8742 O.2       5 UNK        -0.5000 
     47 CA          0.5350  -13.2414  -42.8157 C.3       5 UNK         0.1400 
     48 CB          0.3744  -12.2160  -43.9522 C.3       5 UNK        -0.1800 
     49 N          -0.8007  -13.5983  -42.3337 N.am      5 UNK        -0.5000 
     50 C          -1.2184  -13.5306  -41.0624 C.2       4 UNK         0.5000 
     51 O          -0.5049  -13.1631  -40.1285 O.2       4 UNK        -0.5000 
     52 CA         -2.6823  -13.9304  -40.7766 C.3       4 UNK         0.1400 
     53 CB         -3.5453  -12.6774  -40.5607 C.3       4 UNK        -0.1800 
     54 N          -3.2861  -14.7360  -41.8403 N.am      4 UNK        -0.5000 
     55 C          -2.9911  -16.0187  -42.0901 C.2       3 UNK         0.5000 
     56 O          -2.2185  -16.6851  -41.4031 O.2       3 UNK        -0.5000 
     57 CA         -3.6219  -16.6445  -43.3503 C.3       3 UNK         0.1400 
     58 CB         -4.8911  -17.4339  -42.9992 C.3       3 UNK        -0.1800 
     59 N          -3.9293  -15.6728  -44.4068 N.am      3 UNK        -0.5000 
     60 C          -3.0066  -14.9587  -45.0642 C.2       2 UNK         0.5000 
     61 O          -1.8060  -14.9735  -44.7845 O.2       2 UNK        -0.5000 
     62 CA         -3.5001  -14.0560  -46.2010 C.3       2 UNK         0.1400 
     63 CB         -3.7332  -12.6285  -45.6822 C.3       2 UNK        -0.1800 
     64 N          -2.4615  -14.0295  -47.2252 N.am      2 UNK        -0.5000 
     65 C          -2.6060  -14.4125  -48.4979 C.2       1 UNK         0.5000 
     66 O          -3.6808  -14.7513  -48.9998 O.2       1 UNK        -0.5000 
     67 C          -0.4352  -20.2499  -46.4568 C.2       11 UNK         0.5000 
     68 O          -1.2028  -19.6140  -47.1750 O.2       11 UNK        -0.5000 
     69 N          -0.7733  -20.7275  -45.2492 N.am      12 UNK        -0.5000 
     70 CA         -2.1106  -20.6104  -44.6649 C.3       12 UNK         0.1400 
     71 CB         -2.0716  -21.0174  -43.1846 C.3       12 UNK        -0.1800 
     72 C          -3.1585  -21.4302  -45.4394 C.2       12 UNK         0.5000 
     73 O          -4.2514  -20.9268  -45.7000 O.2       12 UNK        -0.5000 
     74 N          -2.7911  -22.6581  -45.8330 N.am      13 UNK        -0.5000 
     75 CA         -3.5994  -23.5367  -46.6791 C.3       13 UNK         0.1400 
     76 CB         -2.9382  -24.9200  -46.7691 C.3       13 UNK        -0.1800 
     77 C          -3.8359  -22.9499  -48.0820 C.2       13 UNK         0.5000 
     78 O          -4.9565  -23.0227  -48.5859 O.2       13 UNK        -0.5000 
     79 N          -2.7937  -22.3439  -48.6685 N.am      14 UNK        -0.5000 
     80 CA         -2.8774  -21.6103  -49.9288 C.3       14 UNK         0.1400 
     81 CB         -1.4751  -21.2446  -50.4214 C.3       14 UNK        -0.1800 
     82 C          -3.7579  -20.3576  -49.8126 C.2       14 UNK         0.5000 
     83 O          -4.6135  -20.1495  -50.6677 O.2       14 UNK        -0.5000 
     84 N          -3.5855  -19.5705  -48.7421 N.am      15 UNK        -0.5000 
     85 CA         -4.3956  -18.3871  -48.4457 C.3       15 UNK         0.1400 
     86 CB         -3.8673  -17.6983  -47.1831 C.3       15 UNK        -0.1800 
     87 C          -5.8946  -18.7069  -48.3000 C.2       15 UNK         0.5000 
     88 O          -6.7264  -17.9892  -48.8557 O.2       15 UNK        -0.5000 
     89 N          -6.2089  -19.8194  -47.6212 N.am      16 UNK        -0.5000 
     90 CA         -7.5620  -20.3668  -47.4896 C.3       16 UNK         0.1400 
     91 CB         -7.5410  -21.5193  -46.4745 C.3       16 UNK        -0.1800 
     92 C          -8.1801  -20.8279  -48.8281 C.2       16 UNK         0.5000 
     93 O          -9.4046  -20.8331  -48.9565 O.2       16 UNK        -0.5000 
     94 N          -7.3316  -21.1730  -49.8053 N.am      17 UNK        -0.5000 
     95 CA         -7.7022  -21.5273  -51.1767 C.3       17 UNK         0.1400 
     96 CB         -6.7478  -22.6268  -51.6763 C.3       17 UNK        -0.1800 
     97 C          -7.7060  -20.3098  -52.1298 C.2       17 UNK         0.5000 
     98 O          -7.8732  -20.5001  -53.3351 O.2       17 UNK        -0.5000 
     99 N          -7.5386  -19.0936  -51.5850 N.am      18 UNK        -0.5000 
    100 CA        -7.4558  -17.8024  -52.2768 C.3       18 UNK         0.1400 
    101 CB        -8.7434  -17.4949  -53.0714 C.3       18 UNK        -0.1800 
    102 C         -6.1623  -17.6487  -53.1047 C.2       18 UNK         0.5000 
    103 O         -6.2006  -17.1560  -54.2340 O.2       18 UNK        -0.5000 
    104 N         -5.0400  -18.0509  -52.4944 N.am      19 UNK        -0.5000 
    105 CA        -3.6678  -18.0474  -53.0053 C.3       19 UNK         0.1400 
    106 CB        -3.2266  -16.6363  -53.4553 C.3       19 UNK        -0.1800 
    107 C         -3.4254  -19.1512  -54.0548 C.2       19 UNK         0.5000 
    108 O         -4.2310  -20.0768  -54.1765 O.2       19 UNK        -0.5000 
    109 N         -2.2851  -19.0600  -54.7558 N.am      20 UNK        -0.5000 
    110 CA        -1.7312  -20.0657  -55.6681 C.3       20 UNK         0.1400 
    111 CB        -2.6201  -20.2385  -56.9214 C.3       20 UNK        -0.1800 
    112 C         -1.4157  -21.3739  -54.9124 C.2       20 UNK         0.5000 
    113 O         -0.6148  -21.3344  -53.9787 O.2       20 UNK        -0.5000 
    114 N         -2.0347  -22.4926  -55.3133 N.am      21 UNK        -0.5000 
    115 CA        -1.9075  -23.8510  -54.7695 C.3       21 UNK         0.1400 
    116 CB        -2.2867  -23.9119  -53.2751 C.3       21 UNK        -0.1800 
    117 C         -0.5355  -24.4977  -55.0434 C.2       21 UNK         0.5000 
    118 O         -0.4856  -25.5515  -55.6799 O.2       21 UNK        -0.5000 
    119 N          0.5454  -23.8596  -54.5825 N.am      22 UNK        -0.5000 
    120 CA         1.9326  -24.2239  -54.8999 C.3       22 UNK         0.1400 
    121 C          2.3893  -23.6939  -56.2905 C.2       22 UNK         0.5000 
    122 N          3.4627  -24.2425  -56.8444 N.am      22 UNK        -0.7600 
    123 O          1.7945  -22.7880  -56.8722 O.2       22 UNK        -0.5000 
    124 C124        2.9112  -23.8399  -53.7578 C.3       23 UNK        -0.0398 
    125 S125        2.9767  -22.0593  -53.3461 S.3       23 UNK        -0.2404 
    126 C126        2.1294  -22.0502  -51.7374 C.3       23 UNK        -0.0205 
    127 H127       -3.3111  -12.7410  -52.8918 H         1 UNK         0.0600 
    128 H128       -1.9605  -13.8240  -53.2451 H         1 UNK         0.0600 
    129 H129       -1.7005  -12.0802  -53.1959 H         1 UNK         0.0600 
    130 H130       -1.5520  -14.9617  -51.3520 H         1 UNK         0.3000 
    131 H131       -0.6770  -13.6300  -48.9611 H         1 UNK         0.0600 
    132 H132       -0.5006  -16.0593  -48.0890 H         1 UNK         0.0800 
    133 H133        0.5253  -15.5744  -49.3935 H         1 UNK         0.0800 
    134 H134       -0.2313  -17.6947  -52.2865 H         1 UNK         0.0800 
    135 H135        0.7170  -16.4458  -51.5339 H         1 UNK         0.0800 
    136 H136        0.5453  -19.9144  -52.2887 H         1 UNK         0.1150 
    137 H137        3.7727  -21.1346  -49.7529 H         1 UNK         0.1150 
    138 H138        2.1297  -17.1946  -49.3845 H         1 UNK         0.1150 
    139 H139        5.0462  -18.9945  -48.6657 H         1 UNK         0.0800 
    140 H140        3.9675  -17.7850  -48.0161 H         1 UNK         0.0800 
    141 H141        1.7322  -18.5199  -46.8514 H         1 UNK         0.0800 
    142 H142        1.9337  -19.4108  -45.3703 H         1 UNK         0.0800 
    143 H143        0.9585  -20.5108  -48.0487 H         1 UNK         0.0600 
    144 H144        2.0175  -22.0281  -45.8345 H         1 UNK         0.3000 
    145 H145        0.5661  -25.1357  -46.8048 H         1 UNK         0.0600 
    146 H146        2.9510  -25.8106  -46.9460 H         1 UNK         0.0600 
    147 H147        2.5050  -24.8740  -48.3636 H         1 UNK         0.0600 
    148 H148        3.4499  -24.1238  -47.0830 H         1 UNK         0.0600 
    149 H149        2.4930  -24.4417  -44.8157 H         1 UNK         0.3000 
    150 H150        0.2847  -23.3274  -42.2843 H         1 UNK         0.0600 
    151 H151        1.7498  -26.0146  -42.4722 H         1 UNK         0.0600 
    152 H152        0.0366  -25.8117  -42.1258 H         1 UNK         0.0600 
    153 H153        1.2326  -25.2129  -40.9881 H         1 UNK         0.0600 
    154 H154        3.0366  -23.8926  -42.1442 H         1 UNK         0.3000 
    155 H155        4.3711  -21.8586  -41.8137 H         1 UNK         0.0600 
    156 H156        4.8088  -22.2977  -44.8370 H         1 UNK         0.0600 
    157 H157        5.0151  -23.5277  -43.5943 H         1 UNK         0.0600 
    158 H158        6.0925  -22.1454  -43.6409 H         1 UNK         0.0600 
    159 H159        3.4287  -19.8949  -43.6930 H         1 UNK         0.3000 
    160 H160        5.3133  -17.3161  -42.3224 H         1 UNK         0.0600 
    161 H161        5.8317  -18.2838  -45.1863 H         1 UNK         0.0600 
    162 H162        7.0639  -17.9028  -43.9907 H         1 UNK         0.0600 
    163 H163        6.0246  -16.6286  -44.6073 H         1 UNK         0.0600 
    164 H164        3.5724  -17.5414  -44.6312 H         1 UNK         0.3000 
    165 H165        1.4959  -16.9042  -44.5847 H         1 UNK         0.0600 
    166 H166       -0.5817  -17.9293  -43.8340 H         1 UNK         0.0600 
    167 H167        0.7146  -19.0486  -43.4490 H         1 UNK         0.0600 
    168 H168        0.0098  -18.0743  -42.1776 H         1 UNK         0.0600 
    169 H169       -0.0941  -15.7211  -42.5716 H         1 UNK         0.3000 
    170 H170        1.1203  -12.7782  -42.0192 H         1 UNK         0.0600 
    171 H171        1.3440  -11.8692  -44.3114 H         1 UNK         0.0600 
    172 H172       -0.1595  -12.6406  -44.8032 H         1 UNK         0.0600 
    173 H173       -0.1772  -11.3382  -43.6153 H         1 UNK         0.0600 
    174 H174       -1.4294  -13.9609  -43.0417 H         1 UNK         0.3000 
    175 H175       -2.6893  -14.5143  -39.8538 H         1 UNK         0.0600 
    176 H176       -3.5831  -12.0556  -41.4562 H         1 UNK         0.0600 
    177 H177       -4.5678  -12.9436  -40.2921 H         1 UNK         0.0600 
    178 H178       -3.1482  -12.0632  -39.7514 H         1 UNK         0.0600 
    179 H179       -3.9344  -14.2653  -42.4541 H         1 UNK         0.3000 
    180 H180       -2.8939  -17.3487  -43.7561 H         1 UNK         0.0600 
    181 H181       -4.6858  -18.1819  -42.2320 H         1 UNK         0.0600 
    182 H182       -5.2789  -17.9639  -43.8698 H         1 UNK         0.0600 
    183 H183       -5.6794  -16.7820  -42.6210 H         1 UNK         0.0600 
    184 H184       -4.9009  -15.5878  -44.6690 H         1 UNK         0.3000 
    185 H185       -4.4370  -14.4513  -46.5980 H         1 UNK         0.0600 
    186 H186       -4.0561  -11.9676  -46.4869 H         1 UNK         0.0600 
    187 H187       -4.5097  -12.6113  -44.9165 H         1 UNK         0.0600 
    188 H188       -2.8290  -12.2032  -45.2441 H         1 UNK         0.0600 
    189 H189       -1.5347  -13.8395  -46.8691 H         1 UNK         0.3000 
    190 H190       -0.0760  -21.2301  -44.7135 H         1 UNK         0.3000 
    191 H191       -2.4072  -19.5614  -44.7176 H         1 UNK         0.0600 
    192 H192       -1.3596  -20.4119  -42.6244 H         1 UNK         0.0600 
    193 H193       -3.0490  -20.8812  -42.7200 H         1 UNK         0.0600 
    194 H194       -1.7926  -22.0633  -43.0591 H         1 UNK         0.0600 
    195 H195       -1.8970  -23.0264  -45.5198 H         1 UNK         0.3000 
    196 H196       -4.5735  -23.6555  -46.2003 H         1 UNK         0.0600 
    197 H197       -3.5368  -25.6000  -47.3764 H         1 UNK         0.0600 
    198 H198       -2.8327  -25.3712  -45.7824 H         1 UNK         0.0600 
    199 H199       -1.9465  -24.8639  -47.2185 H         1 UNK         0.0600 
    200 H200       -1.8823  -22.3827  -48.2237 H         1 UNK         0.3000 
    201 H201       -3.3314  -22.2705  -50.6707 H         1 UNK         0.0600 
    202 H202       -0.8600  -22.1341  -50.5503 H         1 UNK         0.0600 
    203 H203       -0.9612  -20.5790  -49.7276 H         1 UNK         0.0600 
    204 H204       -1.5279  -20.7392  -51.3862 H         1 UNK         0.0600 
    205 H205       -2.8135  -19.7608  -48.1075 H         1 UNK         0.3000 
    206 H206       -4.2831  -17.6932  -49.2816 H         1 UNK         0.0600 
    207 H207       -2.8368  -17.3681  -47.3137 H         1 UNK         0.0600 
    208 H208       -4.4687  -16.8191  -46.9578 H         1 UNK         0.0600 
    209 H209       -3.9036  -18.3527  -46.3131 H         1 UNK         0.0600 
    210 H210       -5.4640  -20.3313  -47.1565 H         1 UNK         0.3000 
    211 H211       -8.2012  -19.5759  -47.0919 H         1 UNK         0.0600 
    212 H212       -6.9006  -22.3363  -46.8074 H         1 UNK         0.0600 
    213 H213       -8.5414  -21.9262  -46.3229 H         1 UNK         0.0600 
    214 H214       -7.1755  -21.1831  -45.5039 H         1 UNK         0.0600 
    215 H215       -6.3369  -21.1305  -49.6196 H         1 UNK         0.3000 
    216 H216       -8.7132  -21.9391  -51.1814 H         1 UNK         0.0600 
    217 H217       -7.0584  -23.0020  -52.6520 H         1 UNK         0.0600 
    218 H218       -6.7308  -23.4761  -50.9930 H         1 UNK         0.0600 
    219 H219       -5.7264  -22.2608  -51.7795 H         1 UNK         0.0600 
    220 H220       -7.3876  -19.0461  -50.5842 H         1 UNK         0.3000 
    221 H221       -7.3872  -17.0534  -51.4865 H         1 UNK         0.0600 
    222 H222       -8.8550  -18.1451  -53.9391 H         1 UNK         0.0600 
    223 H223       -9.6296  -17.6103  -52.4474 H         1 UNK         0.0600 
    224 H224       -8.7364  -16.4675  -53.4370 H         1 UNK         0.0600 
    225 H225       -5.1473  -18.5907  -51.6406 H         1 UNK         0.3000 
    226 H226       -3.0490  -18.3201  -52.1502 H         1 UNK         0.0600 
    227 H227       -2.1459  -16.5781  -53.5836 H         1 UNK         0.0600 
    228 H228       -3.6844  -16.3488  -54.4021 H         1 UNK         0.0600 
    229 H229       -3.4984  -15.8873  -52.7112 H         1 UNK         0.0600 
    230 H230       -1.6785  -18.2750  -54.5706 H         1 UNK         0.3000 
    231 H231       -0.7690  -19.6768  -56.0047 H         1 UNK         0.0600 
    232 H232       -3.6066  -20.6370  -56.6836 H         1 UNK         0.0600 
    233 H233       -2.1539  -20.9110  -57.6426 H         1 UNK         0.0600 
    234 H234       -2.7664  -19.2834  -57.4259 H         1 UNK         0.0600 
    235 H235       -2.6663  -22.4086  -56.0970 H         1 UNK         0.3000 
    236 H236       -2.6461  -24.4467  -55.3083 H         1 UNK         0.0600 
    237 H237       -3.2721  -23.4793  -53.1008 H         1 UNK         0.0600 
    238 H238       -2.3172  -24.9445  -52.9259 H         1 UNK         0.0600 
    239 H239       -1.5732  -23.3805  -52.6456 H         1 UNK         0.0600 
    240 H240        0.4053  -22.9478  -54.1557 H         1 UNK         0.3000 
    241 H241        1.9679  -25.3127  -54.9750 H         1 UNK         0.0600 
    242 H242        3.7735  -23.9060  -57.7429 H         1 UNK         0.3800 
    243 H243        3.9699  -24.9905  -56.3970 H         1 UNK         0.3800 
    244 H244        2.6489  -24.4052  -52.8628 H         1 UNK         0.0800 
    245 H245        3.9238  -24.1610  -54.0062 H         1 UNK         0.0800 
    246 H246        1.0967  -22.3716  -51.8766 H         1 UNK         0.0800 
    247 H247        2.5942  -22.7802  -51.0729 H         1 UNK         0.0800 
@<TRIPOS>BOND
     1    1    2 1    
     2    1  127 1    
     3    1  128 1    
     4    1  129 1    
     5    2    3 2    
     6    2    4 am   BACKBONE|DICT|INTERRES
     7    4    5 1    
     8    4  130 1    
     9    5    6 1    
    10    5   65 1    
    11    5  131 1    
    12    6    7 1    
    13    6  132 1    
    14    6  133 1    
    15    7    8 1    
    16    8    9 1    
    17    8  134 1    
    18    8  135 1    
    19    9   10 ar   
    20    9   14 ar   
    21   10   11 ar   
    22   10  136 1    
    23   11   12 ar   
    24   11  126 1    
    25   12   13 ar   
    26   12  137 1    
    27   13   14 ar   
    28   13   15 1    
    29   14  138 1    
    30   15   16 1    
    31   15  139 1    
    32   15  140 1    
    33   16   17 1    
    34   17   18 1    
    35   17  141 1    
    36   17  142 1    
    37   18   19 1    
    38   18   67 1    
    39   18  143 1    
    40   19   20 am   BACKBONE|DICT|INTERRES
    41   19  144 1    
    42   20   21 2    
    43   20   22 1    
    44   22   23 1    
    45   22   24 1    
    46   22  145 1    
    47   23  146 1    
    48   23  147 1    
    49   23  148 1    
    50   24   25 am   BACKBONE|DICT|INTERRES
    51   24  149 1    
    52   25   26 2    
    53   25   27 1    
    54   27   28 1    
    55   27   29 1    
    56   27  150 1    
    57   28  151 1    
    58   28  152 1    
    59   28  153 1    
    60   29   30 am   BACKBONE|DICT|INTERRES
    61   29  154 1    
    62   30   31 2    
    63   30   32 1    
    64   32   33 1    
    65   32   34 1    
    66   32  155 1    
    67   33  156 1    
    68   33  157 1    
    69   33  158 1    
    70   34   35 am   BACKBONE|DICT|INTERRES
    71   34  159 1    
    72   35   36 2    
    73   35   37 1    
    74   37   38 1    
    75   37   39 1    
    76   37  160 1    
    77   38  161 1    
    78   38  162 1    
    79   38  163 1    
    80   39   40 am   BACKBONE|DICT|INTERRES
    81   39  164 1    
    82   40   41 2    
    83   40   42 1    
    84   42   43 1    
    85   42   44 1    
    86   42  165 1    
    87   43  166 1    
    88   43  167 1    
    89   43  168 1    
    90   44   45 am   BACKBONE|DICT|INTERRES
    91   44  169 1    
    92   45   46 2    
    93   45   47 1    
    94   47   48 1    
    95   47   49 1    
    96   47  170 1    
    97   48  171 1    
    98   48  172 1    
    99   48  173 1    
   100   49   50 am   BACKBONE|DICT|INTERRES
   101   49  174 1    
   102   50   51 2    
   103   50   52 1    
   104   52   53 1    
   105   52   54 1    
   106   52  175 1    
   107   53  176 1    
   108   53  177 1    
   109   53  178 1    
   110   54   55 am   BACKBONE|DICT|INTERRES
   111   54  179 1    
   112   55   56 2    
   113   55   57 1    
   114   57   58 1    
   115   57   59 1    
   116   57  180 1    
   117   58  181 1    
   118   58  182 1    
   119   58  183 1    
   120   59   60 am   BACKBONE|DICT|INTERRES
   121   59  184 1    
   122   60   61 2    
   123   60   62 1    
   124   62   63 1    
   125   62   64 1    
   126   62  185 1    
   127   63  186 1    
   128   63  187 1    
   129   63  188 1    
   130   64   65 am   BACKBONE|DICT|INTERRES
   131   64  189 1    
   132   65   66 2    
   133   67   68 2    
   134   67   69 am   BACKBONE|DICT|INTERRES
   135   69   70 1    
   136   69  190 1    
   137   70   71 1    
   138   70   72 1    
   139   70  191 1    
   140   71  192 1    
   141   71  193 1    
   142   71  194 1    
   143   72   73 2    
   144   72   74 am   BACKBONE|DICT|INTERRES
   145   74   75 1    
   146   74  195 1    
   147   75   76 1    
   148   75   77 1    
   149   75  196 1    
   150   76  197 1    
   151   76  198 1    
   152   76  199 1    
   153   77   78 2    
   154   77   79 am   BACKBONE|DICT|INTERRES
   155   79   80 1    
   156   79  200 1    
   157   80   81 1    
   158   80   82 1    
   159   80  201 1    
   160   81  202 1    
   161   81  203 1    
   162   81  204 1    
   163   82   83 2    
   164   82   84 am   BACKBONE|DICT|INTERRES
   165   84   85 1    
   166   84  205 1    
   167   85   86 1    
   168   85   87 1    
   169   85  206 1    
   170   86  207 1    
   171   86  208 1    
   172   86  209 1    
   173   87   88 2    
   174   87   89 am   BACKBONE|DICT|INTERRES
   175   89   90 1    
   176   89  210 1    
   177   90   91 1    
   178   90   92 1    
   179   90  211 1    
   180   91  212 1    
   181   91  213 1    
   182   91  214 1    
   183   92   93 2    
   184   92   94 am   BACKBONE|DICT|INTERRES
   185   94   95 1    
   186   94  215 1    
   187   95   96 1    
   188   95   97 1    
   189   95  216 1    
   190   96  217 1    
   191   96  218 1    
   192   96  219 1    
   193   97   98 2    
   194   97   99 am   BACKBONE|DICT|INTERRES
   195   99  100 1    
   196   99  220 1    
   197  100  101 1    
   198  100  102 1    
   199  100  221 1    
   200  101  222 1    
   201  101  223 1    
   202  101  224 1    
   203  102  103 2    
   204  102  104 am   BACKBONE|DICT|INTERRES
   205  104  105 1    
   206  104  225 1    
   207  105  106 1    
   208  105  107 1    
   209  105  226 1    
   210  106  227 1    
   211  106  228 1    
   212  106  229 1    
   213  107  108 2    
   214  107  109 am   BACKBONE|DICT|INTERRES
   215  109  110 1    
   216  109  230 1    
   217  110  111 1    
   218  110  112 1    
   219  110  231 1    
   220  111  232 1    
   221  111  233 1    
   222  111  234 1    
   223  112  113 2    
   224  112  114 am   BACKBONE|DICT|INTERRES
   225  114  115 1    
   226  114  235 1    
   227  115  116 1    
   228  115  117 1    
   229  115  236 1    
   230  116  237 1    
   231  116  238 1    
   232  116  239 1    
   233  117  118 2    
   234  117  119 am   BACKBONE|DICT|INTERRES
   235  119  120 1    
   236  119  240 1    
   237  120  121 1    
   238  120  124 1    
   239  120  241 1    
   240  121  122 am   BACKBONE|DICT|INTERRES
   241  121  123 2    
   242  122  242 1    
   243  122  243 1    
   244  124  125 1    
   245  124  244 1    
   246  124  245 1    
   247  125  126 1    
   248  126  246 1    
   249  126  247 1    
@<TRIPOS>SUBSTRUCTURE
     1 UNK         1 GROUP             0       ****    0 ROOT    
