@<TRIPOS>MOLECULE
3R540
247   249    1
SMALL
USER_CHARGES


@<TRIPOS>ATOM
      1 CA          0.5337   -9.0579  -44.9135 C.3       0 UNK        -0.1800 
      2 C           0.6026  -10.5665  -45.1077 C.2       0 UNK         0.5000 
      3 O           0.2645  -11.3080  -44.1868 O.2       0 UNK        -0.5000 
      4 N           1.0272  -10.9994  -46.3031 N.am      1 UNK        -0.5000 
      5 CA          1.2359  -12.3850  -46.7471 C.3       1 UNK         0.1400 
      6 C6          0.0084  -13.3249  -46.5989 C.3       23 UNK        -0.0398 
      7 S7         -1.4871  -12.6659  -47.4136 S.3       23 UNK        -0.2404 
      8 C8         -1.2961  -13.2746  -49.1207 C.3       23 UNK        -0.0205 
      9 C9         -1.5042  -14.7777  -49.2329 C.ar      23 UNK        -0.0193 
     10 C10        -0.4509  -15.6145  -49.6107 C.ar      23 UNK        -0.1150 
     11 C11        -0.6475  -16.9937  -49.7323 C.ar      23 UNK        -0.0193 
     12 C12        -1.9088  -17.5350  -49.4628 C.ar      23 UNK        -0.1150 
     13 C13        -2.9695  -16.7080  -49.0777 C.ar      23 UNK        -0.0193 
     14 C14        -2.7607  -15.3304  -48.9758 C.ar      23 UNK        -0.1150 
     15 C15        -4.3463  -17.2788  -48.7709 C.3       23 UNK        -0.0205 
     16 S16        -4.6416  -17.3537  -46.9734 S.3       23 UNK        -0.2404 
     17 C17        -4.6819  -19.1486  -46.6472 C.3       23 UNK        -0.0398 
     18 CA         -3.3511  -19.8745  -46.9501 C.3       11 UNK         0.1400 
     19 N          -2.2131  -19.2749  -46.2535 N.am      11 UNK        -0.5000 
     20 C          -0.9307  -19.4898  -46.5744 C.2       10 UNK         0.5000 
     21 O          -0.5703  -20.2414  -47.4770 O.2       10 UNK        -0.5000 
     22 CA          0.1242  -18.7952  -45.6966 C.3       10 UNK         0.1400 
     23 CB          0.3406  -17.3513  -46.1705 C.3       10 UNK        -0.1800 
     24 N          -0.2422  -18.7990  -44.2778 N.am      10 UNK        -0.5000 
     25 C          -0.4826  -19.9030  -43.5523 C.2       9 UNK         0.5000 
     26 O          -0.3304  -21.0440  -43.9858 O.2       9 UNK        -0.5000 
     27 CA         -1.0386  -19.7194  -42.1289 C.3       9 UNK         0.1400 
     28 CB          0.0524  -19.9615  -41.0753 C.3       9 UNK        -0.1800 
     29 N          -1.6581  -18.4100  -41.9172 N.am      9 UNK        -0.5000 
     30 C          -2.8120  -18.0188  -42.4801 C.2       8 UNK         0.5000 
     31 O          -3.4780  -18.7350  -43.2293 O.2       8 UNK        -0.5000 
     32 CA         -3.2857  -16.5819  -42.1836 C.3       8 UNK         0.1400 
     33 CB         -4.2764  -16.5745  -41.0101 C.3       8 UNK        -0.1800 
     34 N          -2.1854  -15.6594  -41.8888 N.am      8 UNK        -0.5000 
     35 C          -1.2700  -15.2653  -42.7844 C.2       7 UNK         0.5000 
     36 O          -1.2964  -15.6121  -43.9649 O.2       7 UNK        -0.5000 
     37 CA         -0.1252  -14.3528  -42.2918 C.3       7 UNK         0.1400 
     38 CB         -0.0347  -14.2273  -40.7540 C.3       7 UNK        -0.1800 
     39 N           1.1732  -14.7538  -42.8442 N.am      7 UNK        -0.5000 
     40 C           1.7615  -15.9502  -42.7191 C.2       6 UNK         0.5000 
     41 O           1.2754  -16.9036  -42.1058 O.2       6 UNK        -0.5000 
     42 CA          3.1338  -16.1010  -43.3848 C.3       6 UNK         0.1400 
     43 CB          4.2417  -15.4598  -42.5290 C.3       6 UNK        -0.1800 
     44 N           3.4146  -17.5149  -43.6092 N.am      6 UNK        -0.5000 
     45 C           4.2760  -17.9794  -44.5193 C.2       5 UNK         0.5000 
     46 O           4.9866  -17.2462  -45.2099 O.2       5 UNK        -0.5000 
     47 CA          4.3481  -19.4988  -44.7447 C.3       5 UNK         0.1400 
     48 CB          3.4277  -20.3447  -43.8432 C.3       5 UNK        -0.1800 
     49 N           4.0324  -19.7108  -46.1497 N.am      5 UNK        -0.5000 
     50 C           4.5474  -20.6356  -46.9614 C.2       4 UNK         0.5000 
     51 O           5.2304  -21.5846  -46.5759 O.2       4 UNK        -0.5000 
     52 CA          4.3100  -20.4256  -48.4736 C.3       4 UNK         0.1400 
     53 CB          2.8710  -20.7973  -48.8840 C.3       4 UNK        -0.1800 
     54 N           4.6838  -19.0762  -48.9353 N.am      4 UNK        -0.5000 
     55 C           4.1025  -17.9063  -48.6353 C.2       3 UNK         0.5000 
     56 O           3.0670  -17.8033  -47.9734 O.2       3 UNK        -0.5000 
     57 CA          4.8114  -16.6333  -49.1153 C.3       3 UNK         0.1400 
     58 CB          4.3372  -16.2181  -50.5170 C.3       3 UNK        -0.1800 
     59 N           4.4970  -15.5754  -48.1618 N.am      3 UNK        -0.5000 
     60 C           5.3679  -14.7150  -47.6264 C.2       2 UNK         0.5000 
     61 O           6.5417  -14.6152  -47.9882 O.2       2 UNK        -0.5000 
     62 CA          4.8106  -13.8038  -46.5177 C.3       2 UNK         0.1400 
     63 CB          5.7605  -12.6538  -46.1309 C.3       2 UNK        -0.1800 
     64 N           3.5129  -13.2622  -46.9227 N.am      2 UNK        -0.5000 
     65 C           2.4976  -12.9872  -46.0962 C.2       1 UNK         0.5000 
     66 O           2.5332  -13.1902  -44.8813 O.2       1 UNK        -0.5000 
     67 C          -3.4746  -21.3839  -46.6725 C.2       11 UNK         0.5000 
     68 O          -3.8788  -22.1240  -47.5662 O.2       11 UNK        -0.5000 
     69 N          -3.1023  -21.8209  -45.4617 N.am      12 UNK        -0.5000 
     70 CA         -3.0458  -23.2357  -45.0915 C.3       12 UNK         0.1400 
     71 CB         -2.9986  -23.3632  -43.5609 C.3       12 UNK        -0.1800 
     72 C          -1.8466  -23.9497  -45.7419 C.2       12 UNK         0.5000 
     73 O          -1.9757  -25.0975  -46.1679 O.2       12 UNK        -0.5000 
     74 N          -0.7058  -23.2510  -45.8149 N.am      13 UNK        -0.5000 
     75 CA          0.5275  -23.7262  -46.4375 C.3       13 UNK         0.1400 
     76 CB          1.6867  -22.8194  -46.0012 C.3       13 UNK        -0.1800 
     77 C           0.4449  -23.8112  -47.9735 C.2       13 UNK         0.5000 
     78 O           1.1177  -24.6610  -48.5581 O.2       13 UNK        -0.5000 
     79 N          -0.3631  -22.9382  -48.5948 N.am      14 UNK        -0.5000 
     80 CA         -0.5873  -22.8639  -50.0403 C.3       14 UNK         0.1400 
     81 CB         -1.5258  -21.6877  -50.3582 C.3       14 UNK        -0.1800 
     82 C          -1.1417  -24.1704  -50.6355 C.2       14 UNK         0.5000 
     83 O          -0.5643  -24.6955  -51.5883 O.2       14 UNK        -0.5000 
     84 N          -2.2308  -24.6729  -50.0433 N.am      15 UNK        -0.5000 
     85 CA         -2.9398  -25.8985  -50.4021 C.3       15 UNK         0.1400 
     86 CB         -3.4919  -25.8230  -51.8422 C.3       15 UNK        -0.1800 
     87 C          -4.0980  -26.0926  -49.4140 C.2       15 UNK         0.5000 
     88 O          -4.4491  -25.1612  -48.6837 O.2       15 UNK        -0.5000 
     89 N          -4.7120  -27.2824  -49.4432 N.am      16 UNK        -0.5000 
     90 CA         -5.9649  -27.5798  -48.7485 C.3       16 UNK         0.1400 
     91 CB         -6.2984  -29.0710  -48.9121 C.3       16 UNK        -0.1800 
     92 C          -7.0994  -26.6899  -49.2921 C.2       16 UNK         0.5000 
     93 O          -7.3958  -26.7502  -50.4873 O.2       16 UNK        -0.5000 
     94 N          -7.6582  -25.8461  -48.4137 N.am      17 UNK        -0.5000 
     95 CA         -8.6282  -24.7834  -48.7082 C.3       17 UNK         0.1400 
     96 CB         -9.9636  -25.3705  -49.2133 C.3       17 UNK        -0.1800 
     97 C          -8.0657  -23.6776  -49.6325 C.2       17 UNK         0.5000 
     98 O          -8.8253  -23.0572  -50.3780 O.2       17 UNK        -0.5000 
     99 N          -6.7440  -23.4517  -49.5705 N.am      18 UNK        -0.5000 
    100 CA        -5.9357  -22.4350  -50.2590 C.3       18 UNK         0.1400 
    101 CB        -6.4046  -21.0145  -49.8956 C.3       18 UNK        -0.1800 
    102 C         -5.8063  -22.5955  -51.7853 C.2       18 UNK         0.5000 
    103 O         -4.7639  -22.2271  -52.3289 O.2       18 UNK        -0.5000 
    104 N         -6.8365  -23.1386  -52.4472 N.am      19 UNK        -0.5000 
    105 CA        -6.9530  -23.3805  -53.8874 C.3       19 UNK         0.1400 
    106 CB        -6.0073  -24.5226  -54.3218 C.3       19 UNK        -0.1800 
    107 C         -6.7742  -22.0776  -54.6941 C.2       19 UNK         0.5000 
    108 O         -7.6912  -21.2556  -54.7215 O.2       19 UNK        -0.5000 
    109 N         -5.5974  -21.8992  -55.3089 N.am      20 UNK        -0.5000 
    110 CA        -5.1968  -20.6909  -56.0321 C.3       20 UNK         0.1400 
    111 CB        -3.9752  -21.0225  -56.9038 C.3       20 UNK        -0.1800 
    112 C         -4.8867  -19.4916  -55.1120 C.2       20 UNK         0.5000 
    113 O         -4.8198  -18.3646  -55.6063 O.2       20 UNK        -0.5000 
    114 N         -4.6734  -19.7489  -53.8100 N.am      21 UNK        -0.5000 
    115 CA        -4.3987  -18.7769  -52.7432 C.3       21 UNK         0.1400 
    116 CB        -5.6686  -17.9618  -52.4259 C.3       21 UNK        -0.1800 
    117 C         -3.1651  -17.8931  -53.0239 C.2       21 UNK         0.5000 
    118 O         -3.1598  -16.7072  -52.6923 O.2       21 UNK        -0.5000 
    119 N         -2.1557  -18.5002  -53.6620 N.am      22 UNK        -0.5000 
    120 CA        -0.8875  -17.8829  -54.0871 C.3       22 UNK         0.1400 
    121 C         -1.0313  -16.7978  -55.1997 C.2       22 UNK         0.5000 
    122 N         -2.1646  -16.6924  -55.8860 N.am      22 UNK        -0.7600 
    123 O         -0.0885  -16.0608  -55.4762 O.2       22 UNK        -0.5000 
    124 C124       -0.0058  -17.4157  -52.8934 C.3       23 UNK        -0.0398 
    125 S125        0.2880  -18.7693  -51.7000 S.3       23 UNK        -0.2404 
    126 C126        0.5190  -17.8931  -50.1207 C.3       23 UNK        -0.0205 
    127 H127       -0.4872   -8.7566  -44.6788 H         1 UNK         0.0600 
    128 H128        0.8508   -8.5171  -45.8055 H         1 UNK         0.0600 
    129 H129        1.1775   -8.7568  -44.0869 H         1 UNK         0.0600 
    130 H130        1.2830  -10.3035  -46.9892 H         1 UNK         0.3000 
    131 H131        1.4343  -12.3038  -47.8170 H         1 UNK         0.0600 
    132 H132        0.2288  -14.3119  -47.0081 H         1 UNK         0.0800 
    133 H133       -0.2279  -13.4919  -45.5472 H         1 UNK         0.0800 
    134 H134       -0.3169  -12.9841  -49.5036 H         1 UNK         0.0800 
    135 H135       -2.0295  -12.7727  -49.7533 H         1 UNK         0.0800 
    136 H136        0.5234  -15.1922  -49.8115 H         1 UNK         0.1150 
    137 H137       -2.0548  -18.6000  -49.5572 H         1 UNK         0.1150 
    138 H138       -3.5769  -14.6858  -48.6809 H         1 UNK         0.1150 
    139 H139       -5.1066  -16.6374  -49.2187 H         1 UNK         0.0800 
    140 H140       -4.4734  -18.2589  -49.2310 H         1 UNK         0.0800 
    141 H141       -5.4972  -19.5783  -47.2292 H         1 UNK         0.0800 
    142 H142       -4.9557  -19.2845  -45.5992 H         1 UNK         0.0800 
    143 H143       -3.1618  -19.7895  -48.0197 H         1 UNK         0.0600 
    144 H144       -2.4321  -18.6559  -45.4850 H         1 UNK         0.3000 
    145 H145        1.0636  -19.3381  -45.8089 H         1 UNK         0.0600 
    146 H146        1.0920  -16.8383  -45.5722 H         1 UNK         0.0600 
    147 H147        0.6804  -17.3305  -47.2039 H         1 UNK         0.0600 
    148 H148       -0.5816  -16.7713  -46.1349 H         1 UNK         0.0600 
    149 H149       -0.3985  -17.8971  -43.8467 H         1 UNK         0.3000 
    150 H150       -1.8100  -20.4794  -41.9870 H         1 UNK         0.0600 
    151 H151        0.4745  -20.9621  -41.1782 H         1 UNK         0.0600 
    152 H152       -0.3494  -19.8819  -40.0652 H         1 UNK         0.0600 
    153 H153        0.8747  -19.2534  -41.1667 H         1 UNK         0.0600 
    154 H154       -1.1383  -17.7484  -41.3578 H         1 UNK         0.3000 
    155 H155       -3.8059  -16.2186  -43.0727 H         1 UNK         0.0600 
    156 H156       -3.8079  -16.9121  -40.0848 H         1 UNK         0.0600 
    157 H157       -5.1222  -17.2340  -41.2095 H         1 UNK         0.0600 
    158 H158       -4.6785  -15.5757  -40.8391 H         1 UNK         0.0600 
    159 H159       -2.1032  -15.3383  -40.9351 H         1 UNK         0.3000 
    160 H160       -0.3382  -13.3624  -42.6925 H         1 UNK         0.0600 
    161 H161        0.1181  -15.1936  -40.2717 H         1 UNK         0.0600 
    162 H162       -0.9384  -13.7818  -40.3369 H         1 UNK         0.0600 
    163 H163        0.7957  -13.5821  -40.4666 H         1 UNK         0.0600 
    164 H164        1.6322  -14.0561  -43.4263 H         1 UNK         0.3000 
    165 H165        3.0860  -15.6092  -44.3559 H         1 UNK         0.0600 
    166 H166        5.2121  -15.5206  -43.0215 H         1 UNK         0.0600 
    167 H167        4.0373  -14.4028  -42.3540 H         1 UNK         0.0600 
    168 H168        4.3269  -15.9459  -41.5566 H         1 UNK         0.0600 
    169 H169        2.8219  -18.1471  -43.0863 H         1 UNK         0.3000 
    170 H170        5.3828  -19.7934  -44.5587 H         1 UNK         0.0600 
    171 H171        3.6369  -20.1709  -42.7871 H         1 UNK         0.0600 
    172 H172        2.3759  -20.1295  -44.0182 H         1 UNK         0.0600 
    173 H173        3.5810  -21.4079  -44.0259 H         1 UNK         0.0600 
    174 H174        3.5452  -18.9392  -46.6025 H         1 UNK         0.3000 
    175 H175        4.9807  -21.1090  -48.9969 H         1 UNK         0.0600 
    176 H176        2.6918  -20.5927  -49.9395 H         1 UNK         0.0600 
    177 H177        2.6887  -21.8599  -48.7252 H         1 UNK         0.0600 
    178 H178        2.1240  -20.2525  -48.3069 H         1 UNK         0.0600 
    179 H179        5.5400  -19.0448  -49.4714 H         1 UNK         0.3000 
    180 H180        5.8863  -16.8247  -49.1351 H         1 UNK         0.0600 
    181 H181        3.2819  -15.9459  -50.5233 H         1 UNK         0.0600 
    182 H182        4.4761  -17.0262  -51.2362 H         1 UNK         0.0600 
    183 H183        4.9015  -15.3589  -50.8794 H         1 UNK         0.0600 
    184 H184        3.5761  -15.6586  -47.7510 H         1 UNK         0.3000 
    185 H185        4.6836  -14.4427  -45.6423 H         1 UNK         0.0600 
    186 H186        6.7263  -13.0370  -45.7996 H         1 UNK         0.0600 
    187 H187        5.9401  -11.9830  -46.9717 H         1 UNK         0.0600 
    188 H188        5.3506  -12.0629  -45.3117 H         1 UNK         0.0600 
    189 H189        3.4121  -13.0838  -47.9129 H         1 UNK         0.3000 
    190 H190       -2.7540  -21.1542  -44.7881 H         1 UNK         0.3000 
    191 H191       -3.9571  -23.7241  -45.4442 H         1 UNK         0.0600 
    192 H192       -2.1015  -22.9067  -43.1422 H         1 UNK         0.0600 
    193 H193       -3.0029  -24.4112  -43.2589 H         1 UNK         0.0600 
    194 H194       -3.8640  -22.8880  -43.0985 H         1 UNK         0.0600 
    195 H195       -0.6634  -22.3392  -45.3687 H         1 UNK         0.3000 
    196 H196        0.7282  -24.7325  -46.0639 H         1 UNK         0.0600 
    197 H197        2.6315  -23.1532  -46.4316 H         1 UNK         0.0600 
    198 H198        1.8017  -22.8285  -44.9176 H         1 UNK         0.0600 
    199 H199        1.5276  -21.7861  -46.3100 H         1 UNK         0.0600 
    200 H200       -0.7906  -22.2070  -48.0378 H         1 UNK         0.3000 
    201 H201        0.3777  -22.6632  -50.5102 H         1 UNK         0.0600 
    202 H202       -1.1013  -20.7466  -50.0143 H         1 UNK         0.0600 
    203 H203       -2.5012  -21.8046  -49.8866 H         1 UNK         0.0600 
    204 H204       -1.6907  -21.5955  -51.4326 H         1 UNK         0.0600 
    205 H205       -2.6347  -24.1902  -49.2476 H         1 UNK         0.3000 
    206 H206       -2.2536  -26.7419  -50.3072 H         1 UNK         0.0600 
    207 H207       -2.6968  -25.7760  -52.5850 H         1 UNK         0.0600 
    208 H208       -4.0954  -26.6976  -52.0872 H         1 UNK         0.0600 
    209 H209       -4.1233  -24.9463  -51.9743 H         1 UNK         0.0600 
    210 H210       -4.3848  -27.9854  -50.0895 H         1 UNK         0.3000 
    211 H211       -5.8217  -27.3761  -47.6851 H         1 UNK         0.0600 
    212 H212       -6.4232  -29.3449  -49.9605 H         1 UNK         0.0600 
    213 H213       -7.2257  -29.3209  -48.3950 H         1 UNK         0.0600 
    214 H214       -5.5128  -29.6994  -48.4921 H         1 UNK         0.0600 
    215 H215       -7.3223  -25.8656  -47.4605 H         1 UNK         0.3000 
    216 H216       -8.8317  -24.2929  -47.7554 H         1 UNK         0.0600 
    217 H217      -10.7327  -24.5993  -49.2696 H         1 UNK         0.0600 
    218 H218      -10.3330  -26.1456  -48.5420 H         1 UNK         0.0600 
    219 H219       -9.8674  -25.8054  -50.2084 H         1 UNK         0.0600 
    220 H220       -6.1941  -24.0652  -48.9772 H         1 UNK         0.3000 
    221 H221       -4.9277  -22.5615  -49.8651 H         1 UNK         0.0600 
    222 H222       -7.3594  -20.7691  -50.3616 H         1 UNK         0.0600 
    223 H223       -6.5211  -20.9056  -48.8185 H         1 UNK         0.0600 
    224 H224       -5.6795  -20.2704  -50.2233 H         1 UNK         0.0600 
    225 H225       -7.6720  -23.3229  -51.8999 H         1 UNK         0.3000 
    226 H226       -7.9761  -23.7158  -54.0633 H         1 UNK         0.0600 
    227 H227       -6.2310  -25.4388  -53.7749 H         1 UNK         0.0600 
    228 H228       -6.1250  -24.7450  -55.3831 H         1 UNK         0.0600 
    229 H229       -4.9576  -24.2862  -54.1474 H         1 UNK         0.0600 
    230 H230       -4.8943  -22.6165  -55.2052 H         1 UNK         0.3000 
    231 H231       -6.0169  -20.3945  -56.6894 H         1 UNK         0.0600 
    232 H232       -4.1998  -21.8220  -57.6101 H         1 UNK         0.0600 
    233 H233       -3.1229  -21.3364  -56.2999 H         1 UNK         0.0600 
    234 H234       -3.6624  -20.1552  -57.4868 H         1 UNK         0.0600 
    235 H235       -4.7188  -20.7171  -53.5015 H         1 UNK         0.3000 
    236 H236       -4.1475  -19.3596  -51.8562 H         1 UNK         0.0600 
    237 H237       -5.9625  -17.3316  -53.2657 H         1 UNK         0.0600 
    238 H238       -6.5071  -18.6166  -52.1885 H         1 UNK         0.0600 
    239 H239       -5.5136  -17.3088  -51.5672 H         1 UNK         0.0600 
    240 H240       -2.2688  -19.4733  -53.9033 H         1 UNK         0.3000 
    241 H241       -0.3407  -18.6874  -54.5799 H         1 UNK         0.0600 
    242 H242       -2.9624  -17.2785  -55.6715 H         1 UNK         0.3800 
    243 H243       -2.2398  -15.9958  -56.6102 H         1 UNK         0.3800 
    244 H244       -0.4723  -16.5664  -52.3944 H         1 UNK         0.0800 
    245 H245        0.9669  -17.0674  -53.2438 H         1 UNK         0.0800 
    246 H246        1.4442  -17.3218  -50.1751 H         1 UNK         0.0800 
    247 H247        0.6668  -18.6330  -49.3342 H         1 UNK         0.0800 
@<TRIPOS>BOND
     1    1    2 1    
     2    1  127 1    
     3    1  128 1    
     4    1  129 1    
     5    2    3 2    
     6    2    4 am   BACKBONE|DICT|INTERRES
     7    4    5 1    
     8    4  130 1    
     9    5    6 1    
    10    5   65 1    
    11    5  131 1    
    12    6    7 1    
    13    6  132 1    
    14    6  133 1    
    15    7    8 1    
    16    8    9 1    
    17    8  134 1    
    18    8  135 1    
    19    9   10 ar   
    20    9   14 ar   
    21   10   11 ar   
    22   10  136 1    
    23   11   12 ar   
    24   11  126 1    
    25   12   13 ar   
    26   12  137 1    
    27   13   14 ar   
    28   13   15 1    
    29   14  138 1    
    30   15   16 1    
    31   15  139 1    
    32   15  140 1    
    33   16   17 1    
    34   17   18 1    
    35   17  141 1    
    36   17  142 1    
    37   18   19 1    
    38   18   67 1    
    39   18  143 1    
    40   19   20 am   BACKBONE|DICT|INTERRES
    41   19  144 1    
    42   20   21 2    
    43   20   22 1    
    44   22   23 1    
    45   22   24 1    
    46   22  145 1    
    47   23  146 1    
    48   23  147 1    
    49   23  148 1    
    50   24   25 am   BACKBONE|DICT|INTERRES
    51   24  149 1    
    52   25   26 2    
    53   25   27 1    
    54   27   28 1    
    55   27   29 1    
    56   27  150 1    
    57   28  151 1    
    58   28  152 1    
    59   28  153 1    
    60   29   30 am   BACKBONE|DICT|INTERRES
    61   29  154 1    
    62   30   31 2    
    63   30   32 1    
    64   32   33 1    
    65   32   34 1    
    66   32  155 1    
    67   33  156 1    
    68   33  157 1    
    69   33  158 1    
    70   34   35 am   BACKBONE|DICT|INTERRES
    71   34  159 1    
    72   35   36 2    
    73   35   37 1    
    74   37   38 1    
    75   37   39 1    
    76   37  160 1    
    77   38  161 1    
    78   38  162 1    
    79   38  163 1    
    80   39   40 am   BACKBONE|DICT|INTERRES
    81   39  164 1    
    82   40   41 2    
    83   40   42 1    
    84   42   43 1    
    85   42   44 1    
    86   42  165 1    
    87   43  166 1    
    88   43  167 1    
    89   43  168 1    
    90   44   45 am   BACKBONE|DICT|INTERRES
    91   44  169 1    
    92   45   46 2    
    93   45   47 1    
    94   47   48 1    
    95   47   49 1    
    96   47  170 1    
    97   48  171 1    
    98   48  172 1    
    99   48  173 1    
   100   49   50 am   BACKBONE|DICT|INTERRES
   101   49  174 1    
   102   50   51 2    
   103   50   52 1    
   104   52   53 1    
   105   52   54 1    
   106   52  175 1    
   107   53  176 1    
   108   53  177 1    
   109   53  178 1    
   110   54   55 am   BACKBONE|DICT|INTERRES
   111   54  179 1    
   112   55   56 2    
   113   55   57 1    
   114   57   58 1    
   115   57   59 1    
   116   57  180 1    
   117   58  181 1    
   118   58  182 1    
   119   58  183 1    
   120   59   60 am   BACKBONE|DICT|INTERRES
   121   59  184 1    
   122   60   61 2    
   123   60   62 1    
   124   62   63 1    
   125   62   64 1    
   126   62  185 1    
   127   63  186 1    
   128   63  187 1    
   129   63  188 1    
   130   64   65 am   BACKBONE|DICT|INTERRES
   131   64  189 1    
   132   65   66 2    
   133   67   68 2    
   134   67   69 am   BACKBONE|DICT|INTERRES
   135   69   70 1    
   136   69  190 1    
   137   70   71 1    
   138   70   72 1    
   139   70  191 1    
   140   71  192 1    
   141   71  193 1    
   142   71  194 1    
   143   72   73 2    
   144   72   74 am   BACKBONE|DICT|INTERRES
   145   74   75 1    
   146   74  195 1    
   147   75   76 1    
   148   75   77 1    
   149   75  196 1    
   150   76  197 1    
   151   76  198 1    
   152   76  199 1    
   153   77   78 2    
   154   77   79 am   BACKBONE|DICT|INTERRES
   155   79   80 1    
   156   79  200 1    
   157   80   81 1    
   158   80   82 1    
   159   80  201 1    
   160   81  202 1    
   161   81  203 1    
   162   81  204 1    
   163   82   83 2    
   164   82   84 am   BACKBONE|DICT|INTERRES
   165   84   85 1    
   166   84  205 1    
   167   85   86 1    
   168   85   87 1    
   169   85  206 1    
   170   86  207 1    
   171   86  208 1    
   172   86  209 1    
   173   87   88 2    
   174   87   89 am   BACKBONE|DICT|INTERRES
   175   89   90 1    
   176   89  210 1    
   177   90   91 1    
   178   90   92 1    
   179   90  211 1    
   180   91  212 1    
   181   91  213 1    
   182   91  214 1    
   183   92   93 2    
   184   92   94 am   BACKBONE|DICT|INTERRES
   185   94   95 1    
   186   94  215 1    
   187   95   96 1    
   188   95   97 1    
   189   95  216 1    
   190   96  217 1    
   191   96  218 1    
   192   96  219 1    
   193   97   98 2    
   194   97   99 am   BACKBONE|DICT|INTERRES
   195   99  100 1    
   196   99  220 1    
   197  100  101 1    
   198  100  102 1    
   199  100  221 1    
   200  101  222 1    
   201  101  223 1    
   202  101  224 1    
   203  102  103 2    
   204  102  104 am   BACKBONE|DICT|INTERRES
   205  104  105 1    
   206  104  225 1    
   207  105  106 1    
   208  105  107 1    
   209  105  226 1    
   210  106  227 1    
   211  106  228 1    
   212  106  229 1    
   213  107  108 2    
   214  107  109 am   BACKBONE|DICT|INTERRES
   215  109  110 1    
   216  109  230 1    
   217  110  111 1    
   218  110  112 1    
   219  110  231 1    
   220  111  232 1    
   221  111  233 1    
   222  111  234 1    
   223  112  113 2    
   224  112  114 am   BACKBONE|DICT|INTERRES
   225  114  115 1    
   226  114  235 1    
   227  115  116 1    
   228  115  117 1    
   229  115  236 1    
   230  116  237 1    
   231  116  238 1    
   232  116  239 1    
   233  117  118 2    
   234  117  119 am   BACKBONE|DICT|INTERRES
   235  119  120 1    
   236  119  240 1    
   237  120  121 1    
   238  120  124 1    
   239  120  241 1    
   240  121  122 am   BACKBONE|DICT|INTERRES
   241  121  123 2    
   242  122  242 1    
   243  122  243 1    
   244  124  125 1    
   245  124  244 1    
   246  124  245 1    
   247  125  126 1    
   248  126  246 1    
   249  126  247 1    
@<TRIPOS>SUBSTRUCTURE
     1 UNK         1 GROUP             0       ****    0 ROOT    
