@<TRIPOS>MOLECULE
3R540
247   249    1
SMALL
USER_CHARGES


@<TRIPOS>ATOM
      1 CA          0.5928  -10.4291  -50.9297 C.3       0 UNK        -0.1800 
      2 C           1.5076  -10.7189  -49.7482 C.2       0 UNK         0.5000 
      3 O           2.5564  -10.0880  -49.6160 O.2       0 UNK        -0.5000 
      4 N           1.1137  -11.6704  -48.8920 N.am      1 UNK        -0.5000 
      5 CA          1.8616  -12.0857  -47.6968 C.3       1 UNK         0.1400 
      6 C6          1.3916  -13.4630  -47.1722 C.3       23 UNK        -0.0398 
      7 S7          1.7844  -14.8062  -48.3403 S.3       23 UNK        -0.2404 
      8 C8          0.1405  -15.1810  -49.0255 C.3       23 UNK        -0.0205 
      9 C9          0.1682  -16.4037  -49.9296 C.ar      23 UNK        -0.0193 
     10 C10        -0.2413  -16.3100  -51.2627 C.ar      23 UNK        -0.1150 
     11 C11        -0.2534  -17.4419  -52.0838 C.ar      23 UNK        -0.0193 
     12 C12         0.1541  -18.6744  -51.5636 C.ar      23 UNK        -0.1150 
     13 C13         0.5794  -18.7782  -50.2354 C.ar      23 UNK        -0.0193 
     14 C14         0.5828  -17.6396  -49.4261 C.ar      23 UNK        -0.1150 
     15 C15         1.0628  -20.1082  -49.6782 C.3       23 UNK        -0.0205 
     16 S16        -0.0015  -20.7031  -48.3300 S.3       23 UNK        -0.2404 
     17 C17         0.8126  -22.2905  -47.9591 C.3       23 UNK        -0.0398 
     18 CA          0.0923  -23.1855  -46.9217 C.3       11 UNK         0.1400 
     19 N           0.1891  -22.6875  -45.5446 N.am      11 UNK        -0.5000 
     20 C          -0.0186  -23.4710  -44.4747 C.2       10 UNK         0.5000 
     21 O          -0.3205  -24.6609  -44.5557 O.2       10 UNK        -0.5000 
     22 CA          0.0858  -22.8291  -43.0827 C.3       10 UNK         0.1400 
     23 CB          1.5525  -22.5884  -42.6960 C.3       10 UNK        -0.1800 
     24 N          -0.6812  -21.5907  -42.9692 N.am      10 UNK        -0.5000 
     25 C          -2.0128  -21.5089  -43.1039 C.2       9 UNK         0.5000 
     26 O          -2.7394  -22.4774  -43.3281 O.2       9 UNK        -0.5000 
     27 CA         -2.6358  -20.1049  -43.0063 C.3       9 UNK         0.1400 
     28 CB         -2.8019  -19.6815  -41.5394 C.3       9 UNK        -0.1800 
     29 N          -1.8586  -19.0951  -43.7236 N.am      9 UNK        -0.5000 
     30 C          -1.6557  -19.0944  -45.0486 C.2       8 UNK         0.5000 
     31 O          -2.1510  -19.9206  -45.8134 O.2       8 UNK        -0.5000 
     32 CA         -0.6986  -18.0211  -45.5990 C.3       8 UNK         0.1400 
     33 CB         -1.3881  -16.6510  -45.6864 C.3       8 UNK        -0.1800 
     34 N           0.5193  -17.9039  -44.7974 N.am      8 UNK        -0.5000 
     35 C           1.4220  -18.8820  -44.6320 C.2       7 UNK         0.5000 
     36 O           1.3588  -19.9833  -45.1791 O.2       7 UNK        -0.5000 
     37 CA          2.5604  -18.5941  -43.6392 C.3       7 UNK         0.1400 
     38 CB          3.6887  -17.7988  -44.3138 C.3       7 UNK        -0.1800 
     39 N           2.0800  -17.8750  -42.4576 N.am      7 UNK        -0.5000 
     40 C           1.2941  -18.4191  -41.5161 C.2       6 UNK         0.5000 
     41 O           0.9263  -19.5926  -41.5300 O.2       6 UNK        -0.5000 
     42 CA          0.7975  -17.4877  -40.3950 C.3       6 UNK         0.1400 
     43 CB          1.8464  -17.3755  -39.2788 C.3       6 UNK        -0.1800 
     44 N           0.4617  -16.1500  -40.8819 N.am      6 UNK        -0.5000 
     45 C          -0.5298  -15.8801  -41.7432 C.2       5 UNK         0.5000 
     46 O          -1.3096  -16.7300  -42.1702 O.2       5 UNK        -0.5000 
     47 CA         -0.6384  -14.4295  -42.2489 C.3       5 UNK         0.1400 
     48 CB         -1.6323  -13.6295  -41.3952 C.3       5 UNK        -0.1800 
     49 N           0.6478  -13.7311  -42.2677 N.am      5 UNK        -0.5000 
     50 C           1.6943  -14.0541  -43.0377 C.2       4 UNK         0.5000 
     51 O           1.6754  -14.9943  -43.8343 O.2       4 UNK        -0.5000 
     52 CA          2.9655  -13.1946  -42.8622 C.3       4 UNK         0.1400 
     53 CB          4.0588  -13.5166  -43.8965 C.3       4 UNK        -0.1800 
     54 N           2.6740  -11.7574  -42.8890 N.am      4 UNK        -0.5000 
     55 C           2.2075  -11.0474  -41.8502 C.2       3 UNK         0.5000 
     56 O           1.9672  -11.5471  -40.7502 O.2       3 UNK        -0.5000 
     57 CA          1.9304   -9.5465  -42.0646 C.3       3 UNK         0.1400 
     58 CB          3.1149   -8.7067  -41.5632 C.3       3 UNK        -0.1800 
     59 N           1.6508   -9.1888  -43.4547 N.am      3 UNK        -0.5000 
     60 C           0.5621   -9.5527  -44.1454 C.2       2 UNK         0.5000 
     61 O          -0.3549  -10.2265  -43.6738 O.2       2 UNK        -0.5000 
     62 CA          0.4891   -9.1076  -45.6215 C.3       2 UNK         0.1400 
     63 CB          1.4110   -7.9153  -45.9629 C.3       2 UNK        -0.1800 
     64 N           0.7406  -10.2172  -46.5460 N.am      2 UNK        -0.5000 
     65 C           1.8107  -11.0286  -46.5731 C.2       1 UNK         0.5000 
     66 O           2.7423  -10.9643  -45.7693 O.2       1 UNK        -0.5000 
     67 C          -1.3553  -23.5447  -47.3210 C.2       11 UNK         0.5000 
     68 O          -1.5499  -24.5079  -48.0668 O.2       11 UNK        -0.5000 
     69 N          -2.3439  -22.8052  -46.7936 N.am      12 UNK        -0.5000 
     70 CA         -3.7689  -23.1001  -46.9445 C.3       12 UNK         0.1400 
     71 CB         -4.6142  -21.9434  -46.3940 C.3       12 UNK        -0.1800 
     72 C          -4.1614  -24.4349  -46.2889 C.2       12 UNK         0.5000 
     73 O          -4.8738  -25.2256  -46.9067 O.2       12 UNK        -0.5000 
     74 N          -3.6602  -24.6812  -45.0720 N.am      13 UNK        -0.5000 
     75 CA         -3.8545  -25.9355  -44.3471 C.3       13 UNK         0.1400 
     76 CB         -3.4018  -25.7585  -42.8896 C.3       13 UNK        -0.1800 
     77 C          -3.1265  -27.1229  -45.0050 C.2       13 UNK         0.5000 
     78 O          -3.6979  -28.2107  -45.0910 O.2       13 UNK        -0.5000 
     79 N          -1.8807  -26.8982  -45.4433 N.am      14 UNK        -0.5000 
     80 CA         -1.0058  -27.9295  -45.9956 C.3       14 UNK         0.1400 
     81 CB          0.4506  -27.4404  -45.9656 C.3       14 UNK        -0.1800 
     82 C          -1.3857  -28.3768  -47.4167 C.2       14 UNK         0.5000 
     83 O          -1.3806  -29.5802  -47.6817 O.2       14 UNK        -0.5000 
     84 N          -1.6602  -27.4202  -48.3149 N.am      15 UNK        -0.5000 
     85 CA         -1.7586  -27.6812  -49.7540 C.3       15 UNK         0.1400 
     86 CB         -0.3430  -27.6779  -50.3684 C.3       15 UNK        -0.1800 
     87 C          -2.7069  -26.7119  -50.4797 C.2       15 UNK         0.5000 
     88 O          -2.5212  -26.4717  -51.6742 O.2       15 UNK        -0.5000 
     89 N          -3.6924  -26.1487  -49.7626 N.am      16 UNK        -0.5000 
     90 CA         -4.7167  -25.2194  -50.2689 C.3       16 UNK         0.1400 
     91 CB         -5.6909  -25.9582  -51.2106 C.3       16 UNK        -0.1800 
     92 C          -4.1384  -23.9378  -50.9118 C.2       16 UNK         0.5000 
     93 O          -4.7737  -23.3570  -51.7915 O.2       16 UNK        -0.5000 
     94 N          -2.9314  -23.5423  -50.4747 N.am      17 UNK        -0.5000 
     95 CA         -2.1069  -22.4464  -50.9956 C.3       17 UNK         0.1400 
     96 CB         -2.7889  -21.0856  -50.7420 C.3       17 UNK        -0.1800 
     97 C          -1.6872  -22.6468  -52.4692 C.2       17 UNK         0.5000 
     98 O          -1.4564  -21.6679  -53.1789 O.2       17 UNK        -0.5000 
     99 N          -1.6264  -23.9138  -52.9124 N.am      18 UNK        -0.5000 
    100 CA        -1.4616  -24.4123  -54.2854 C.3       18 UNK         0.1400 
    101 CB        -0.1887  -23.8712  -54.9644 C.3       18 UNK        -0.1800 
    102 C         -2.7178  -24.1923  -55.1517 C.2       18 UNK         0.5000 
    103 O         -3.1656  -25.1241  -55.8211 O.2       18 UNK        -0.5000 
    104 N         -3.2899  -22.9888  -55.0848 N.am      19 UNK        -0.5000 
    105 CA        -4.6085  -22.6287  -55.5801 C.3       19 UNK         0.1400 
    106 CB        -4.5049  -22.0919  -57.0171 C.3       19 UNK        -0.1800 
    107 C         -5.1565  -21.5631  -54.6255 C.2       19 UNK         0.5000 
    108 O         -4.4114  -20.6562  -54.2502 O.2       19 UNK        -0.5000 
    109 N         -6.4424  -21.6616  -54.2665 N.am      20 UNK        -0.5000 
    110 CA        -7.0922  -20.7917  -53.2775 C.3       20 UNK         0.1400 
    111 CB        -8.5033  -21.3265  -52.9899 C.3       20 UNK        -0.1800 
    112 C         -7.1485  -19.3043  -53.6833 C.2       20 UNK         0.5000 
    113 O         -7.1552  -18.4351  -52.8111 O.2       20 UNK        -0.5000 
    114 N         -7.1698  -19.0465  -54.9967 N.am      21 UNK        -0.5000 
    115 CA        -7.1212  -17.7134  -55.5985 C.3       21 UNK         0.1400 
    116 CB        -8.0863  -17.6931  -56.7965 C.3       21 UNK        -0.1800 
    117 C         -5.6962  -17.3106  -56.0367 C.2       21 UNK         0.5000 
    118 O         -5.5359  -16.2345  -56.6140 O.2       21 UNK        -0.5000 
    119 N         -4.6981  -18.1748  -55.7943 N.am      22 UNK        -0.5000 
    120 CA        -3.2887  -18.0341  -56.2097 C.3       22 UNK         0.1400 
    121 C         -3.0500  -18.0927  -57.7521 C.2       22 UNK         0.5000 
    122 N         -4.0068  -18.5375  -58.5581 N.am      22 UNK        -0.7600 
    123 O         -1.9671  -17.7663  -58.2307 O.2       22 UNK        -0.5000 
    124 C124       -2.5699  -16.8302  -55.5362 C.3       23 UNK        -0.0398 
    125 S125       -2.4567  -17.0097  -53.7221 S.3       23 UNK        -0.2404 
    126 C126       -0.6718  -17.3212  -53.5410 C.3       23 UNK        -0.0205 
    127 H127       -0.2901  -11.0688  -50.9265 H         1 UNK         0.0600 
    128 H128        1.1265  -10.5924  -51.8660 H         1 UNK         0.0600 
    129 H129        0.2610   -9.3912  -50.9015 H         1 UNK         0.0600 
    130 H130        0.2475  -12.1589  -49.0631 H         1 UNK         0.3000 
    131 H131        2.9130  -12.1796  -47.9786 H         1 UNK         0.0600 
    132 H132        1.8903  -13.7104  -46.2351 H         1 UNK         0.0800 
    133 H133        0.3239  -13.4541  -46.9468 H         1 UNK         0.0800 
    134 H134       -0.5671  -15.3635  -48.2179 H         1 UNK         0.0800 
    135 H135       -0.2258  -14.3094  -49.5690 H         1 UNK         0.0800 
    136 H136       -0.5591  -15.3582  -51.6649 H         1 UNK         0.1150 
    137 H137        0.1491  -19.5510  -52.1968 H         1 UNK         0.1150 
    138 H138        0.9147  -17.7153  -48.4005 H         1 UNK         0.1150 
    139 H139        1.0999  -20.8622  -50.4660 H         1 UNK         0.0800 
    140 H140        2.0823  -19.9910  -49.3079 H         1 UNK         0.0800 
    141 H141        1.8274  -22.0814  -47.6173 H         1 UNK         0.0800 
    142 H142        0.9234  -22.8416  -48.8945 H         1 UNK         0.0800 
    143 H143        0.6381  -24.1313  -46.9356 H         1 UNK         0.0600 
    144 H144        0.4407  -21.7099  -45.4198 H         1 UNK         0.3000 
    145 H145       -0.3336  -23.5374  -42.3651 H         1 UNK         0.0600 
    146 H146        1.6359  -22.2358  -41.6681 H         1 UNK         0.0600 
    147 H147        2.1313  -23.5099  -42.7696 H         1 UNK         0.0600 
    148 H148        2.0267  -21.8515  -43.3433 H         1 UNK         0.0600 
    149 H149       -0.1575  -20.7535  -42.7348 H         1 UNK         0.3000 
    150 H150       -3.6271  -20.1483  -43.4618 H         1 UNK         0.0600 
    151 H151       -3.3961  -20.4106  -40.9872 H         1 UNK         0.0600 
    152 H152       -3.3111  -18.7206  -41.4624 H         1 UNK         0.0600 
    153 H153       -1.8398  -19.5904  -41.0346 H         1 UNK         0.0600 
    154 H154       -1.4630  -18.3428  -43.1661 H         1 UNK         0.3000 
    155 H155       -0.4038  -18.3182  -46.6054 H         1 UNK         0.0600 
    156 H156       -1.8479  -16.3641  -44.7412 H         1 UNK         0.0600 
    157 H157       -0.6808  -15.8681  -45.9588 H         1 UNK         0.0600 
    158 H158       -2.1757  -16.6638  -46.4404 H         1 UNK         0.0600 
    159 H159        0.6717  -17.0252  -44.3196 H         1 UNK         0.3000 
    160 H160        2.9721  -19.5509  -43.3115 H         1 UNK         0.0600 
    161 H161        3.3375  -16.8436  -44.7043 H         1 UNK         0.0600 
    162 H162        4.1066  -18.3574  -45.1521 H         1 UNK         0.0600 
    163 H163        4.5033  -17.5990  -43.6177 H         1 UNK         0.0600 
    164 H164        2.2916  -16.8890  -42.4098 H         1 UNK         0.3000 
    165 H165       -0.1069  -17.9296  -39.9715 H         1 UNK         0.0600 
    166 H166        1.4729  -16.7804  -38.4452 H         1 UNK         0.0600 
    167 H167        2.1026  -18.3599  -38.8847 H         1 UNK         0.0600 
    168 H168        2.7683  -16.9142  -39.6350 H         1 UNK         0.0600 
    169 H169        1.0490  -15.3894  -40.5739 H         1 UNK         0.3000 
    170 H170       -1.0154  -14.4641  -43.2729 H         1 UNK         0.0600 
    171 H171       -2.6114  -14.1103  -41.3819 H         1 UNK         0.0600 
    172 H172       -1.2949  -13.5400  -40.3618 H         1 UNK         0.0600 
    173 H173       -1.7699  -12.6231  -41.7919 H         1 UNK         0.0600 
    174 H174        0.7593  -12.9526  -41.6278 H         1 UNK         0.3000 
    175 H175        3.3744  -13.4477  -41.8819 H         1 UNK         0.0600 
    176 H176        4.9610  -12.9351  -43.7068 H         1 UNK         0.0600 
    177 H177        3.7352  -13.3030  -44.9138 H         1 UNK         0.0600 
    178 H178        4.3401  -14.5695  -43.8561 H         1 UNK         0.0600 
    179 H179        2.7855  -11.2956  -43.7869 H         1 UNK         0.3000 
    180 H180        1.0528   -9.2885  -41.4682 H         1 UNK         0.0600 
    181 H181        4.0206   -8.9056  -42.1376 H         1 UNK         0.0600 
    182 H182        3.3347   -8.9257  -40.5173 H         1 UNK         0.0600 
    183 H183        2.9001   -7.6401  -41.6317 H         1 UNK         0.0600 
    184 H184        2.3666   -8.6656  -43.9378 H         1 UNK         0.3000 
    185 H185       -0.5394   -8.7856  -45.7916 H         1 UNK         0.0600 
    186 H186        1.2263   -7.0708  -45.2975 H         1 UNK         0.0600 
    187 H187        2.4682   -8.1730  -45.8919 H         1 UNK         0.0600 
    188 H188        1.2296   -7.5664  -46.9797 H         1 UNK         0.0600 
    189 H189        0.0257  -10.3695  -47.2428 H         1 UNK         0.3000 
    190 H190       -2.1054  -21.9873  -46.2421 H         1 UNK         0.3000 
    191 H191       -3.9835  -23.1795  -48.0091 H         1 UNK         0.0600 
    192 H192       -4.4113  -21.0187  -46.9345 H         1 UNK         0.0600 
    193 H193       -5.6794  -22.1530  -46.4989 H         1 UNK         0.0600 
    194 H194       -4.4169  -21.7640  -45.3374 H         1 UNK         0.0600 
    195 H195       -3.1170  -23.9614  -44.6045 H         1 UNK         0.3000 
    196 H196       -4.9229  -26.1617  -44.3428 H         1 UNK         0.0600 
    197 H197       -3.5473  -26.6771  -42.3199 H         1 UNK         0.0600 
    198 H198       -3.9727  -24.9734  -42.3934 H         1 UNK         0.0600 
    199 H199       -2.3459  -25.4937  -42.8243 H         1 UNK         0.0600 
    200 H200       -1.4587  -25.9887  -45.2733 H         1 UNK         0.3000 
    201 H201       -1.0704  -28.8063  -45.3475 H         1 UNK         0.0600 
    202 H202        0.7688  -27.2123  -44.9483 H         1 UNK         0.0600 
    203 H203        0.5859  -26.5424  -46.5687 H         1 UNK         0.0600 
    204 H204        1.1279  -28.2020  -46.3542 H         1 UNK         0.0600 
    205 H205       -1.6412  -26.4421  -48.0366 H         1 UNK         0.3000 
    206 H206       -2.1938  -28.6701  -49.9117 H         1 UNK         0.0600 
    207 H207        0.3023  -28.4125  -49.8866 H         1 UNK         0.0600 
    208 H208       -0.3683  -27.9265  -51.4301 H         1 UNK         0.0600 
    209 H209        0.1303  -26.7004  -50.2684 H         1 UNK         0.0600 
    210 H210       -3.7632  -26.3782  -48.7798 H         1 UNK         0.3000 
    211 H211       -5.2951  -24.8850  -49.4089 H         1 UNK         0.0600 
    212 H212       -5.2060  -26.2595  -52.1397 H         1 UNK         0.0600 
    213 H213       -6.5378  -25.3242  -51.4757 H         1 UNK         0.0600 
    214 H214       -6.0948  -26.8528  -50.7368 H         1 UNK         0.0600 
    215 H215       -2.4998  -24.0894  -49.7356 H         1 UNK         0.3000 
    216 H216       -1.1822  -22.4667  -50.4200 H         1 UNK         0.0600 
    217 H217       -2.1202  -20.2606  -50.9853 H         1 UNK         0.0600 
    218 H218       -3.0673  -20.9741  -49.6939 H         1 UNK         0.0600 
    219 H219       -3.6872  -20.9612  -51.3475 H         1 UNK         0.0600 
    220 H220       -1.8880  -24.6423  -52.2549 H         1 UNK         0.3000 
    221 H221       -1.3383  -25.4918  -54.1832 H         1 UNK         0.0600 
    222 H222       -0.2569  -22.8047  -55.1794 H         1 UNK         0.0600 
    223 H223        0.6907  -24.0342  -54.3415 H         1 UNK         0.0600 
    224 H224       -0.0148  -24.3791  -55.9136 H         1 UNK         0.0600 
    225 H225       -2.8581  -22.2841  -54.4910 H         1 UNK         0.3000 
    226 H226       -5.2642  -23.5017  -55.5571 H         1 UNK         0.0600 
    227 H227       -4.1165  -22.8529  -57.6940 H         1 UNK         0.0600 
    228 H228       -5.4826  -21.7890  -57.3933 H         1 UNK         0.0600 
    229 H229       -3.8448  -21.2257  -57.0756 H         1 UNK         0.0600 
    230 H230       -6.9951  -22.4293  -54.6198 H         1 UNK         0.3000 
    231 H231       -6.5105  -20.8536  -52.3549 H         1 UNK         0.0600 
    232 H232       -9.1252  -21.3234  -53.8858 H         1 UNK         0.0600 
    233 H233       -9.0067  -20.7170  -52.2382 H         1 UNK         0.0600 
    234 H234       -8.4675  -22.3468  -52.6072 H         1 UNK         0.0600 
    235 H235       -7.1693  -19.8299  -55.6334 H         1 UNK         0.3000 
    236 H236       -7.4602  -16.9652  -54.8792 H         1 UNK         0.0600 
    237 H237       -9.1005  -17.9486  -56.4888 H         1 UNK         0.0600 
    238 H238       -8.1288  -16.7029  -57.2521 H         1 UNK         0.0600 
    239 H239       -7.7829  -18.3985  -57.5710 H         1 UNK         0.0600 
    240 H240       -4.8939  -19.0125  -55.2568 H         1 UNK         0.3000 
    241 H241       -2.7985  -18.9369  -55.8431 H         1 UNK         0.0600 
    242 H242       -3.8359  -18.5816  -59.5505 H         1 UNK         0.3800 
    243 H243       -4.9022  -18.8125  -58.1908 H         1 UNK         0.3800 
    244 H244       -1.5605  -16.7105  -55.9320 H         1 UNK         0.0800 
    245 H245       -3.0816  -15.8949  -55.7631 H         1 UNK         0.0800 
    246 H246       -0.1112  -16.5065  -54.0017 H         1 UNK         0.0800 
    247 H247       -0.4124  -18.2276  -54.0908 H         1 UNK         0.0800 
@<TRIPOS>BOND
     1    1    2 1    
     2    1  127 1    
     3    1  128 1    
     4    1  129 1    
     5    2    3 2    
     6    2    4 am   BACKBONE|DICT|INTERRES
     7    4    5 1    
     8    4  130 1    
     9    5    6 1    
    10    5   65 1    
    11    5  131 1    
    12    6    7 1    
    13    6  132 1    
    14    6  133 1    
    15    7    8 1    
    16    8    9 1    
    17    8  134 1    
    18    8  135 1    
    19    9   10 ar   
    20    9   14 ar   
    21   10   11 ar   
    22   10  136 1    
    23   11   12 ar   
    24   11  126 1    
    25   12   13 ar   
    26   12  137 1    
    27   13   14 ar   
    28   13   15 1    
    29   14  138 1    
    30   15   16 1    
    31   15  139 1    
    32   15  140 1    
    33   16   17 1    
    34   17   18 1    
    35   17  141 1    
    36   17  142 1    
    37   18   19 1    
    38   18   67 1    
    39   18  143 1    
    40   19   20 am   BACKBONE|DICT|INTERRES
    41   19  144 1    
    42   20   21 2    
    43   20   22 1    
    44   22   23 1    
    45   22   24 1    
    46   22  145 1    
    47   23  146 1    
    48   23  147 1    
    49   23  148 1    
    50   24   25 am   BACKBONE|DICT|INTERRES
    51   24  149 1    
    52   25   26 2    
    53   25   27 1    
    54   27   28 1    
    55   27   29 1    
    56   27  150 1    
    57   28  151 1    
    58   28  152 1    
    59   28  153 1    
    60   29   30 am   BACKBONE|DICT|INTERRES
    61   29  154 1    
    62   30   31 2    
    63   30   32 1    
    64   32   33 1    
    65   32   34 1    
    66   32  155 1    
    67   33  156 1    
    68   33  157 1    
    69   33  158 1    
    70   34   35 am   BACKBONE|DICT|INTERRES
    71   34  159 1    
    72   35   36 2    
    73   35   37 1    
    74   37   38 1    
    75   37   39 1    
    76   37  160 1    
    77   38  161 1    
    78   38  162 1    
    79   38  163 1    
    80   39   40 am   BACKBONE|DICT|INTERRES
    81   39  164 1    
    82   40   41 2    
    83   40   42 1    
    84   42   43 1    
    85   42   44 1    
    86   42  165 1    
    87   43  166 1    
    88   43  167 1    
    89   43  168 1    
    90   44   45 am   BACKBONE|DICT|INTERRES
    91   44  169 1    
    92   45   46 2    
    93   45   47 1    
    94   47   48 1    
    95   47   49 1    
    96   47  170 1    
    97   48  171 1    
    98   48  172 1    
    99   48  173 1    
   100   49   50 am   BACKBONE|DICT|INTERRES
   101   49  174 1    
   102   50   51 2    
   103   50   52 1    
   104   52   53 1    
   105   52   54 1    
   106   52  175 1    
   107   53  176 1    
   108   53  177 1    
   109   53  178 1    
   110   54   55 am   BACKBONE|DICT|INTERRES
   111   54  179 1    
   112   55   56 2    
   113   55   57 1    
   114   57   58 1    
   115   57   59 1    
   116   57  180 1    
   117   58  181 1    
   118   58  182 1    
   119   58  183 1    
   120   59   60 am   BACKBONE|DICT|INTERRES
   121   59  184 1    
   122   60   61 2    
   123   60   62 1    
   124   62   63 1    
   125   62   64 1    
   126   62  185 1    
   127   63  186 1    
   128   63  187 1    
   129   63  188 1    
   130   64   65 am   BACKBONE|DICT|INTERRES
   131   64  189 1    
   132   65   66 2    
   133   67   68 2    
   134   67   69 am   BACKBONE|DICT|INTERRES
   135   69   70 1    
   136   69  190 1    
   137   70   71 1    
   138   70   72 1    
   139   70  191 1    
   140   71  192 1    
   141   71  193 1    
   142   71  194 1    
   143   72   73 2    
   144   72   74 am   BACKBONE|DICT|INTERRES
   145   74   75 1    
   146   74  195 1    
   147   75   76 1    
   148   75   77 1    
   149   75  196 1    
   150   76  197 1    
   151   76  198 1    
   152   76  199 1    
   153   77   78 2    
   154   77   79 am   BACKBONE|DICT|INTERRES
   155   79   80 1    
   156   79  200 1    
   157   80   81 1    
   158   80   82 1    
   159   80  201 1    
   160   81  202 1    
   161   81  203 1    
   162   81  204 1    
   163   82   83 2    
   164   82   84 am   BACKBONE|DICT|INTERRES
   165   84   85 1    
   166   84  205 1    
   167   85   86 1    
   168   85   87 1    
   169   85  206 1    
   170   86  207 1    
   171   86  208 1    
   172   86  209 1    
   173   87   88 2    
   174   87   89 am   BACKBONE|DICT|INTERRES
   175   89   90 1    
   176   89  210 1    
   177   90   91 1    
   178   90   92 1    
   179   90  211 1    
   180   91  212 1    
   181   91  213 1    
   182   91  214 1    
   183   92   93 2    
   184   92   94 am   BACKBONE|DICT|INTERRES
   185   94   95 1    
   186   94  215 1    
   187   95   96 1    
   188   95   97 1    
   189   95  216 1    
   190   96  217 1    
   191   96  218 1    
   192   96  219 1    
   193   97   98 2    
   194   97   99 am   BACKBONE|DICT|INTERRES
   195   99  100 1    
   196   99  220 1    
   197  100  101 1    
   198  100  102 1    
   199  100  221 1    
   200  101  222 1    
   201  101  223 1    
   202  101  224 1    
   203  102  103 2    
   204  102  104 am   BACKBONE|DICT|INTERRES
   205  104  105 1    
   206  104  225 1    
   207  105  106 1    
   208  105  107 1    
   209  105  226 1    
   210  106  227 1    
   211  106  228 1    
   212  106  229 1    
   213  107  108 2    
   214  107  109 am   BACKBONE|DICT|INTERRES
   215  109  110 1    
   216  109  230 1    
   217  110  111 1    
   218  110  112 1    
   219  110  231 1    
   220  111  232 1    
   221  111  233 1    
   222  111  234 1    
   223  112  113 2    
   224  112  114 am   BACKBONE|DICT|INTERRES
   225  114  115 1    
   226  114  235 1    
   227  115  116 1    
   228  115  117 1    
   229  115  236 1    
   230  116  237 1    
   231  116  238 1    
   232  116  239 1    
   233  117  118 2    
   234  117  119 am   BACKBONE|DICT|INTERRES
   235  119  120 1    
   236  119  240 1    
   237  120  121 1    
   238  120  124 1    
   239  120  241 1    
   240  121  122 am   BACKBONE|DICT|INTERRES
   241  121  123 2    
   242  122  242 1    
   243  122  243 1    
   244  124  125 1    
   245  124  244 1    
   246  124  245 1    
   247  125  126 1    
   248  126  246 1    
   249  126  247 1    
@<TRIPOS>SUBSTRUCTURE
     1 UNK         1 GROUP             0       ****    0 ROOT    
