@<TRIPOS>MOLECULE
3R540
247   249    1
SMALL
USER_CHARGES


@<TRIPOS>ATOM
      1 CA         -1.8417  -11.3098  -51.9325 C.3       0 UNK        -0.1800 
      2 C          -1.1037  -11.9873  -50.7865 C.2       0 UNK         0.5000 
      3 O          -0.1779  -11.4043  -50.2227 O.2       0 UNK        -0.5000 
      4 N          -1.5139  -13.2134  -50.4385 N.am      1 UNK        -0.5000 
      5 CA         -0.9049  -14.0405  -49.3841 C.3       1 UNK         0.1400 
      6 C6         -1.1308  -15.5553  -49.6282 C.3       23 UNK        -0.0398 
      7 S7         -0.6551  -16.0746  -51.3118 S.3       23 UNK        -0.2404 
      8 C8          1.0984  -16.5298  -51.1251 C.3       23 UNK        -0.0205 
      9 C9          1.3203  -18.0219  -51.3290 C.ar      23 UNK        -0.0193 
     10 C10         1.0677  -18.6021  -52.5757 C.ar      23 UNK        -0.1150 
     11 C11         1.2777  -19.9677  -52.7816 C.ar      23 UNK        -0.0193 
     12 C12         1.7556  -20.7550  -51.7304 C.ar      23 UNK        -0.1150 
     13 C13         2.0237  -20.1906  -50.4789 C.ar      23 UNK        -0.0193 
     14 C14         1.8066  -18.8187  -50.2884 C.ar      23 UNK        -0.1150 
     15 C15         2.6032  -21.0736  -49.3753 C.3       23 UNK        -0.0205 
     16 S16         2.0651  -20.6286  -47.6915 S.3       23 UNK        -0.2404 
     17 C17         0.3708  -21.3063  -47.6190 C.3       23 UNK        -0.0398 
     18 CA          0.2073  -22.3018  -46.4476 C.3       11 UNK         0.1400 
     19 N           0.5159  -21.6932  -45.1457 N.am      11 UNK        -0.5000 
     20 C           0.6942  -22.3675  -44.0005 C.2       10 UNK         0.5000 
     21 O           0.5623  -23.5874  -43.9014 O.2       10 UNK        -0.5000 
     22 CA          1.0319  -21.5360  -42.7540 C.3       10 UNK         0.1400 
     23 CB          2.5135  -21.1347  -42.7490 C.3       10 UNK        -0.1800 
     24 N           0.1905  -20.3420  -42.6884 N.am      10 UNK        -0.5000 
     25 C          -1.0194  -20.3105  -42.1128 C.2       9 UNK         0.5000 
     26 O          -1.4867  -21.2430  -41.4584 O.2       9 UNK        -0.5000 
     27 CA         -1.8734  -19.0450  -42.3226 C.3       9 UNK         0.1400 
     28 CB         -1.8161  -18.1217  -41.0983 C.3       9 UNK        -0.1800 
     29 N          -1.5142  -18.2990  -43.5318 N.am      9 UNK        -0.5000 
     30 C          -1.8241  -18.7250  -44.7641 C.2       8 UNK         0.5000 
     31 O          -2.4021  -19.7872  -44.9879 O.2       8 UNK        -0.5000 
     32 CA         -1.4211  -17.8434  -45.9574 C.3       8 UNK         0.1400 
     33 CB         -2.5147  -16.8033  -46.2109 C.3       8 UNK        -0.1800 
     34 N          -0.1192  -17.1740  -45.8842 N.am      8 UNK        -0.5000 
     35 C           1.0496  -17.7433  -45.5553 C.2       7 UNK         0.5000 
     36 O           1.1479  -18.8653  -45.0567 O.2       7 UNK        -0.5000 
     37 CA          2.3330  -16.9494  -45.8440 C.3       7 UNK         0.1400 
     38 CB          2.1272  -15.6514  -46.6515 C.3       7 UNK        -0.1800 
     39 N           3.0032  -16.6447  -44.5869 N.am      7 UNK        -0.5000 
     40 C           4.3317  -16.5863  -44.4209 C.2       6 UNK         0.5000 
     41 O           5.1382  -16.8283  -45.3202 O.2       6 UNK        -0.5000 
     42 CA          4.8682  -16.1579  -43.0380 C.3       6 UNK         0.1400 
     43 CB          5.5714  -14.7938  -43.1334 C.3       6 UNK        -0.1800 
     44 N           3.8219  -16.0639  -42.0214 N.am      6 UNK        -0.5000 
     45 C           3.3110  -17.0996  -41.3443 C.2       5 UNK         0.5000 
     46 O           3.7459  -18.2467  -41.4258 O.2       5 UNK        -0.5000 
     47 CA          2.0966  -16.8062  -40.4409 C.3       5 UNK         0.1400 
     48 CB          2.5252  -16.7249  -38.9682 C.3       5 UNK        -0.1800 
     49 N           1.3898  -15.5705  -40.8017 N.am      5 UNK        -0.5000 
     50 C           0.6834  -15.3911  -41.9253 C.2       4 UNK         0.5000 
     51 O           0.5058  -16.2698  -42.7717 O.2       4 UNK        -0.5000 
     52 CA          0.1733  -13.9668  -42.1862 C.3       4 UNK         0.1400 
     53 CB          1.2213  -13.1752  -42.9847 C.3       4 UNK        -0.1800 
     54 N          -1.0770  -13.9698  -42.9398 N.am      4 UNK        -0.5000 
     55 C          -2.2887  -14.1924  -42.4116 C.2       3 UNK         0.5000 
     56 O          -2.4709  -14.4575  -41.2227 O.2       3 UNK        -0.5000 
     57 CA         -3.4925  -14.0406  -43.3631 C.3       3 UNK         0.1400 
     58 CB         -4.7713  -13.5766  -42.6413 C.3       3 UNK        -0.1800 
     59 N          -3.1622  -13.0967  -44.4312 N.am      3 UNK        -0.5000 
     60 C          -3.5286  -13.1924  -45.7127 C.2       2 UNK         0.5000 
     61 O          -4.2937  -14.0563  -46.1437 O.2       2 UNK        -0.5000 
     62 CA         -2.9543  -12.1388  -46.6843 C.3       2 UNK         0.1400 
     63 CB         -1.9352  -11.1670  -46.0437 C.3       2 UNK        -0.1800 
     64 N          -2.3792  -12.7471  -47.8870 N.am      2 UNK        -0.5000 
     65 C          -1.3657  -13.6258  -47.9655 C.2       1 UNK         0.5000 
     66 O          -0.7889  -14.0994  -46.9843 O.2       1 UNK        -0.5000 
     67 C          -1.1678  -23.0069  -46.4787 C.2       11 UNK         0.5000 
     68 O          -1.3608  -23.9063  -47.2949 O.2       11 UNK        -0.5000 
     69 N          -2.0627  -22.6675  -45.5387 N.am      12 UNK        -0.5000 
     70 CA         -3.3142  -23.3697  -45.2387 C.3       12 UNK         0.1400 
     71 CB         -4.0442  -22.6302  -44.1072 C.3       12 UNK        -0.1800 
     72 C          -3.1472  -24.8615  -44.8810 C.2       12 UNK         0.5000 
     73 O          -4.1056  -25.6198  -45.0317 O.2       12 UNK        -0.5000 
     74 N          -1.9380  -25.2846  -44.4780 N.am      13 UNK        -0.5000 
     75 CA         -1.5608  -26.6942  -44.3271 C.3       13 UNK         0.1400 
     76 CB         -0.1682  -26.7798  -43.6860 C.3       13 UNK        -0.1800 
     77 C          -1.5902  -27.4807  -45.6570 C.2       13 UNK         0.5000 
     78 O          -1.7518  -28.7010  -45.6317 O.2       13 UNK        -0.5000 
     79 N          -1.4702  -26.7690  -46.7865 N.am      14 UNK        -0.5000 
     80 CA         -1.6320  -27.2776  -48.1473 C.3       14 UNK         0.1400 
     81 CB         -0.3864  -26.9029  -48.9697 C.3       14 UNK        -0.1800 
     82 C          -2.9481  -26.7671  -48.7764 C.2       14 UNK         0.5000 
     83 O          -3.0449  -26.6698  -50.0009 O.2       14 UNK        -0.5000 
     84 N          -3.9458  -26.4727  -47.9267 N.am      15 UNK        -0.5000 
     85 CA         -5.3253  -26.0951  -48.2409 C.3       15 UNK         0.1400 
     86 CB         -6.0949  -27.3126  -48.8001 C.3       15 UNK        -0.1800 
     87 C          -5.4170  -24.8399  -49.1303 C.2       15 UNK         0.5000 
     88 O          -5.2348  -23.7283  -48.6304 O.2       15 UNK        -0.5000 
     89 N          -5.6939  -25.0389  -50.4271 N.am      16 UNK        -0.5000 
     90 CA         -5.8945  -24.0054  -51.4466 C.3       16 UNK         0.1400 
     91 CB         -6.2589  -24.6836  -52.7757 C.3       16 UNK        -0.1800 
     92 C          -4.7035  -23.0479  -51.6410 C.2       16 UNK         0.5000 
     93 O          -4.9071  -21.9317  -52.1160 O.2       16 UNK        -0.5000 
     94 N          -3.4998  -23.4687  -51.2276 N.am      17 UNK        -0.5000 
     95 CA         -2.2802  -22.6577  -51.2138 C.3       17 UNK         0.1400 
     96 CB         -1.0879  -23.5601  -50.8701 C.3       17 UNK        -0.1800 
     97 C          -2.3346  -21.4301  -50.2768 C.2       17 UNK         0.5000 
     98 O          -1.4659  -20.5667  -50.3724 O.2       17 UNK        -0.5000 
     99 N          -3.3457  -21.3461  -49.3983 N.am      18 UNK        -0.5000 
    100 CA        -3.6571  -20.1380  -48.6328 C.3       18 UNK         0.1400 
    101 CB        -4.7025  -20.4683  -47.5597 C.3       18 UNK        -0.1800 
    102 C         -4.1463  -18.9658  -49.5103 C.2       18 UNK         0.5000 
    103 O         -3.9892  -17.8134  -49.1080 O.2       18 UNK        -0.5000 
    104 N         -4.7340  -19.2681  -50.6767 N.am      19 UNK        -0.5000 
    105 CA        -5.1494  -18.2819  -51.6700 C.3       19 UNK         0.1400 
    106 CB        -6.3882  -18.8093  -52.4118 C.3       19 UNK        -0.1800 
    107 C         -4.0063  -18.0135  -52.6619 C.2       19 UNK         0.5000 
    108 O         -3.1995  -18.9024  -52.9322 O.2       19 UNK        -0.5000 
    109 N         -3.9950  -16.8054  -53.2380 N.am      20 UNK        -0.5000 
    110 CA        -2.9833  -16.3442  -54.1957 C.3       20 UNK         0.1400 
    111 CB        -3.0228  -14.8080  -54.2484 C.3       20 UNK        -0.1800 
    112 C         -3.1113  -16.9509  -55.6095 C.2       20 UNK         0.5000 
    113 O         -2.2675  -16.6679  -56.4611 O.2       20 UNK        -0.5000 
    114 N         -4.1456  -17.7716  -55.8446 N.am      21 UNK        -0.5000 
    115 CA        -4.4599  -18.4326  -57.1159 C.3       21 UNK         0.1400 
    116 CB        -5.7513  -19.2467  -56.9410 C.3       21 UNK        -0.1800 
    117 C         -3.3328  -19.3251  -57.6775 C.2       21 UNK         0.5000 
    118 O         -3.2417  -19.4851  -58.8954 O.2       21 UNK        -0.5000 
    119 N         -2.4886  -19.8682  -56.7920 N.am      22 UNK        -0.5000 
    120 CA        -1.2562  -20.5954  -57.1358 C.3       22 UNK         0.1400 
    121 C         -0.0606  -19.6935  -57.5696 C.2       22 UNK         0.5000 
    122 N         -0.1429  -18.3704  -57.4909 N.am      22 UNK        -0.7600 
    123 O          0.9662  -20.2087  -58.0037 O.2       22 UNK        -0.5000 
    124 C124       -0.8535  -21.6068  -56.0290 C.3       23 UNK        -0.0398 
    125 S125       -0.7847  -20.8922  -54.3507 S.3       23 UNK        -0.2404 
    126 C126        0.9932  -20.5856  -54.1415 C.3       23 UNK        -0.0205 
    127 H127       -1.1546  -11.1110  -52.7549 H         1 UNK         0.0600 
    128 H128       -2.2611  -10.3602  -51.6000 H         1 UNK         0.0600 
    129 H129       -2.6566  -11.9265  -52.3124 H         1 UNK         0.0600 
    130 H130       -2.2659  -13.6500  -50.9518 H         1 UNK         0.3000 
    131 H131        0.1740  -13.8727  -49.4103 H         1 UNK         0.0600 
    132 H132       -0.5872  -16.1596  -48.9003 H         1 UNK         0.0800 
    133 H133       -2.1859  -15.8028  -49.5024 H         1 UNK         0.0800 
    134 H134        1.6789  -15.9847  -51.8705 H         1 UNK         0.0800 
    135 H135        1.4747  -16.2056  -50.1542 H         1 UNK         0.0800 
    136 H136        0.6934  -17.9909  -53.3850 H         1 UNK         0.1150 
    137 H137        1.9259  -21.8102  -51.8910 H         1 UNK         0.1150 
    138 H138        2.0243  -18.3655  -49.3323 H         1 UNK         0.1150 
    139 H139        2.3658  -22.1233  -49.5554 H         1 UNK         0.0800 
    140 H140        3.6899  -20.9937  -49.4179 H         1 UNK         0.0800 
    141 H141       -0.3333  -20.4794  -47.5283 H         1 UNK         0.0800 
    142 H142        0.1469  -21.7974  -48.5667 H         1 UNK         0.0800 
    143 H143        0.9434  -23.0945  -46.5987 H         1 UNK         0.0600 
    144 H144        0.6849  -20.6901  -45.1495 H         1 UNK         0.3000 
    145 H145        0.8567  -22.1630  -41.8770 H         1 UNK         0.0600 
    146 H146        2.7818  -20.6650  -41.8037 H         1 UNK         0.0600 
    147 H147        3.1565  -22.0075  -42.8685 H         1 UNK         0.0600 
    148 H148        2.7530  -20.4366  -43.5519 H         1 UNK         0.0600 
    149 H149        0.4786  -19.5567  -43.2628 H         1 UNK         0.3000 
    150 H150       -2.9092  -19.3758  -42.4281 H         1 UNK         0.0600 
    151 H151       -2.1483  -18.6444  -40.2006 H         1 UNK         0.0600 
    152 H152       -2.4638  -17.2550  -41.2274 H         1 UNK         0.0600 
    153 H153       -0.8079  -17.7624  -40.9100 H         1 UNK         0.0600 
    154 H154       -0.9502  -17.4622  -43.4137 H         1 UNK         0.3000 
    155 H155       -1.3780  -18.4953  -46.8293 H         1 UNK         0.0600 
    156 H156       -2.4114  -16.3486  -47.1928 H         1 UNK         0.0600 
    157 H157       -2.4747  -16.0093  -45.4681 H         1 UNK         0.0600 
    158 H158       -3.5111  -17.2465  -46.1735 H         1 UNK         0.0600 
    159 H159       -0.1024  -16.2196  -46.2206 H         1 UNK         0.3000 
    160 H160        2.9587  -17.6192  -46.4378 H         1 UNK         0.0600 
    161 H161        1.5694  -14.9072  -46.0833 H         1 UNK         0.0600 
    162 H162        1.5935  -15.8398  -47.5834 H         1 UNK         0.0600 
    163 H163        3.0849  -15.2055  -46.9200 H         1 UNK         0.0600 
    164 H164        2.3908  -16.5033  -43.7925 H         1 UNK         0.3000 
    165 H165        5.6047  -16.9016  -42.7262 H         1 UNK         0.0600 
    166 H166        4.8852  -14.0090  -43.4546 H         1 UNK         0.0600 
    167 H167        5.9936  -14.4992  -42.1724 H         1 UNK         0.0600 
    168 H168        6.3929  -14.8249  -43.8503 H         1 UNK         0.0600 
    169 H169        3.4178  -15.1516  -41.8743 H         1 UNK         0.3000 
    170 H170        1.4106  -17.6471  -40.5496 H         1 UNK         0.0600 
    171 H171        3.0323  -17.6395  -38.6576 H         1 UNK         0.0600 
    172 H172        3.2100  -15.8942  -38.7931 H         1 UNK         0.0600 
    173 H173        1.6633  -16.5951  -38.3134 H         1 UNK         0.0600 
    174 H174        1.4922  -14.7972  -40.1598 H         1 UNK         0.3000 
    175 H175        0.0093  -13.4655  -41.2298 H         1 UNK         0.0600 
    176 H176        0.8843  -12.1559  -43.1747 H         1 UNK         0.0600 
    177 H177        2.1635  -13.1062  -42.4398 H         1 UNK         0.0600 
    178 H178        1.4323  -13.6416  -43.9480 H         1 UNK         0.0600 
    179 H179       -0.9993  -13.8400  -43.9381 H         1 UNK         0.3000 
    180 H180       -3.6801  -15.0292  -43.7844 H         1 UNK         0.0600 
    181 H181       -5.6064  -13.4904  -43.3367 H         1 UNK         0.0600 
    182 H182       -5.0677  -14.2872  -41.8688 H         1 UNK         0.0600 
    183 H183       -4.6313  -12.6066  -42.1632 H         1 UNK         0.0600 
    184 H184       -2.5518  -12.3367  -44.1641 H         1 UNK         0.3000 
    185 H185       -3.8063  -11.5458  -47.0194 H         1 UNK         0.0600 
    186 H186       -1.5828  -10.4397  -46.7753 H         1 UNK         0.0600 
    187 H187       -2.3836  -10.5999  -45.2271 H         1 UNK         0.0600 
    188 H188       -1.0592  -11.6867  -45.6532 H         1 UNK         0.0600 
    189 H189       -2.7959  -12.4555  -48.7590 H         1 UNK         0.3000 
    190 H190       -1.8627  -21.8558  -44.9667 H         1 UNK         0.3000 
    191 H191       -3.9344  -23.3356  -46.1357 H         1 UNK         0.0600 
    192 H192       -4.9802  -23.1283  -43.8513 H         1 UNK         0.0600 
    193 H193       -4.2932  -21.6093  -44.3957 H         1 UNK         0.0600 
    194 H194       -3.4369  -22.5839  -43.2023 H         1 UNK         0.0600 
    195 H195       -1.1930  -24.6061  -44.3576 H         1 UNK         0.3000 
    196 H196       -2.2787  -27.1629  -43.6510 H         1 UNK         0.0600 
    197 H197        0.1170  -27.8172  -43.5069 H         1 UNK         0.0600 
    198 H198       -0.1427  -26.2647  -42.7255 H         1 UNK         0.0600 
    199 H199        0.5954  -26.3349  -44.3253 H         1 UNK         0.0600 
    200 H200       -1.3684  -25.7596  -46.7231 H         1 UNK         0.3000 
    201 H201       -1.7050  -28.3666  -48.1387 H         1 UNK         0.0600 
    202 H202        0.5057  -27.3743  -48.5577 H         1 UNK         0.0600 
    203 H203       -0.2154  -25.8276  -48.9757 H         1 UNK         0.0600 
    204 H204       -0.4750  -27.2329  -50.0053 H         1 UNK         0.0600 
    205 H205       -3.7458  -26.5226  -46.9352 H         1 UNK         0.3000 
    206 H206       -5.7923  -25.8244  -47.2928 H         1 UNK         0.0600 
    207 H207       -6.1198  -28.1217  -48.0700 H         1 UNK         0.0600 
    208 H208       -7.1305  -27.0545  -49.0256 H         1 UNK         0.0600 
    209 H209       -5.6435  -27.7088  -49.7103 H         1 UNK         0.0600 
    210 H210       -5.7781  -25.9941  -50.7433 H         1 UNK         0.3000 
    211 H211       -6.7436  -23.3972  -51.1287 H         1 UNK         0.0600 
    212 H212       -5.4573  -25.3351  -53.1262 H         1 UNK         0.0600 
    213 H213       -6.4449  -23.9433  -53.5552 H         1 UNK         0.0600 
    214 H214       -7.1634  -25.2843  -52.6786 H         1 UNK         0.0600 
    215 H215       -3.4293  -24.4001  -50.8381 H         1 UNK         0.3000 
    216 H216       -2.1363  -22.2748  -52.2241 H         1 UNK         0.0600 
    217 H217       -0.1526  -22.9997  -50.8837 H         1 UNK         0.0600 
    218 H218       -0.9891  -24.3782  -51.5837 H         1 UNK         0.0600 
    219 H219       -1.2011  -23.9906  -49.8776 H         1 UNK         0.0600 
    220 H220       -3.9992  -22.1177  -49.3237 H         1 UNK         0.3000 
    221 H221       -2.7458  -19.8148  -48.1291 H         1 UNK         0.0600 
    222 H222       -5.6218  -20.8596  -47.9969 H         1 UNK         0.0600 
    223 H223       -4.3200  -21.2070  -46.8600 H         1 UNK         0.0600 
    224 H224       -4.9607  -19.5824  -46.9779 H         1 UNK         0.0600 
    225 H225       -4.7427  -20.2333  -50.9894 H         1 UNK         0.3000 
    226 H226       -5.4174  -17.3469  -51.1732 H         1 UNK         0.0600 
    227 H227       -7.1960  -19.0389  -51.7168 H         1 UNK         0.0600 
    228 H228       -6.7675  -18.0685  -53.1166 H         1 UNK         0.0600 
    229 H229       -6.1663  -19.7148  -52.9777 H         1 UNK         0.0600 
    230 H230       -4.7117  -16.1378  -52.9924 H         1 UNK         0.3000 
    231 H231       -2.0013  -16.6443  -53.8266 H         1 UNK         0.0600 
    232 H232       -2.2512  -14.4165  -54.9126 H         1 UNK         0.0600 
    233 H233       -2.8451  -14.3767  -53.2634 H         1 UNK         0.0600 
    234 H234       -3.9845  -14.4421  -54.6097 H         1 UNK         0.0600 
    235 H235       -4.7739  -17.9564  -55.0776 H         1 UNK         0.3000 
    236 H236       -4.6464  -17.6480  -57.8519 H         1 UNK         0.0600 
    237 H237       -5.6365  -20.0230  -56.1832 H         1 UNK         0.0600 
    238 H238       -6.5844  -18.6087  -56.6453 H         1 UNK         0.0600 
    239 H239       -6.0348  -19.7369  -57.8734 H         1 UNK         0.0600 
    240 H240       -2.6255  -19.6810  -55.8080 H         1 UNK         0.3000 
    241 H241       -1.4786  -21.1933  -58.0216 H         1 UNK         0.0600 
    242 H242       -0.9763  -17.9061  -57.1420 H         1 UNK         0.3800 
    243 H243        0.6421  -17.8131  -57.7870 H         1 UNK         0.3800 
    244 H244        0.0913  -22.1001  -56.2639 H         1 UNK         0.0800 
    245 H245       -1.5937  -22.4072  -56.0008 H         1 UNK         0.0800 
    246 H246        1.5407  -21.5220  -54.2582 H         1 UNK         0.0800 
    247 H247        1.3463  -19.9170  -54.9277 H         1 UNK         0.0800 
@<TRIPOS>BOND
     1    1    2 1    
     2    1  127 1    
     3    1  128 1    
     4    1  129 1    
     5    2    3 2    
     6    2    4 am   BACKBONE|DICT|INTERRES
     7    4    5 1    
     8    4  130 1    
     9    5    6 1    
    10    5   65 1    
    11    5  131 1    
    12    6    7 1    
    13    6  132 1    
    14    6  133 1    
    15    7    8 1    
    16    8    9 1    
    17    8  134 1    
    18    8  135 1    
    19    9   10 ar   
    20    9   14 ar   
    21   10   11 ar   
    22   10  136 1    
    23   11   12 ar   
    24   11  126 1    
    25   12   13 ar   
    26   12  137 1    
    27   13   14 ar   
    28   13   15 1    
    29   14  138 1    
    30   15   16 1    
    31   15  139 1    
    32   15  140 1    
    33   16   17 1    
    34   17   18 1    
    35   17  141 1    
    36   17  142 1    
    37   18   19 1    
    38   18   67 1    
    39   18  143 1    
    40   19   20 am   BACKBONE|DICT|INTERRES
    41   19  144 1    
    42   20   21 2    
    43   20   22 1    
    44   22   23 1    
    45   22   24 1    
    46   22  145 1    
    47   23  146 1    
    48   23  147 1    
    49   23  148 1    
    50   24   25 am   BACKBONE|DICT|INTERRES
    51   24  149 1    
    52   25   26 2    
    53   25   27 1    
    54   27   28 1    
    55   27   29 1    
    56   27  150 1    
    57   28  151 1    
    58   28  152 1    
    59   28  153 1    
    60   29   30 am   BACKBONE|DICT|INTERRES
    61   29  154 1    
    62   30   31 2    
    63   30   32 1    
    64   32   33 1    
    65   32   34 1    
    66   32  155 1    
    67   33  156 1    
    68   33  157 1    
    69   33  158 1    
    70   34   35 am   BACKBONE|DICT|INTERRES
    71   34  159 1    
    72   35   36 2    
    73   35   37 1    
    74   37   38 1    
    75   37   39 1    
    76   37  160 1    
    77   38  161 1    
    78   38  162 1    
    79   38  163 1    
    80   39   40 am   BACKBONE|DICT|INTERRES
    81   39  164 1    
    82   40   41 2    
    83   40   42 1    
    84   42   43 1    
    85   42   44 1    
    86   42  165 1    
    87   43  166 1    
    88   43  167 1    
    89   43  168 1    
    90   44   45 am   BACKBONE|DICT|INTERRES
    91   44  169 1    
    92   45   46 2    
    93   45   47 1    
    94   47   48 1    
    95   47   49 1    
    96   47  170 1    
    97   48  171 1    
    98   48  172 1    
    99   48  173 1    
   100   49   50 am   BACKBONE|DICT|INTERRES
   101   49  174 1    
   102   50   51 2    
   103   50   52 1    
   104   52   53 1    
   105   52   54 1    
   106   52  175 1    
   107   53  176 1    
   108   53  177 1    
   109   53  178 1    
   110   54   55 am   BACKBONE|DICT|INTERRES
   111   54  179 1    
   112   55   56 2    
   113   55   57 1    
   114   57   58 1    
   115   57   59 1    
   116   57  180 1    
   117   58  181 1    
   118   58  182 1    
   119   58  183 1    
   120   59   60 am   BACKBONE|DICT|INTERRES
   121   59  184 1    
   122   60   61 2    
   123   60   62 1    
   124   62   63 1    
   125   62   64 1    
   126   62  185 1    
   127   63  186 1    
   128   63  187 1    
   129   63  188 1    
   130   64   65 am   BACKBONE|DICT|INTERRES
   131   64  189 1    
   132   65   66 2    
   133   67   68 2    
   134   67   69 am   BACKBONE|DICT|INTERRES
   135   69   70 1    
   136   69  190 1    
   137   70   71 1    
   138   70   72 1    
   139   70  191 1    
   140   71  192 1    
   141   71  193 1    
   142   71  194 1    
   143   72   73 2    
   144   72   74 am   BACKBONE|DICT|INTERRES
   145   74   75 1    
   146   74  195 1    
   147   75   76 1    
   148   75   77 1    
   149   75  196 1    
   150   76  197 1    
   151   76  198 1    
   152   76  199 1    
   153   77   78 2    
   154   77   79 am   BACKBONE|DICT|INTERRES
   155   79   80 1    
   156   79  200 1    
   157   80   81 1    
   158   80   82 1    
   159   80  201 1    
   160   81  202 1    
   161   81  203 1    
   162   81  204 1    
   163   82   83 2    
   164   82   84 am   BACKBONE|DICT|INTERRES
   165   84   85 1    
   166   84  205 1    
   167   85   86 1    
   168   85   87 1    
   169   85  206 1    
   170   86  207 1    
   171   86  208 1    
   172   86  209 1    
   173   87   88 2    
   174   87   89 am   BACKBONE|DICT|INTERRES
   175   89   90 1    
   176   89  210 1    
   177   90   91 1    
   178   90   92 1    
   179   90  211 1    
   180   91  212 1    
   181   91  213 1    
   182   91  214 1    
   183   92   93 2    
   184   92   94 am   BACKBONE|DICT|INTERRES
   185   94   95 1    
   186   94  215 1    
   187   95   96 1    
   188   95   97 1    
   189   95  216 1    
   190   96  217 1    
   191   96  218 1    
   192   96  219 1    
   193   97   98 2    
   194   97   99 am   BACKBONE|DICT|INTERRES
   195   99  100 1    
   196   99  220 1    
   197  100  101 1    
   198  100  102 1    
   199  100  221 1    
   200  101  222 1    
   201  101  223 1    
   202  101  224 1    
   203  102  103 2    
   204  102  104 am   BACKBONE|DICT|INTERRES
   205  104  105 1    
   206  104  225 1    
   207  105  106 1    
   208  105  107 1    
   209  105  226 1    
   210  106  227 1    
   211  106  228 1    
   212  106  229 1    
   213  107  108 2    
   214  107  109 am   BACKBONE|DICT|INTERRES
   215  109  110 1    
   216  109  230 1    
   217  110  111 1    
   218  110  112 1    
   219  110  231 1    
   220  111  232 1    
   221  111  233 1    
   222  111  234 1    
   223  112  113 2    
   224  112  114 am   BACKBONE|DICT|INTERRES
   225  114  115 1    
   226  114  235 1    
   227  115  116 1    
   228  115  117 1    
   229  115  236 1    
   230  116  237 1    
   231  116  238 1    
   232  116  239 1    
   233  117  118 2    
   234  117  119 am   BACKBONE|DICT|INTERRES
   235  119  120 1    
   236  119  240 1    
   237  120  121 1    
   238  120  124 1    
   239  120  241 1    
   240  121  122 am   BACKBONE|DICT|INTERRES
   241  121  123 2    
   242  122  242 1    
   243  122  243 1    
   244  124  125 1    
   245  124  244 1    
   246  124  245 1    
   247  125  126 1    
   248  126  246 1    
   249  126  247 1    
@<TRIPOS>SUBSTRUCTURE
     1 UNK         1 GROUP             0       ****    0 ROOT    
