@<TRIPOS>MOLECULE
3R540
247   249    1
SMALL
USER_CHARGES


@<TRIPOS>ATOM
      1 CA          1.8265  -14.5283  -47.0919 C.3       0 UNK        -0.1800 
      2 C           3.2257  -15.0710  -46.8423 C.2       0 UNK         0.5000 
      3 O           4.1991  -14.4820  -47.3114 O.2       0 UNK        -0.5000 
      4 N           3.3231  -16.1858  -46.1126 N.am      1 UNK        -0.5000 
      5 CA          4.5780  -16.8669  -45.7756 C.3       1 UNK         0.1400 
      6 C6          4.8460  -18.0764  -46.7123 C.3       23 UNK        -0.0398 
      7 S7          6.4858  -18.0318  -47.5027 S.3       23 UNK        -0.2404 
      8 C8          6.0949  -17.2536  -49.1088 C.3       23 UNK        -0.0205 
      9 C9          5.1382  -18.0722  -49.9723 C.ar      23 UNK        -0.0193 
     10 C10         3.9667  -17.4910  -50.4701 C.ar      23 UNK        -0.1150 
     11 C11         3.0912  -18.2209  -51.2834 C.ar      23 UNK        -0.0193 
     12 C12         3.4056  -19.5476  -51.6003 C.ar      23 UNK        -0.1150 
     13 C13         4.5663  -20.1451  -51.1012 C.ar      23 UNK        -0.0193 
     14 C14         5.4309  -19.4003  -50.2949 C.ar      23 UNK        -0.1150 
     15 C15         4.9074  -21.5860  -51.4501 C.3       23 UNK        -0.0205 
     16 S16         4.3824  -22.7497  -50.1505 S.3       23 UNK        -0.2404 
     17 C17         2.6126  -22.9826  -50.5346 C.3       23 UNK        -0.0398 
     18 CA          1.7097  -22.8946  -49.2811 C.3       11 UNK         0.1400 
     19 N           1.8280  -21.6041  -48.5959 N.am      11 UNK        -0.5000 
     20 C           1.2229  -21.2702  -47.4479 C.2       10 UNK         0.5000 
     21 O           0.4863  -22.0376  -46.8203 O.2       10 UNK        -0.5000 
     22 CA          1.4393  -19.8304  -46.9453 C.3       10 UNK         0.1400 
     23 CB          1.5942  -18.8363  -48.1176 C.3       10 UNK        -0.1800 
     24 N           0.2744  -19.4565  -46.1623 N.am      10 UNK        -0.5000 
     25 C           0.0889  -18.3219  -45.4907 C.2       9 UNK         0.5000 
     26 O           0.9922  -17.5286  -45.2130 O.2       9 UNK        -0.5000 
     27 CA         -1.3820  -17.9876  -45.1774 C.3       9 UNK         0.1400 
     28 CB         -1.5147  -16.9373  -44.0623 C.3       9 UNK        -0.1800 
     29 N          -2.0558  -17.4852  -46.3781 N.am      9 UNK        -0.5000 
     30 C          -2.3275  -18.1748  -47.4987 C.2       8 UNK         0.5000 
     31 O          -2.1426  -19.3863  -47.6248 O.2       8 UNK        -0.5000 
     32 CA         -2.9012  -17.3850  -48.6885 C.3       8 UNK         0.1400 
     33 CB         -4.3977  -17.6815  -48.8503 C.3       8 UNK        -0.1800 
     34 N          -2.7157  -15.9410  -48.5567 N.am      8 UNK        -0.5000 
     35 C          -1.5773  -15.2816  -48.7974 C.2       7 UNK         0.5000 
     36 O          -0.5479  -15.8218  -49.1977 O.2       7 UNK        -0.5000 
     37 CA         -1.5905  -13.7618  -48.5405 C.3       7 UNK         0.1400 
     38 CB         -2.6287  -13.0465  -49.4275 C.3       7 UNK        -0.1800 
     39 N          -1.7505  -13.3829  -47.1295 N.am      7 UNK        -0.5000 
     40 C          -2.7722  -13.6175  -46.2941 C.2       6 UNK         0.5000 
     41 O          -3.7683  -14.2750  -46.6003 O.2       6 UNK        -0.5000 
     42 CA         -2.6573  -13.0136  -44.8765 C.3       6 UNK         0.1400 
     43 CB         -3.7751  -13.4955  -43.9336 C.3       6 UNK        -0.1800 
     44 N          -1.3683  -13.2731  -44.2309 N.am      6 UNK        -0.5000 
     45 C          -0.2222  -12.6196  -44.4585 C.2       5 UNK         0.5000 
     46 O          -0.0944  -11.7939  -45.3639 O.2       5 UNK        -0.5000 
     47 CA          0.9838  -12.9546  -43.5499 C.3       5 UNK         0.1400 
     48 CB          1.8487  -11.7136  -43.2536 C.3       5 UNK        -0.1800 
     49 N           0.6552  -13.6509  -42.2980 N.am      5 UNK        -0.5000 
     50 C          -0.1507  -13.2399  -41.3043 C.2       4 UNK         0.5000 
     51 O          -0.7996  -12.1942  -41.3295 O.2       4 UNK        -0.5000 
     52 CA         -0.2635  -14.1644  -40.0749 C.3       4 UNK         0.1400 
     53 CB         -1.4384  -15.1394  -40.2502 C.3       4 UNK        -0.1800 
     54 N           0.9573  -14.9306  -39.8166 N.am      4 UNK        -0.5000 
     55 C           2.1126  -14.4011  -39.3891 C.2       3 UNK         0.5000 
     56 O           2.2438  -13.2182  -39.0722 O.2       3 UNK        -0.5000 
     57 CA          3.3353  -15.3410  -39.3178 C.3       3 UNK         0.1400 
     58 CB          3.5455  -15.8355  -37.8782 C.3       3 UNK        -0.1800 
     59 N           3.2860  -16.5025  -40.2162 N.am      3 UNK        -0.5000 
     60 C           3.1771  -16.4507  -41.5505 C.2       2 UNK         0.5000 
     61 O           3.0070  -15.4040  -42.1806 O.2       2 UNK        -0.5000 
     62 CA          3.2176  -17.7998  -42.2931 C.3       2 UNK         0.1400 
     63 CB          1.9024  -18.5681  -42.0887 C.3       2 UNK        -0.1800 
     64 N           3.4211  -17.5971  -43.7262 N.am      2 UNK        -0.5000 
     65 C           4.5946  -17.2730  -44.2893 C.2       1 UNK         0.5000 
     66 O           5.6617  -17.2646  -43.6733 O.2       1 UNK        -0.5000 
     67 C           0.2539  -23.2474  -49.6542 C.2       11 UNK         0.5000 
     68 O          -0.0975  -24.4258  -49.6331 O.2       11 UNK        -0.5000 
     69 N          -0.5742  -22.2356  -49.9592 N.am      12 UNK        -0.5000 
     70 CA         -1.9929  -22.4143  -50.2676 C.3       12 UNK         0.1400 
     71 CB         -2.5823  -21.1166  -50.8264 C.3       12 UNK        -0.1800 
     72 C          -2.8016  -22.9166  -49.0616 C.2       12 UNK         0.5000 
     73 O          -3.5623  -23.8703  -49.2095 O.2       12 UNK        -0.5000 
     74 N          -2.5965  -22.3121  -47.8837 N.am      13 UNK        -0.5000 
     75 CA         -3.1910  -22.7576  -46.6207 C.3       13 UNK         0.1400 
     76 CB         -2.9071  -21.7352  -45.5106 C.3       13 UNK        -0.1800 
     77 C          -2.7246  -24.1631  -46.2036 C.2       13 UNK         0.5000 
     78 O          -3.5432  -24.9510  -45.7298 O.2       13 UNK        -0.5000 
     79 N          -1.4394  -24.4698  -46.4323 N.am      14 UNK        -0.5000 
     80 CA         -0.8533  -25.7922  -46.1963 C.3       14 UNK         0.1400 
     81 CB          0.6730  -25.7117  -46.3487 C.3       14 UNK        -0.1800 
     82 C          -1.4426  -26.8835  -47.1143 C.2       14 UNK         0.5000 
     83 O          -1.6770  -28.0024  -46.6568 O.2       14 UNK        -0.5000 
     84 N          -1.6975  -26.5302  -48.3811 N.am      15 UNK        -0.5000 
     85 CA         -2.3202  -27.3909  -49.3897 C.3       15 UNK         0.1400 
     86 CB         -1.9510  -26.8551  -50.7828 C.3       15 UNK        -0.1800 
     87 C          -3.8536  -27.4998  -49.2564 C.2       15 UNK         0.5000 
     88 O          -4.4495  -28.3416  -49.9297 O.2       15 UNK        -0.5000 
     89 N          -4.4625  -26.6389  -48.4263 N.am      16 UNK        -0.5000 
     90 CA         -5.9055  -26.4246  -48.2610 C.3       16 UNK         0.1400 
     91 CB         -6.5992  -27.6778  -47.6875 C.3       16 UNK        -0.1800 
     92 C          -6.5690  -25.8885  -49.5503 C.2       16 UNK         0.5000 
     93 O          -7.6878  -26.2769  -49.8902 O.2       16 UNK        -0.5000 
     94 N          -5.8509  -24.9936  -50.2379 N.am      17 UNK        -0.5000 
     95 CA         -6.2181  -24.3471  -51.4967 C.3       17 UNK         0.1400 
     96 CB         -5.1613  -24.7116  -52.5540 C.3       17 UNK        -0.1800 
     97 C          -6.3329  -22.8191  -51.3258 C.2       17 UNK         0.5000 
     98 O          -6.2766  -22.0849  -52.3139 O.2       17 UNK        -0.5000 
     99 N          -6.4919  -22.3482  -50.0799 N.am      18 UNK        -0.5000 
    100 CA        -6.5446  -20.9317  -49.7001 C.3       18 UNK         0.1400 
    101 CB        -6.5725  -20.8207  -48.1687 C.3       18 UNK        -0.1800 
    102 C         -7.7001  -20.1274  -50.3290 C.2       18 UNK         0.5000 
    103 O         -7.5966  -18.9049  -50.4242 O.2       18 UNK        -0.5000 
    104 N         -8.7585  -20.8199  -50.7730 N.am      19 UNK        -0.5000 
    105 CA        -9.8650  -20.2466  -51.5414 C.3       19 UNK         0.1400 
    106 CB       -11.0009  -21.2769  -51.6320 C.3       19 UNK        -0.1800 
    107 C         -9.4410  -19.7821  -52.9503 C.2       19 UNK         0.5000 
    108 O         -9.9959  -18.8051  -53.4546 O.2       19 UNK        -0.5000 
    109 N         -8.4646  -20.4775  -53.5509 N.am      20 UNK        -0.5000 
    110 CA        -7.8348  -20.0965  -54.8153 C.3       20 UNK         0.1400 
    111 CB        -7.3957  -21.3621  -55.5694 C.3       20 UNK        -0.1800 
    112 C         -6.6371  -19.1619  -54.5709 C.2       20 UNK         0.5000 
    113 O         -6.4744  -18.1873  -55.3063 O.2       20 UNK        -0.5000 
    114 N         -5.8540  -19.4740  -53.5257 N.am      21 UNK        -0.5000 
    115 CA        -4.6388  -18.8012  -53.0544 C.3       21 UNK         0.1400 
    116 CB        -4.8984  -17.3129  -52.7435 C.3       21 UNK        -0.1800 
    117 C         -3.4257  -18.9896  -53.9902 C.2       21 UNK         0.5000 
    118 O         -3.5681  -19.3925  -55.1467 O.2       21 UNK        -0.5000 
    119 N         -2.2358  -18.7061  -53.4490 N.am      22 UNK        -0.5000 
    120 CA        -0.9386  -18.7980  -54.1421 C.3       22 UNK         0.1400 
    121 C         -0.4889  -17.4776  -54.8357 C.2       22 UNK         0.5000 
    122 N         -1.2409  -16.3869  -54.7488 N.am      22 UNK        -0.7600 
    123 O          0.5539  -17.4459  -55.4832 O.2       22 UNK        -0.5000 
    124 C124        0.1643  -19.3876  -53.2195 C.3       23 UNK        -0.0398 
    125 S125        0.3137  -18.5477  -51.6012 S.3       23 UNK        -0.2404 
    126 C126        1.8286  -17.5527  -51.8249 C.3       23 UNK        -0.0205 
    127 H127        1.0612  -15.1140  -46.5818 H         1 UNK         0.0600 
    128 H128        1.6129  -14.5453  -48.1601 H         1 UNK         0.0600 
    129 H129        1.7567  -13.4967  -46.7484 H         1 UNK         0.0600 
    130 H130        2.4708  -16.6179  -45.7632 H         1 UNK         0.3000 
    131 H131        5.3937  -16.1479  -45.8788 H         1 UNK         0.0600 
    132 H132        4.7498  -19.0325  -46.1944 H         1 UNK         0.0800 
    133 H133        4.1029  -18.1134  -47.5025 H         1 UNK         0.0800 
    134 H134        5.6911  -16.2572  -48.9225 H         1 UNK         0.0800 
    135 H135        7.0237  -17.1083  -49.6617 H         1 UNK         0.0800 
    136 H136        3.7366  -16.4635  -50.2246 H         1 UNK         0.1150 
    137 H137        2.7474  -20.1190  -52.2364 H         1 UNK         0.1150 
    138 H138        6.3351  -19.8558  -49.9158 H         1 UNK         0.1150 
    139 H139        4.4645  -21.8693  -52.4062 H         1 UNK         0.0800 
    140 H140        5.9865  -21.6781  -51.5823 H         1 UNK         0.0800 
    141 H141        2.2950  -22.2542  -51.2815 H         1 UNK         0.0800 
    142 H142        2.5119  -23.9617  -51.0069 H         1 UNK         0.0800 
    143 H143        2.0459  -23.6559  -48.5746 H         1 UNK         0.0600 
    144 H144        2.4223  -20.9240  -49.0478 H         1 UNK         0.3000 
    145 H145        2.3255  -19.8142  -46.3095 H         1 UNK         0.0600 
    146 H146        1.7323  -17.8109  -47.7791 H         1 UNK         0.0600 
    147 H147        0.7103  -18.8427  -48.7549 H         1 UNK         0.0600 
    148 H148        2.4533  -19.0802  -48.7379 H         1 UNK         0.0600 
    149 H149       -0.5384  -20.0293  -46.3564 H         1 UNK         0.3000 
    150 H150       -1.8833  -18.9000  -44.8494 H         1 UNK         0.0600 
    151 H151       -1.0784  -17.3003  -43.1323 H         1 UNK         0.0600 
    152 H152       -2.5607  -16.7091  -43.8589 H         1 UNK         0.0600 
    153 H153       -1.0092  -16.0082  -44.3238 H         1 UNK         0.0600 
    154 H154       -2.2526  -16.4959  -46.3949 H         1 UNK         0.3000 
    155 H155       -2.3831  -17.7255  -49.5875 H         1 UNK         0.0600 
    156 H156       -4.8109  -17.1828  -49.7266 H         1 UNK         0.0600 
    157 H157       -4.9697  -17.3585  -47.9796 H         1 UNK         0.0600 
    158 H158       -4.5644  -18.7501  -48.9743 H         1 UNK         0.0600 
    159 H159       -3.4755  -15.4148  -48.1348 H         1 UNK         0.3000 
    160 H160       -0.6080  -13.3901  -48.8354 H         1 UNK         0.0600 
    161 H161       -3.6520  -13.3214  -49.1707 H         1 UNK         0.0600 
    162 H162       -2.4788  -13.2942  -50.4791 H         1 UNK         0.0600 
    163 H163       -2.5426  -11.9639  -49.3344 H         1 UNK         0.0600 
    164 H164       -0.9918  -12.8267  -46.7453 H         1 UNK         0.3000 
    165 H165       -2.7708  -11.9335  -44.9897 H         1 UNK         0.0600 
    166 H166       -3.7417  -14.5751  -43.7858 H         1 UNK         0.0600 
    167 H167       -3.6972  -13.0207  -42.9552 H         1 UNK         0.0600 
    168 H168       -4.7598  -13.2486  -44.3327 H         1 UNK         0.0600 
    169 H169       -1.3767  -13.9428  -43.4771 H         1 UNK         0.3000 
    170 H170        1.5990  -13.6522  -44.1200 H         1 UNK         0.0600 
    171 H171        2.2277  -11.2670  -44.1736 H         1 UNK         0.0600 
    172 H172        1.2839  -10.9458  -42.7239 H         1 UNK         0.0600 
    173 H173        2.7132  -11.9754  -42.6432 H         1 UNK         0.0600 
    174 H174        1.1986  -14.4937  -42.1426 H         1 UNK         0.3000 
    175 H175       -0.4656  -13.5366  -39.2044 H         1 UNK         0.0600 
    176 H176       -1.2805  -15.8151  -41.0912 H         1 UNK         0.0600 
    177 H177       -1.5845  -15.7453  -39.3557 H         1 UNK         0.0600 
    178 H178       -2.3698  -14.6012  -40.4319 H         1 UNK         0.0600 
    179 H179        0.9359  -15.9152  -40.0359 H         1 UNK         0.3000 
    180 H180        4.2070  -14.7489  -39.6040 H         1 UNK         0.0600 
    181 H181        2.7207  -16.4674  -37.5464 H         1 UNK         0.0600 
    182 H182        3.6177  -14.9982  -37.1826 H         1 UNK         0.0600 
    183 H183        4.4677  -16.4098  -37.7877 H         1 UNK         0.0600 
    184 H184        3.3987  -17.4043  -39.7757 H         1 UNK         0.3000 
    185 H185        4.0418  -18.3958  -41.8957 H         1 UNK         0.0600 
    186 H186        1.7536  -18.8258  -41.0397 H         1 UNK         0.0600 
    187 H187        1.0426  -17.9792  -42.4064 H         1 UNK         0.0600 
    188 H188        1.8968  -19.4999  -42.6547 H         1 UNK         0.0600 
    189 H189        2.5717  -17.5596  -44.2813 H         1 UNK         0.3000 
    190 H190       -0.2220  -21.2900  -49.9381 H         1 UNK         0.3000 
    191 H191       -2.0694  -23.1737  -51.0489 H         1 UNK         0.0600 
    192 H192       -3.6322  -21.2548  -51.0817 H         1 UNK         0.0600 
    193 H193       -2.0655  -20.8245  -51.7376 H         1 UNK         0.0600 
    194 H194       -2.5129  -20.2928  -50.1167 H         1 UNK         0.0600 
    195 H195       -2.0071  -21.4896  -47.8451 H         1 UNK         0.3000 
    196 H196       -4.2720  -22.8105  -46.7598 H         1 UNK         0.0600 
    197 H197       -3.3066  -22.0750  -44.5542 H         1 UNK         0.0600 
    198 H198       -3.3779  -20.7777  -45.7310 H         1 UNK         0.0600 
    199 H199       -1.8380  -21.5685  -45.3788 H         1 UNK         0.0600 
    200 H200       -0.8257  -23.7478  -46.7933 H         1 UNK         0.3000 
    201 H201       -1.0742  -26.0726  -45.1643 H         1 UNK         0.0600 
    202 H202        1.0973  -24.9525  -45.6914 H         1 UNK         0.0600 
    203 H203        0.9643  -25.4713  -47.3706 H         1 UNK         0.0600 
    204 H204        1.1393  -26.6637  -46.0923 H         1 UNK         0.0600 
    205 H205       -1.4059  -25.6105  -48.6976 H         1 UNK         0.3000 
    206 H206       -1.9107  -28.3983  -49.2921 H         1 UNK         0.0600 
    207 H207       -0.8702  -26.8318  -50.9227 H         1 UNK         0.0600 
    208 H208       -2.3662  -27.4843  -51.5711 H         1 UNK         0.0600 
    209 H209       -2.3304  -25.8439  -50.9358 H         1 UNK         0.0600 
    210 H210       -3.8704  -25.9766  -47.9428 H         1 UNK         0.3000 
    211 H211       -6.0049  -25.6305  -47.5196 H         1 UNK         0.0600 
    212 H212       -6.6106  -28.5016  -48.4013 H         1 UNK         0.0600 
    213 H213       -7.6352  -27.4623  -47.4239 H         1 UNK         0.0600 
    214 H214       -6.1000  -28.0240  -46.7824 H         1 UNK         0.0600 
    215 H215       -4.9508  -24.7051  -49.8518 H         1 UNK         0.3000 
    216 H216       -7.1906  -24.7039  -51.8405 H         1 UNK         0.0600 
    217 H217       -5.4221  -24.3041  -53.5315 H         1 UNK         0.0600 
    218 H218       -5.0751  -25.7926  -52.6665 H         1 UNK         0.0600 
    219 H219       -4.1772  -24.3248  -52.2861 H         1 UNK         0.0600 
    220 H220       -6.5321  -23.0192  -49.3274 H         1 UNK         0.3000 
    221 H221       -5.6226  -20.4721  -50.0564 H         1 UNK         0.0600 
    222 H222       -7.4198  -21.3576  -47.7410 H         1 UNK         0.0600 
    223 H223       -5.6596  -21.2217  -47.7312 H         1 UNK         0.0600 
    224 H224       -6.6483  -19.7803  -47.8494 H         1 UNK         0.0600 
    225 H225       -8.7686  -21.8194  -50.6348 H         1 UNK         0.3000 
    226 H226      -10.2374  -19.3731  -51.0019 H         1 UNK         0.0600 
    227 H227      -11.3580  -21.5589  -50.6413 H         1 UNK         0.0600 
    228 H228      -11.8525  -20.8712  -52.1798 H         1 UNK         0.0600 
    229 H229      -10.6821  -22.1845  -52.1461 H         1 UNK         0.0600 
    230 H230       -8.0256  -21.2375  -53.0460 H         1 UNK         0.3000 
    231 H231       -8.5564  -19.5676  -55.4418 H         1 UNK         0.0600 
    232 H232       -6.9396  -21.1049  -56.5262 H         1 UNK         0.0600 
    233 H233       -8.2465  -22.0107  -55.7780 H         1 UNK         0.0600 
    234 H234       -6.6643  -21.9405  -55.0040 H         1 UNK         0.0600 
    235 H235       -6.0613  -20.3479  -53.0508 H         1 UNK         0.3000 
    236 H236       -4.3936  -19.2883  -52.1114 H         1 UNK         0.0600 
    237 H237       -5.7812  -17.1915  -52.1153 H         1 UNK         0.0600 
    238 H238       -4.0584  -16.8703  -52.2072 H         1 UNK         0.0600 
    239 H239       -5.0487  -16.7255  -53.6495 H         1 UNK         0.0600 
    240 H240       -2.1837  -18.3720  -52.4977 H         1 UNK         0.3000 
    241 H241       -1.0468  -19.5071  -54.9648 H         1 UNK         0.0600 
    242 H242       -2.1068  -16.3992  -54.2360 H         1 UNK         0.3800 
    243 H243       -0.9422  -15.5419  -55.2098 H         1 UNK         0.3800 
    244 H244       -0.0636  -20.4347  -53.0186 H         1 UNK         0.0800 
    245 H245        1.1285  -19.4022  -53.7296 H         1 UNK         0.0800 
    246 H246        1.6646  -16.6021  -51.3147 H         1 UNK         0.0800 
    247 H247        1.9720  -17.3086  -52.8780 H         1 UNK         0.0800 
@<TRIPOS>BOND
     1    1    2 1    
     2    1  127 1    
     3    1  128 1    
     4    1  129 1    
     5    2    3 2    
     6    2    4 am   BACKBONE|DICT|INTERRES
     7    4    5 1    
     8    4  130 1    
     9    5    6 1    
    10    5   65 1    
    11    5  131 1    
    12    6    7 1    
    13    6  132 1    
    14    6  133 1    
    15    7    8 1    
    16    8    9 1    
    17    8  134 1    
    18    8  135 1    
    19    9   10 ar   
    20    9   14 ar   
    21   10   11 ar   
    22   10  136 1    
    23   11   12 ar   
    24   11  126 1    
    25   12   13 ar   
    26   12  137 1    
    27   13   14 ar   
    28   13   15 1    
    29   14  138 1    
    30   15   16 1    
    31   15  139 1    
    32   15  140 1    
    33   16   17 1    
    34   17   18 1    
    35   17  141 1    
    36   17  142 1    
    37   18   19 1    
    38   18   67 1    
    39   18  143 1    
    40   19   20 am   BACKBONE|DICT|INTERRES
    41   19  144 1    
    42   20   21 2    
    43   20   22 1    
    44   22   23 1    
    45   22   24 1    
    46   22  145 1    
    47   23  146 1    
    48   23  147 1    
    49   23  148 1    
    50   24   25 am   BACKBONE|DICT|INTERRES
    51   24  149 1    
    52   25   26 2    
    53   25   27 1    
    54   27   28 1    
    55   27   29 1    
    56   27  150 1    
    57   28  151 1    
    58   28  152 1    
    59   28  153 1    
    60   29   30 am   BACKBONE|DICT|INTERRES
    61   29  154 1    
    62   30   31 2    
    63   30   32 1    
    64   32   33 1    
    65   32   34 1    
    66   32  155 1    
    67   33  156 1    
    68   33  157 1    
    69   33  158 1    
    70   34   35 am   BACKBONE|DICT|INTERRES
    71   34  159 1    
    72   35   36 2    
    73   35   37 1    
    74   37   38 1    
    75   37   39 1    
    76   37  160 1    
    77   38  161 1    
    78   38  162 1    
    79   38  163 1    
    80   39   40 am   BACKBONE|DICT|INTERRES
    81   39  164 1    
    82   40   41 2    
    83   40   42 1    
    84   42   43 1    
    85   42   44 1    
    86   42  165 1    
    87   43  166 1    
    88   43  167 1    
    89   43  168 1    
    90   44   45 am   BACKBONE|DICT|INTERRES
    91   44  169 1    
    92   45   46 2    
    93   45   47 1    
    94   47   48 1    
    95   47   49 1    
    96   47  170 1    
    97   48  171 1    
    98   48  172 1    
    99   48  173 1    
   100   49   50 am   BACKBONE|DICT|INTERRES
   101   49  174 1    
   102   50   51 2    
   103   50   52 1    
   104   52   53 1    
   105   52   54 1    
   106   52  175 1    
   107   53  176 1    
   108   53  177 1    
   109   53  178 1    
   110   54   55 am   BACKBONE|DICT|INTERRES
   111   54  179 1    
   112   55   56 2    
   113   55   57 1    
   114   57   58 1    
   115   57   59 1    
   116   57  180 1    
   117   58  181 1    
   118   58  182 1    
   119   58  183 1    
   120   59   60 am   BACKBONE|DICT|INTERRES
   121   59  184 1    
   122   60   61 2    
   123   60   62 1    
   124   62   63 1    
   125   62   64 1    
   126   62  185 1    
   127   63  186 1    
   128   63  187 1    
   129   63  188 1    
   130   64   65 am   BACKBONE|DICT|INTERRES
   131   64  189 1    
   132   65   66 2    
   133   67   68 2    
   134   67   69 am   BACKBONE|DICT|INTERRES
   135   69   70 1    
   136   69  190 1    
   137   70   71 1    
   138   70   72 1    
   139   70  191 1    
   140   71  192 1    
   141   71  193 1    
   142   71  194 1    
   143   72   73 2    
   144   72   74 am   BACKBONE|DICT|INTERRES
   145   74   75 1    
   146   74  195 1    
   147   75   76 1    
   148   75   77 1    
   149   75  196 1    
   150   76  197 1    
   151   76  198 1    
   152   76  199 1    
   153   77   78 2    
   154   77   79 am   BACKBONE|DICT|INTERRES
   155   79   80 1    
   156   79  200 1    
   157   80   81 1    
   158   80   82 1    
   159   80  201 1    
   160   81  202 1    
   161   81  203 1    
   162   81  204 1    
   163   82   83 2    
   164   82   84 am   BACKBONE|DICT|INTERRES
   165   84   85 1    
   166   84  205 1    
   167   85   86 1    
   168   85   87 1    
   169   85  206 1    
   170   86  207 1    
   171   86  208 1    
   172   86  209 1    
   173   87   88 2    
   174   87   89 am   BACKBONE|DICT|INTERRES
   175   89   90 1    
   176   89  210 1    
   177   90   91 1    
   178   90   92 1    
   179   90  211 1    
   180   91  212 1    
   181   91  213 1    
   182   91  214 1    
   183   92   93 2    
   184   92   94 am   BACKBONE|DICT|INTERRES
   185   94   95 1    
   186   94  215 1    
   187   95   96 1    
   188   95   97 1    
   189   95  216 1    
   190   96  217 1    
   191   96  218 1    
   192   96  219 1    
   193   97   98 2    
   194   97   99 am   BACKBONE|DICT|INTERRES
   195   99  100 1    
   196   99  220 1    
   197  100  101 1    
   198  100  102 1    
   199  100  221 1    
   200  101  222 1    
   201  101  223 1    
   202  101  224 1    
   203  102  103 2    
   204  102  104 am   BACKBONE|DICT|INTERRES
   205  104  105 1    
   206  104  225 1    
   207  105  106 1    
   208  105  107 1    
   209  105  226 1    
   210  106  227 1    
   211  106  228 1    
   212  106  229 1    
   213  107  108 2    
   214  107  109 am   BACKBONE|DICT|INTERRES
   215  109  110 1    
   216  109  230 1    
   217  110  111 1    
   218  110  112 1    
   219  110  231 1    
   220  111  232 1    
   221  111  233 1    
   222  111  234 1    
   223  112  113 2    
   224  112  114 am   BACKBONE|DICT|INTERRES
   225  114  115 1    
   226  114  235 1    
   227  115  116 1    
   228  115  117 1    
   229  115  236 1    
   230  116  237 1    
   231  116  238 1    
   232  116  239 1    
   233  117  118 2    
   234  117  119 am   BACKBONE|DICT|INTERRES
   235  119  120 1    
   236  119  240 1    
   237  120  121 1    
   238  120  124 1    
   239  120  241 1    
   240  121  122 am   BACKBONE|DICT|INTERRES
   241  121  123 2    
   242  122  242 1    
   243  122  243 1    
   244  124  125 1    
   245  124  244 1    
   246  124  245 1    
   247  125  126 1    
   248  126  246 1    
   249  126  247 1    
@<TRIPOS>SUBSTRUCTURE
     1 UNK         1 GROUP             0       ****    0 ROOT    
