@<TRIPOS>MOLECULE
3R540
247   249    1
SMALL
USER_CHARGES


@<TRIPOS>ATOM
      1 CA         -0.7030   -9.5244  -49.2927 C.3       0 UNK        -0.1800 
      2 C          -0.9050  -10.9893  -48.9370 C.2       0 UNK         0.5000 
      3 O          -0.3701  -11.4538  -47.9275 O.2       0 UNK        -0.5000 
      4 N          -1.6893  -11.7190  -49.7433 N.am      1 UNK        -0.5000 
      5 CA         -1.9984  -13.1482  -49.5916 C.3       1 UNK         0.1400 
      6 C6         -2.3973  -13.7900  -50.9457 C.3       23 UNK        -0.0398 
      7 S7         -2.0801  -15.5850  -50.9610 S.3       23 UNK        -0.2404 
      8 C8         -0.3482  -15.6250  -51.5043 C.3       23 UNK        -0.0205 
      9 C9          0.3167  -16.9328  -51.1105 C.ar      23 UNK        -0.0193 
     10 C10         0.2141  -18.0527  -51.9388 C.ar      23 UNK        -0.1150 
     11 C11         0.8619  -19.2436  -51.6005 C.ar      23 UNK        -0.0193 
     12 C12         1.6060  -19.3114  -50.4204 C.ar      23 UNK        -0.1150 
     13 C13         1.6988  -18.2048  -49.5688 C.ar      23 UNK        -0.0193 
     14 C14         1.0506  -17.0179  -49.9235 C.ar      23 UNK        -0.1150 
     15 C15         2.5268  -18.2492  -48.2870 C.3       23 UNK        -0.0205 
     16 S16         2.4950  -19.8501  -47.4107 S.3       23 UNK        -0.2404 
     17 C17         0.7379  -20.0011  -46.9425 C.3       23 UNK        -0.0398 
     18 CA          0.1568  -21.4059  -47.2445 C.3       11 UNK         0.1400 
     19 N           0.8996  -22.4587  -46.5609 N.am      11 UNK        -0.5000 
     20 C           1.2900  -23.6148  -47.1085 C.2       10 UNK         0.5000 
     21 O           1.0756  -23.9240  -48.2802 O.2       10 UNK        -0.5000 
     22 CA          2.0591  -24.5980  -46.2000 C.3       10 UNK         0.1400 
     23 CB          3.5532  -24.5983  -46.5582 C.3       10 UNK        -0.1800 
     24 N           1.9210  -24.3175  -44.7681 N.am      10 UNK        -0.5000 
     25 C           0.7827  -24.4370  -44.0726 C.2       9 UNK         0.5000 
     26 O          -0.2778  -24.8211  -44.5624 O.2       9 UNK        -0.5000 
     27 CA          0.8184  -23.9804  -42.6020 C.3       9 UNK         0.1400 
     28 CB          1.2559  -25.1340  -41.6883 C.3       9 UNK        -0.1800 
     29 N           1.6737  -22.8129  -42.3609 N.am      9 UNK        -0.5000 
     30 C           1.5204  -21.6171  -42.9449 C.2       8 UNK         0.5000 
     31 O           0.6578  -21.3785  -43.7924 O.2       8 UNK        -0.5000 
     32 CA          2.4639  -20.5003  -42.4835 C.3       8 UNK         0.1400 
     33 CB          2.9589  -19.6434  -43.6598 C.3       8 UNK        -0.1800 
     34 N           1.7345  -19.6560  -41.5453 N.am      8 UNK        -0.5000 
     35 C           1.8068  -19.7607  -40.2118 C.2       7 UNK         0.5000 
     36 O           2.5452  -20.5663  -39.6418 O.2       7 UNK        -0.5000 
     37 CA          0.8888  -18.8509  -39.3629 C.3       7 UNK         0.1400 
     38 CB          1.6010  -18.3090  -38.1055 C.3       7 UNK        -0.1800 
     39 N           0.2400  -17.7648  -40.1082 N.am      7 UNK        -0.5000 
     40 C           0.8215  -16.7127  -40.7017 C.2       6 UNK         0.5000 
     41 O           2.0329  -16.4856  -40.6941 O.2       6 UNK        -0.5000 
     42 CA         -0.1294  -15.7709  -41.4640 C.3       6 UNK         0.1400 
     43 CB         -0.0023  -14.3256  -40.9578 C.3       6 UNK        -0.1800 
     44 N           0.0899  -15.8017  -42.9106 N.am      6 UNK        -0.5000 
     45 C           0.0226  -16.8912  -43.6901 C.2       5 UNK         0.5000 
     46 O          -0.1769  -18.0259  -43.2555 O.2       5 UNK        -0.5000 
     47 CA          0.1792  -16.6975  -45.2106 C.3       5 UNK         0.1400 
     48 CB         -1.1440  -16.9923  -45.9365 C.3       5 UNK        -0.1800 
     49 N           0.6186  -15.3535  -45.5814 N.am      5 UNK        -0.5000 
     50 C           1.8964  -14.9731  -45.7083 C.2       4 UNK         0.5000 
     51 O           2.8566  -15.7179  -45.5145 O.2       4 UNK        -0.5000 
     52 CA          2.1403  -13.5125  -46.1344 C.3       4 UNK         0.1400 
     53 CB          2.2845  -13.4265  -47.6622 C.3       4 UNK        -0.1800 
     54 N           1.0771  -12.6007  -45.7039 N.am      4 UNK        -0.5000 
     55 C           0.8343  -12.2645  -44.4284 C.2       3 UNK         0.5000 
     56 O           1.5038  -12.6677  -43.4786 O.2       3 UNK        -0.5000 
     57 CA         -0.3876  -11.3649  -44.1681 C.3       3 UNK         0.1400 
     58 CB         -0.0376   -9.8900  -44.4170 C.3       3 UNK        -0.1800 
     59 N          -1.5346  -11.7349  -44.9978 N.am      3 UNK        -0.5000 
     60 C          -2.2364  -12.8722  -44.8753 C.2       2 UNK         0.5000 
     61 O          -2.0270  -13.7190  -44.0090 O.2       2 UNK        -0.5000 
     62 CA         -3.2804  -13.1416  -45.9645 C.3       2 UNK         0.1400 
     63 CB         -4.4991  -12.2108  -45.8333 C.3       2 UNK        -0.1800 
     64 N          -2.6183  -12.9670  -47.2492 N.am      2 UNK        -0.5000 
     65 C          -3.0054  -13.4127  -48.4438 C.2       1 UNK         0.5000 
     66 O          -4.0771  -13.9846  -48.6471 O.2       1 UNK        -0.5000 
     67 C          -1.3200  -21.4920  -46.8216 C.2       11 UNK         0.5000 
     68 O          -2.1888  -21.6993  -47.6705 O.2       11 UNK        -0.5000 
     69 N          -1.5730  -21.3133  -45.5178 N.am      12 UNK        -0.5000 
     70 CA         -2.9043  -21.1526  -44.9425 C.3       12 UNK         0.1400 
     71 CB         -2.7983  -20.3566  -43.6316 C.3       12 UNK        -0.1800 
     72 C          -3.6262  -22.4891  -44.7211 C.2       12 UNK         0.5000 
     73 O          -4.7029  -22.6909  -45.2812 O.2       12 UNK        -0.5000 
     74 N          -3.0370  -23.3750  -43.9049 N.am      13 UNK        -0.5000 
     75 CA         -3.6536  -24.6405  -43.4835 C.3       13 UNK         0.1400 
     76 CB         -2.8630  -25.2489  -42.3148 C.3       13 UNK        -0.1800 
     77 C          -3.8070  -25.6511  -44.6348 C.2       13 UNK         0.5000 
     78 O          -4.8028  -26.3734  -44.6868 O.2       13 UNK        -0.5000 
     79 N          -2.8412  -25.6436  -45.5615 N.am      14 UNK        -0.5000 
     80 CA         -2.8655  -26.3943  -46.8175 C.3       14 UNK         0.1400 
     81 CB         -1.4444  -26.4099  -47.4002 C.3       14 UNK        -0.1800 
     82 C          -3.8598  -25.8283  -47.8546 C.2       14 UNK         0.5000 
     83 O          -4.1200  -26.4955  -48.8560 O.2       14 UNK        -0.5000 
     84 N          -4.3727  -24.6107  -47.6135 N.am      15 UNK        -0.5000 
     85 CA         -5.3079  -23.8400  -48.4409 C.3       15 UNK         0.1400 
     86 CB         -6.6543  -24.5768  -48.5947 C.3       15 UNK        -0.1800 
     87 C          -4.7256  -23.3859  -49.7945 C.2       15 UNK         0.5000 
     88 O          -5.4822  -22.9710  -50.6723 O.2       15 UNK        -0.5000 
     89 N          -3.3946  -23.4240  -49.9379 N.am      16 UNK        -0.5000 
     90 CA         -2.6728  -23.0093  -51.1396 C.3       16 UNK         0.1400 
     91 CB         -1.2071  -23.4478  -51.0244 C.3       16 UNK        -0.1800 
     92 C          -2.7798  -21.4961  -51.3948 C.2       16 UNK         0.5000 
     93 O          -2.8952  -21.0846  -52.5493 O.2       16 UNK        -0.5000 
     94 N          -2.7865  -20.7027  -50.3147 N.am      17 UNK        -0.5000 
     95 CA         -3.0254  -19.2603  -50.3494 C.3       17 UNK         0.1400 
     96 CB         -2.6275  -18.6451  -48.9998 C.3       17 UNK        -0.1800 
     97 C          -4.4849  -18.9194  -50.6967 C.2       17 UNK         0.5000 
     98 O          -4.7258  -17.9908  -51.4662 O.2       17 UNK        -0.5000 
     99 N          -5.4307  -19.7000  -50.1539 N.am      18 UNK        -0.5000 
    100 CA        -6.8678  -19.5569  -50.4010 C.3       18 UNK         0.1400 
    101 CB        -7.6503  -20.4137  -49.3938 C.3       18 UNK        -0.1800 
    102 C         -7.2532  -19.9137  -51.8486 C.2       18 UNK         0.5000 
    103 O         -8.0641  -19.2136  -52.4555 O.2       18 UNK        -0.5000 
    104 N         -6.6352  -20.9747  -52.3840 N.am      19 UNK        -0.5000 
    105 CA        -6.7585  -21.4023  -53.7780 C.3       19 UNK         0.1400 
    106 CB        -6.2486  -22.8478  -53.8919 C.3       19 UNK        -0.1800 
    107 C         -5.9950  -20.4960  -54.7649 C.2       19 UNK         0.5000 
    108 O         -6.2760  -20.5477  -55.9628 O.2       19 UNK        -0.5000 
    109 N         -5.0317  -19.7150  -54.2506 N.am      20 UNK        -0.5000 
    110 CA        -4.0593  -18.8911  -54.9770 C.3       20 UNK         0.1400 
    111 CB        -4.7537  -17.7224  -55.7047 C.3       20 UNK        -0.1800 
    112 C         -3.1607  -19.7408  -55.9010 C.2       20 UNK         0.5000 
    113 O         -2.8412  -19.3319  -57.0194 O.2       20 UNK        -0.5000 
    114 N         -2.7663  -20.9215  -55.4028 N.am      21 UNK        -0.5000 
    115 CA        -2.0219  -21.9580  -56.1240 C.3       21 UNK         0.1400 
    116 CB        -1.9522  -23.2131  -55.2405 C.3       21 UNK        -0.1800 
    117 C         -0.6089  -21.5261  -56.5595 C.2       21 UNK         0.5000 
    118 O         -0.0714  -22.0756  -57.5217 O.2       21 UNK        -0.5000 
    119 N         -0.0486  -20.5423  -55.8494 N.am      22 UNK        -0.5000 
    120 CA         1.2406  -19.9030  -56.1443 C.3       22 UNK         0.1400 
    121 C          1.1594  -18.8077  -57.2502 C.2       22 UNK         0.5000 
    122 N         -0.0131  -18.4503  -57.7644 N.am      22 UNK        -0.7600 
    123 O          2.1870  -18.2749  -57.6600 O.2       22 UNK        -0.5000 
    124 C124        1.9027  -19.3501  -54.8558 C.3       23 UNK        -0.0398 
    125 S125        2.1970  -20.6438  -53.5981 S.3       23 UNK        -0.2404 
    126 C126        0.7557  -20.4653  -52.4974 C.3       23 UNK        -0.0205 
    127 H127       -1.2425   -9.2487  -50.1989 H         1 UNK         0.0600 
    128 H128        0.3561   -9.3218  -49.4507 H         1 UNK         0.0600 
    129 H129       -1.0549   -8.8903  -48.4790 H         1 UNK         0.0600 
    130 H130       -2.1308  -11.2633  -50.5295 H         1 UNK         0.3000 
    131 H131       -1.0664  -13.6246  -49.2787 H         1 UNK         0.0600 
    132 H132       -3.4462  -13.6050  -51.1832 H         1 UNK         0.0800 
    133 H133       -1.8275  -13.3439  -51.7622 H         1 UNK         0.0800 
    134 H134        0.1999  -14.7885  -51.0679 H         1 UNK         0.0800 
    135 H135       -0.3049  -15.4895  -52.5861 H         1 UNK         0.0800 
    136 H136       -0.3677  -17.9920  -52.8474 H         1 UNK         0.1150 
    137 H137        2.1164  -20.2307  -50.1709 H         1 UNK         0.1150 
    138 H138        1.1277  -16.1518  -49.2812 H         1 UNK         0.1150 
    139 H139        2.1981  -17.4720  -47.5970 H         1 UNK         0.0800 
    140 H140        3.5613  -18.0154  -48.5402 H         1 UNK         0.0800 
    141 H141        0.1639  -19.2366  -47.4638 H         1 UNK         0.0800 
    142 H142        0.6586  -19.7649  -45.8819 H         1 UNK         0.0800 
    143 H143        0.2000  -21.5543  -48.3255 H         1 UNK         0.0600 
    144 H144        1.0856  -22.2973  -45.5790 H         1 UNK         0.3000 
    145 H145        1.6590  -25.5961  -46.3900 H         1 UNK         0.0600 
    146 H146        3.7031  -24.8407  -47.6112 H         1 UNK         0.0600 
    147 H147        4.0997  -25.3397  -45.9751 H         1 UNK         0.0600 
    148 H148        4.0091  -23.6238  -46.3782 H         1 UNK         0.0600 
    149 H149        2.7430  -23.9791  -44.2900 H         1 UNK         0.3000 
    150 H150       -0.1984  -23.6968  -42.3250 H         1 UNK         0.0600 
    151 H151        2.2855  -25.4356  -41.8848 H         1 UNK         0.0600 
    152 H152        0.6232  -26.0106  -41.8346 H         1 UNK         0.0600 
    153 H153        1.1820  -24.8544  -40.6372 H         1 UNK         0.0600 
    154 H154        2.3878  -22.9184  -41.6539 H         1 UNK         0.3000 
    155 H155        3.3405  -20.9461  -42.0088 H         1 UNK         0.0600 
    156 H156        3.6592  -18.8801  -43.3206 H         1 UNK         0.0600 
    157 H157        2.1413  -19.1352  -44.1683 H         1 UNK         0.0600 
    158 H158        3.4759  -20.2559  -44.3993 H         1 UNK         0.0600 
    159 H159        1.0568  -19.0216  -41.9569 H         1 UNK         0.3000 
    160 H160        0.0781  -19.4958  -39.0211 H         1 UNK         0.0600 
    161 H161        2.4803  -17.7169  -38.3598 H         1 UNK         0.0600 
    162 H162        1.9341  -19.1238  -37.4617 H         1 UNK         0.0600 
    163 H163        0.9340  -17.6831  -37.5127 H         1 UNK         0.0600 
    164 H164       -0.7590  -17.8696  -40.2203 H         1 UNK         0.3000 
    165 H165       -1.1584  -16.0917  -41.2901 H         1 UNK         0.0600 
    166 H166       -0.7076  -13.6657  -41.4634 H         1 UNK         0.0600 
    167 H167       -0.2103  -14.2674  -39.8888 H         1 UNK         0.0600 
    168 H168        1.0013  -13.9301  -41.1181 H         1 UNK         0.0600 
    169 H169        0.2703  -14.9107  -43.3502 H         1 UNK         0.3000 
    170 H170        0.9204  -17.4222  -45.5486 H         1 UNK         0.0600 
    171 H171       -1.0317  -16.8911  -47.0162 H         1 UNK         0.0600 
    172 H172       -1.9372  -16.3153  -45.6170 H         1 UNK         0.0600 
    173 H173       -1.4828  -18.0103  -45.7400 H         1 UNK         0.0600 
    174 H174       -0.1039  -14.6657  -45.7311 H         1 UNK         0.3000 
    175 H175        3.0777  -13.1846  -45.6803 H         1 UNK         0.0600 
    176 H176        3.0895  -14.0713  -48.0172 H         1 UNK         0.0600 
    177 H177        1.3696  -13.7329  -48.1710 H         1 UNK         0.0600 
    178 H178        2.5178  -12.4099  -47.9795 H         1 UNK         0.0600 
    179 H179        0.5161  -12.1813  -46.4409 H         1 UNK         0.3000 
    180 H180       -0.6718  -11.4790  -43.1198 H         1 UNK         0.0600 
    181 H181        0.2282   -9.7086  -45.4595 H         1 UNK         0.0600 
    182 H182        0.8094   -9.5810  -43.8031 H         1 UNK         0.0600 
    183 H183       -0.8748   -9.2387  -44.1659 H         1 UNK         0.0600 
    184 H184       -1.7728  -11.0903  -45.7375 H         1 UNK         0.3000 
    185 H185       -3.6095  -14.1789  -45.8740 H         1 UNK         0.0600 
    186 H186       -4.9572  -12.3063  -44.8481 H         1 UNK         0.0600 
    187 H187       -4.2270  -11.1638  -45.9711 H         1 UNK         0.0600 
    188 H188       -5.2639  -12.4552  -46.5704 H         1 UNK         0.0600 
    189 H189       -1.7247  -12.4829  -47.2240 H         1 UNK         0.3000 
    190 H190       -0.7910  -21.2154  -44.8726 H         1 UNK         0.3000 
    191 H191       -3.5115  -20.5641  -45.6343 H         1 UNK         0.0600 
    192 H192       -2.4491  -19.3420  -43.8201 H         1 UNK         0.0600 
    193 H193       -3.7683  -20.2761  -43.1394 H         1 UNK         0.0600 
    194 H194       -2.1062  -20.8188  -42.9266 H         1 UNK         0.0600 
    195 H195       -2.1277  -23.1587  -43.5263 H         1 UNK         0.3000 
    196 H196       -4.6568  -24.4093  -43.1187 H         1 UNK         0.0600 
    197 H197       -3.3790  -26.1227  -41.9150 H         1 UNK         0.0600 
    198 H198       -2.7504  -24.5371  -41.4970 H         1 UNK         0.0600 
    199 H199       -1.8696  -25.5750  -42.6197 H         1 UNK         0.0600 
    200 H200       -2.0091  -25.0902  -45.3754 H         1 UNK         0.3000 
    201 H201       -3.1623  -27.4224  -46.6005 H         1 UNK         0.0600 
    202 H202       -1.3970  -27.0130  -48.3077 H         1 UNK         0.0600 
    203 H203       -0.7298  -26.8300  -46.6922 H         1 UNK         0.0600 
    204 H204       -1.1118  -25.4043  -47.6570 H         1 UNK         0.0600 
    205 H205       -4.1098  -24.1536  -46.7487 H         1 UNK         0.3000 
    206 H206       -5.5040  -22.9212  -47.8871 H         1 UNK         0.0600 
    207 H207       -7.0523  -24.8751  -47.6248 H         1 UNK         0.0600 
    208 H208       -7.4009  -23.9376  -49.0668 H         1 UNK         0.0600 
    209 H209       -6.5600  -25.4718  -49.2099 H         1 UNK         0.0600 
    210 H210       -2.8390  -23.7135  -49.1465 H         1 UNK         0.3000 
    211 H211       -3.1179  -23.5243  -51.9936 H         1 UNK         0.0600 
    212 H212       -0.6887  -22.9178  -50.2246 H         1 UNK         0.0600 
    213 H213       -0.6702  -23.2575  -51.9534 H         1 UNK         0.0600 
    214 H214       -1.1282  -24.5161  -50.8215 H         1 UNK         0.0600 
    215 H215       -2.6673  -21.1262  -49.3975 H         1 UNK         0.3000 
    216 H216       -2.3932  -18.8228  -51.1240 H         1 UNK         0.0600 
    217 H217       -2.8834  -17.5863  -48.9547 H         1 UNK         0.0600 
    218 H218       -1.5526  -18.7220  -48.8486 H         1 UNK         0.0600 
    219 H219       -3.1280  -19.1348  -48.1640 H         1 UNK         0.0600 
    220 H220       -5.1433  -20.4627  -49.5605 H         1 UNK         0.3000 
    221 H221       -7.1349  -18.5112  -50.2344 H         1 UNK         0.0600 
    222 H222       -7.4303  -21.4749  -49.5067 H         1 UNK         0.0600 
    223 H223       -7.4172  -20.1294  -48.3675 H         1 UNK         0.0600 
    224 H224       -8.7251  -20.2874  -49.5294 H         1 UNK         0.0600 
    225 H225       -6.0477  -21.5512  -51.7863 H         1 UNK         0.3000 
    226 H226       -7.8140  -21.3846  -54.0569 H         1 UNK         0.0600 
    227 H227       -6.3488  -23.2215  -54.9117 H         1 UNK         0.0600 
    228 H228       -5.1960  -22.9237  -53.6154 H         1 UNK         0.0600 
    229 H229       -6.8131  -23.5176  -53.2429 H         1 UNK         0.0600 
    230 H230       -4.8816  -19.7702  -53.2525 H         1 UNK         0.3000 
    231 H231       -3.4002  -18.4631  -54.2201 H         1 UNK         0.0600 
    232 H232       -5.3877  -18.0695  -56.5209 H         1 UNK         0.0600 
    233 H233       -4.0195  -17.0376  -56.1305 H         1 UNK         0.0600 
    234 H234       -5.3742  -17.1463  -55.0182 H         1 UNK         0.0600 
    235 H235       -3.0081  -21.1282  -54.4367 H         1 UNK         0.3000 
    236 H236       -2.5837  -22.2017  -57.0278 H         1 UNK         0.0600 
    237 H237       -1.4117  -23.0190  -54.3135 H         1 UNK         0.0600 
    238 H238       -2.9490  -23.5690  -54.9795 H         1 UNK         0.0600 
    239 H239       -1.4405  -24.0272  -55.7554 H         1 UNK         0.0600 
    240 H240       -0.5817  -20.1485  -55.0906 H         1 UNK         0.3000 
    241 H241        1.9076  -20.6694  -56.5438 H         1 UNK         0.0600 
    242 H242       -0.8800  -18.8780  -57.4593 H         1 UNK         0.3800 
    243 H243       -0.0383  -17.7440  -58.4828 H         1 UNK         0.3800 
    244 H244        1.3074  -18.5413  -54.4343 H         1 UNK         0.0800 
    245 H245        2.8738  -18.9110  -55.0911 H         1 UNK         0.0800 
    246 H246       -0.1677  -20.4409  -53.0758 H         1 UNK         0.0800 
    247 H247        0.6952  -21.3550  -51.8713 H         1 UNK         0.0800 
@<TRIPOS>BOND
     1    1    2 1    
     2    1  127 1    
     3    1  128 1    
     4    1  129 1    
     5    2    3 2    
     6    2    4 am   BACKBONE|DICT|INTERRES
     7    4    5 1    
     8    4  130 1    
     9    5    6 1    
    10    5   65 1    
    11    5  131 1    
    12    6    7 1    
    13    6  132 1    
    14    6  133 1    
    15    7    8 1    
    16    8    9 1    
    17    8  134 1    
    18    8  135 1    
    19    9   10 ar   
    20    9   14 ar   
    21   10   11 ar   
    22   10  136 1    
    23   11   12 ar   
    24   11  126 1    
    25   12   13 ar   
    26   12  137 1    
    27   13   14 ar   
    28   13   15 1    
    29   14  138 1    
    30   15   16 1    
    31   15  139 1    
    32   15  140 1    
    33   16   17 1    
    34   17   18 1    
    35   17  141 1    
    36   17  142 1    
    37   18   19 1    
    38   18   67 1    
    39   18  143 1    
    40   19   20 am   BACKBONE|DICT|INTERRES
    41   19  144 1    
    42   20   21 2    
    43   20   22 1    
    44   22   23 1    
    45   22   24 1    
    46   22  145 1    
    47   23  146 1    
    48   23  147 1    
    49   23  148 1    
    50   24   25 am   BACKBONE|DICT|INTERRES
    51   24  149 1    
    52   25   26 2    
    53   25   27 1    
    54   27   28 1    
    55   27   29 1    
    56   27  150 1    
    57   28  151 1    
    58   28  152 1    
    59   28  153 1    
    60   29   30 am   BACKBONE|DICT|INTERRES
    61   29  154 1    
    62   30   31 2    
    63   30   32 1    
    64   32   33 1    
    65   32   34 1    
    66   32  155 1    
    67   33  156 1    
    68   33  157 1    
    69   33  158 1    
    70   34   35 am   BACKBONE|DICT|INTERRES
    71   34  159 1    
    72   35   36 2    
    73   35   37 1    
    74   37   38 1    
    75   37   39 1    
    76   37  160 1    
    77   38  161 1    
    78   38  162 1    
    79   38  163 1    
    80   39   40 am   BACKBONE|DICT|INTERRES
    81   39  164 1    
    82   40   41 2    
    83   40   42 1    
    84   42   43 1    
    85   42   44 1    
    86   42  165 1    
    87   43  166 1    
    88   43  167 1    
    89   43  168 1    
    90   44   45 am   BACKBONE|DICT|INTERRES
    91   44  169 1    
    92   45   46 2    
    93   45   47 1    
    94   47   48 1    
    95   47   49 1    
    96   47  170 1    
    97   48  171 1    
    98   48  172 1    
    99   48  173 1    
   100   49   50 am   BACKBONE|DICT|INTERRES
   101   49  174 1    
   102   50   51 2    
   103   50   52 1    
   104   52   53 1    
   105   52   54 1    
   106   52  175 1    
   107   53  176 1    
   108   53  177 1    
   109   53  178 1    
   110   54   55 am   BACKBONE|DICT|INTERRES
   111   54  179 1    
   112   55   56 2    
   113   55   57 1    
   114   57   58 1    
   115   57   59 1    
   116   57  180 1    
   117   58  181 1    
   118   58  182 1    
   119   58  183 1    
   120   59   60 am   BACKBONE|DICT|INTERRES
   121   59  184 1    
   122   60   61 2    
   123   60   62 1    
   124   62   63 1    
   125   62   64 1    
   126   62  185 1    
   127   63  186 1    
   128   63  187 1    
   129   63  188 1    
   130   64   65 am   BACKBONE|DICT|INTERRES
   131   64  189 1    
   132   65   66 2    
   133   67   68 2    
   134   67   69 am   BACKBONE|DICT|INTERRES
   135   69   70 1    
   136   69  190 1    
   137   70   71 1    
   138   70   72 1    
   139   70  191 1    
   140   71  192 1    
   141   71  193 1    
   142   71  194 1    
   143   72   73 2    
   144   72   74 am   BACKBONE|DICT|INTERRES
   145   74   75 1    
   146   74  195 1    
   147   75   76 1    
   148   75   77 1    
   149   75  196 1    
   150   76  197 1    
   151   76  198 1    
   152   76  199 1    
   153   77   78 2    
   154   77   79 am   BACKBONE|DICT|INTERRES
   155   79   80 1    
   156   79  200 1    
   157   80   81 1    
   158   80   82 1    
   159   80  201 1    
   160   81  202 1    
   161   81  203 1    
   162   81  204 1    
   163   82   83 2    
   164   82   84 am   BACKBONE|DICT|INTERRES
   165   84   85 1    
   166   84  205 1    
   167   85   86 1    
   168   85   87 1    
   169   85  206 1    
   170   86  207 1    
   171   86  208 1    
   172   86  209 1    
   173   87   88 2    
   174   87   89 am   BACKBONE|DICT|INTERRES
   175   89   90 1    
   176   89  210 1    
   177   90   91 1    
   178   90   92 1    
   179   90  211 1    
   180   91  212 1    
   181   91  213 1    
   182   91  214 1    
   183   92   93 2    
   184   92   94 am   BACKBONE|DICT|INTERRES
   185   94   95 1    
   186   94  215 1    
   187   95   96 1    
   188   95   97 1    
   189   95  216 1    
   190   96  217 1    
   191   96  218 1    
   192   96  219 1    
   193   97   98 2    
   194   97   99 am   BACKBONE|DICT|INTERRES
   195   99  100 1    
   196   99  220 1    
   197  100  101 1    
   198  100  102 1    
   199  100  221 1    
   200  101  222 1    
   201  101  223 1    
   202  101  224 1    
   203  102  103 2    
   204  102  104 am   BACKBONE|DICT|INTERRES
   205  104  105 1    
   206  104  225 1    
   207  105  106 1    
   208  105  107 1    
   209  105  226 1    
   210  106  227 1    
   211  106  228 1    
   212  106  229 1    
   213  107  108 2    
   214  107  109 am   BACKBONE|DICT|INTERRES
   215  109  110 1    
   216  109  230 1    
   217  110  111 1    
   218  110  112 1    
   219  110  231 1    
   220  111  232 1    
   221  111  233 1    
   222  111  234 1    
   223  112  113 2    
   224  112  114 am   BACKBONE|DICT|INTERRES
   225  114  115 1    
   226  114  235 1    
   227  115  116 1    
   228  115  117 1    
   229  115  236 1    
   230  116  237 1    
   231  116  238 1    
   232  116  239 1    
   233  117  118 2    
   234  117  119 am   BACKBONE|DICT|INTERRES
   235  119  120 1    
   236  119  240 1    
   237  120  121 1    
   238  120  124 1    
   239  120  241 1    
   240  121  122 am   BACKBONE|DICT|INTERRES
   241  121  123 2    
   242  122  242 1    
   243  122  243 1    
   244  124  125 1    
   245  124  244 1    
   246  124  245 1    
   247  125  126 1    
   248  126  246 1    
   249  126  247 1    
@<TRIPOS>SUBSTRUCTURE
     1 UNK         1 GROUP             0       ****    0 ROOT    
