@<TRIPOS>MOLECULE
3R540
247   249    1
SMALL
USER_CHARGES


@<TRIPOS>ATOM
      1 CA         -2.4832  -11.0559  -46.9291 C.3       0 UNK        -0.1800 
      2 C          -1.2006  -11.3838  -46.1791 C.2       0 UNK         0.5000 
      3 O          -0.9268  -10.7846  -45.1385 O.2       0 UNK        -0.5000 
      4 N          -0.4200  -12.3471  -46.6891 N.am      1 UNK        -0.5000 
      5 CA          0.8619  -12.7868  -46.1186 C.3       1 UNK         0.1400 
      6 C6          1.6653  -13.6733  -47.0990 C.3       23 UNK        -0.0398 
      7 S7          0.8563  -15.2533  -47.5335 S.3       23 UNK        -0.2404 
      8 C8          1.8118  -15.6830  -49.0166 C.3       23 UNK        -0.0205 
      9 C9          1.5587  -17.1137  -49.4641 C.ar      23 UNK        -0.0193 
     10 C10         0.4075  -17.4325  -50.1878 C.ar      23 UNK        -0.1150 
     11 C11         0.1984  -18.7325  -50.6585 C.ar      23 UNK        -0.0193 
     12 C12         1.1589  -19.7185  -50.3991 C.ar      23 UNK        -0.1150 
     13 C13         2.3200  -19.4100  -49.6796 C.ar      23 UNK        -0.0193 
     14 C14         2.5034  -18.1089  -49.2024 C.ar      23 UNK        -0.1150 
     15 C15         3.4259  -20.4432  -49.4862 C.3       23 UNK        -0.0205 
     16 S16         2.9009  -21.9542  -48.6172 S.3       23 UNK        -0.2404 
     17 C17         2.4406  -21.3256  -46.9653 C.3       23 UNK        -0.0398 
     18 CA          1.1224  -21.9622  -46.4670 C.3       11 UNK         0.1400 
     19 N           0.9306  -21.8071  -45.0236 N.am      11 UNK        -0.5000 
     20 C          -0.0347  -22.4183  -44.3203 C.2       10 UNK         0.5000 
     21 O          -0.8358  -23.2164  -44.8055 O.2       10 UNK        -0.5000 
     22 CA         -0.1670  -22.0338  -42.8375 C.3       10 UNK         0.1400 
     23 CB          0.8844  -22.7578  -41.9836 C.3       10 UNK        -0.1800 
     24 N          -0.0682  -20.5910  -42.6270 N.am      10 UNK        -0.5000 
     25 C          -0.9184  -19.6866  -43.1332 C.2       9 UNK         0.5000 
     26 O          -1.9147  -19.9748  -43.7967 O.2       9 UNK        -0.5000 
     27 CA         -0.5687  -18.2084  -42.8903 C.3       9 UNK         0.1400 
     28 CB         -0.9402  -17.8014  -41.4538 C.3       9 UNK        -0.1800 
     29 N           0.8437  -17.9142  -43.1518 N.am      9 UNK        -0.5000 
     30 C           1.4471  -18.0749  -44.3407 C.2       8 UNK         0.5000 
     31 O           0.8650  -18.4398  -45.3593 O.2       8 UNK        -0.5000 
     32 CA          2.9709  -17.8733  -44.3884 C.3       8 UNK         0.1400 
     33 CB          3.3423  -16.3934  -44.5467 C.3       8 UNK        -0.1800 
     34 N           3.6250  -18.4257  -43.2047 N.am      8 UNK        -0.5000 
     35 C           3.7185  -19.7366  -42.9407 C.2       7 UNK         0.5000 
     36 O           3.3183  -20.6181  -43.7015 O.2       7 UNK        -0.5000 
     37 CA          4.3131  -20.1175  -41.5726 C.3       7 UNK         0.1400 
     38 CB          5.8477  -20.1280  -41.6315 C.3       7 UNK        -0.1800 
     39 N           3.8730  -19.2120  -40.5088 N.am      7 UNK        -0.5000 
     40 C           2.6082  -19.1188  -40.0726 C.2       6 UNK         0.5000 
     41 O           1.6978  -19.8410  -40.4747 O.2       6 UNK        -0.5000 
     42 CA          2.2997  -18.0045  -39.0547 C.3       6 UNK         0.1400 
     43 CB          2.4628  -18.5255  -37.6194 C.3       6 UNK        -0.1800 
     44 N           3.1399  -16.8185  -39.2402 N.am      6 UNK        -0.5000 
     45 C           3.0752  -15.9995  -40.2980 C.2       5 UNK         0.5000 
     46 O           2.2758  -16.1366  -41.2267 O.2       5 UNK        -0.5000 
     47 CA          4.1429  -14.9024  -40.3610 C.3       5 UNK         0.1400 
     48 CB          5.4011  -15.4323  -41.0765 C.3       5 UNK        -0.1800 
     49 N           3.6297  -13.7247  -41.0560 N.am      5 UNK        -0.5000 
     50 C           4.1656  -12.5007  -40.9534 C.2       4 UNK         0.5000 
     51 O           5.1341  -12.2398  -40.2378 O.2       4 UNK        -0.5000 
     52 CA          3.5273  -11.3713  -41.7778 C.3       4 UNK         0.1400 
     53 CB          4.1187  -11.3361  -43.1964 C.3       4 UNK        -0.1800 
     54 N           2.0714  -11.4866  -41.8515 N.am      4 UNK        -0.5000 
     55 C           1.2330  -11.0126  -40.9174 C.2       3 UNK         0.5000 
     56 O           1.6126  -10.4621  -39.8829 O.2       3 UNK        -0.5000 
     57 CA         -0.2820  -11.1432  -41.1769 C.3       3 UNK         0.1400 
     58 CB         -0.8566   -9.8075  -41.6733 C.3       3 UNK        -0.1800 
     59 N          -0.6099  -12.1844  -42.1483 N.am      3 UNK        -0.5000 
     60 C          -0.5982  -13.4974  -41.8802 C.2       2 UNK         0.5000 
     61 O          -0.3981  -13.9600  -40.7575 O.2       2 UNK        -0.5000 
     62 CA         -0.8284  -14.4560  -43.0662 C.3       2 UNK         0.1400 
     63 CB         -2.2950  -14.9130  -43.1073 C.3       2 UNK        -0.1800 
     64 N          -0.4784  -13.8935  -44.3702 N.am      2 UNK        -0.5000 
     65 C           0.7325  -13.4421  -44.7257 C.2       1 UNK         0.5000 
     66 O           1.7117  -13.4794  -43.9820 O.2       1 UNK        -0.5000 
     67 C          -0.0978  -21.4626  -47.2652 C.2       11 UNK         0.5000 
     68 O          -0.5972  -22.1983  -48.1150 O.2       11 UNK        -0.5000 
     69 N          -0.5874  -20.2569  -46.9445 N.am      12 UNK        -0.5000 
     70 CA         -1.7620  -19.6469  -47.5658 C.3       12 UNK         0.1400 
     71 CB         -1.9590  -18.2238  -47.0238 C.3       12 UNK        -0.1800 
     72 C          -3.0403  -20.4860  -47.4007 C.2       12 UNK         0.5000 
     73 O          -3.8106  -20.5991  -48.3525 O.2       12 UNK        -0.5000 
     74 N          -3.2225  -21.0871  -46.2174 N.am      13 UNK        -0.5000 
     75 CA         -4.3100  -22.0182  -45.9271 C.3       13 UNK         0.1400 
     76 CB         -4.3862  -22.2578  -44.4114 C.3       13 UNK        -0.1800 
     77 C          -4.1712  -23.3506  -46.6882 C.2       13 UNK         0.5000 
     78 O          -5.1531  -23.8248  -47.2598 O.2       13 UNK        -0.5000 
     79 N          -2.9645  -23.9335  -46.6799 N.am      14 UNK        -0.5000 
     80 CA         -2.6678  -25.2302  -47.2909 C.3       14 UNK         0.1400 
     81 CB         -1.3042  -25.7314  -46.7907 C.3       14 UNK        -0.1800 
     82 C          -2.6983  -25.2093  -48.8290 C.2       14 UNK         0.5000 
     83 O          -3.2273  -26.1404  -49.4372 O.2       14 UNK        -0.5000 
     84 N          -2.1236  -24.1608  -49.4315 N.am      15 UNK        -0.5000 
     85 CA         -1.9802  -24.0166  -50.8808 C.3       15 UNK         0.1400 
     86 CB         -0.8214  -23.0545  -51.1802 C.3       15 UNK        -0.1800 
     87 C          -3.2632  -23.5536  -51.5928 C.2       15 UNK         0.5000 
     88 O          -3.3007  -23.6022  -52.8232 O.2       15 UNK        -0.5000 
     89 N          -4.2803  -23.1118  -50.8388 N.am      16 UNK        -0.5000 
     90 CA         -5.5869  -22.6758  -51.3371 C.3       16 UNK         0.1400 
     91 CB         -6.2878  -21.8330  -50.2579 C.3       16 UNK        -0.1800 
     92 C          -6.4553  -23.8599  -51.8176 C.2       16 UNK         0.5000 
     93 O          -7.4721  -24.1749  -51.1955 O.2       16 UNK        -0.5000 
     94 N          -6.0227  -24.5140  -52.8998 N.am      17 UNK        -0.5000 
     95 CA         -6.6494  -25.7038  -53.4751 C.3       17 UNK         0.1400 
     96 CB         -6.0449  -26.9552  -52.8111 C.3       17 UNK        -0.1800 
     97 C          -6.5348  -25.7691  -55.0112 C.2       17 UNK         0.5000 
     98 O          -6.9951  -26.7510  -55.5973 O.2       17 UNK        -0.5000 
     99 N          -5.9319  -24.7570  -55.6490 N.am      18 UNK        -0.5000 
    100 CA        -5.7856  -24.6686  -57.1020 C.3       18 UNK         0.1400 
    101 CB        -4.4498  -23.9752  -57.4196 C.3       18 UNK        -0.1800 
    102 C         -6.9546  -23.8875  -57.7270 C.2       18 UNK         0.5000 
    103 O         -7.7134  -23.2209  -57.0187 O.2       18 UNK        -0.5000 
    104 N         -7.0459  -23.9300  -59.0635 N.am      19 UNK        -0.5000 
    105 CA        -8.0028  -23.1494  -59.8587 C.3       19 UNK         0.1400 
    106 CB        -7.9521  -23.6267  -61.3179 C.3       19 UNK        -0.1800 
    107 C         -7.7603  -21.6267  -59.7785 C.2       19 UNK         0.5000 
    108 O         -8.7060  -20.8498  -59.9097 O.2       19 UNK        -0.5000 
    109 N         -6.5044  -21.2368  -59.5220 N.am      20 UNK        -0.5000 
    110 CA        -6.0636  -19.8643  -59.2629 C.3       20 UNK         0.1400 
    111 CB        -4.6808  -19.6714  -59.9106 C.3       20 UNK        -0.1800 
    112 C         -6.0307  -19.5399  -57.7515 C.2       20 UNK         0.5000 
    113 O         -5.3408  -18.6019  -57.3493 O.2       20 UNK        -0.5000 
    114 N         -6.7521  -20.3300  -56.9413 N.am      21 UNK        -0.5000 
    115 CA        -6.7679  -20.3642  -55.4786 C.3       21 UNK         0.1400 
    116 CB        -7.1883  -19.0169  -54.8525 C.3       21 UNK        -0.1800 
    117 C         -5.4396  -20.9131  -54.9363 C.2       21 UNK         0.5000 
    118 O         -5.3534  -22.1136  -54.6835 O.2       21 UNK        -0.5000 
    119 N         -4.4358  -20.0427  -54.7856 N.am      22 UNK        -0.5000 
    120 CA        -3.0713  -20.3865  -54.3670 C.3       22 UNK         0.1400 
    121 C         -2.3543  -21.2601  -55.4363 C.2       22 UNK         0.5000 
    122 N         -2.1200  -22.5334  -55.1535 N.am      22 UNK        -0.7600 
    123 O         -2.0015  -20.7842  -56.5129 O.2       22 UNK        -0.5000 
    124 C124       -2.2805  -19.0984  -54.0214 C.3       23 UNK        -0.0398 
    125 S125       -0.6742  -19.3997  -53.2019 S.3       23 UNK        -0.2404 
    126 C126       -1.0598  -19.0529  -51.4566 C.3       23 UNK        -0.0205 
    127 H127       -2.5999  -11.6715  -47.8213 H         1 UNK         0.0600 
    128 H128       -2.4809  -10.0098  -47.2351 H         1 UNK         0.0600 
    129 H129       -3.3468  -11.2221  -46.2851 H         1 UNK         0.0600 
    130 H130       -0.7034  -12.8223  -47.5347 H         1 UNK         0.3000 
    131 H131        1.4529  -11.8819  -45.9604 H         1 UNK         0.0600 
    132 H132        2.6537  -13.8891  -46.6895 H         1 UNK         0.0800 
    133 H133        1.8469  -13.1123  -48.0170 H         1 UNK         0.0800 
    134 H134        2.8743  -15.5366  -48.8156 H         1 UNK         0.0800 
    135 H135        1.5544  -14.9953  -49.8236 H         1 UNK         0.0800 
    136 H136       -0.3196  -16.6595  -50.3934 H         1 UNK         0.1150 
    137 H137        1.0158  -20.7201  -50.7786 H         1 UNK         0.1150 
    138 H138        3.4028  -17.8583  -48.6577 H         1 UNK         0.1150 
    139 H139        3.8064  -20.7259  -50.4685 H         1 UNK         0.0800 
    140 H140        4.2716  -20.0117  -48.9483 H         1 UNK         0.0800 
    141 H141        2.3745  -20.2364  -46.9676 H         1 UNK         0.0800 
    142 H142        3.2560  -21.5771  -46.2861 H         1 UNK         0.0800 
    143 H143        1.1948  -23.0384  -46.6408 H         1 UNK         0.0600 
    144 H144        1.5751  -21.1900  -44.5401 H         1 UNK         0.3000 
    145 H145       -1.1557  -22.3507  -42.4994 H         1 UNK         0.0600 
    146 H146        0.7457  -22.5435  -40.9237 H         1 UNK         0.0600 
    147 H147        1.8983  -22.4621  -42.2534 H         1 UNK         0.0600 
    148 H148        0.8123  -23.8387  -42.1097 H         1 UNK         0.0600 
    149 H149        0.6930  -20.2682  -42.0357 H         1 UNK         0.3000 
    150 H150       -1.1579  -17.6087  -43.5852 H         1 UNK         0.0600 
    151 H151       -2.0222  -17.8154  -41.3199 H         1 UNK         0.0600 
    152 H152       -0.5937  -16.7990  -41.2070 H         1 UNK         0.0600 
    153 H153       -0.5189  -18.4814  -40.7148 H         1 UNK         0.0600 
    154 H154        1.3904  -17.5566  -42.3759 H         1 UNK         0.3000 
    155 H155        3.3473  -18.4061  -45.2646 H         1 UNK         0.0600 
    156 H156        3.0068  -15.7961  -43.7002 H         1 UNK         0.0600 
    157 H157        2.8846  -15.9762  -45.4425 H         1 UNK         0.0600 
    158 H158        4.4201  -16.2635  -44.6428 H         1 UNK         0.0600 
    159 H159        3.9373  -17.7661  -42.5092 H         1 UNK         0.3000 
    160 H160        3.9717  -21.1256  -41.3280 H         1 UNK         0.0600 
    161 H161        6.2515  -19.1385  -41.8499 H         1 UNK         0.0600 
    162 H162        6.2030  -20.8066  -42.4083 H         1 UNK         0.0600 
    163 H163        6.2759  -20.4646  -40.6872 H         1 UNK         0.0600 
    164 H164        4.5672  -18.5957  -40.1140 H         1 UNK         0.3000 
    165 H165        1.2585  -17.7064  -39.1932 H         1 UNK         0.0600 
    166 H166        2.1763  -17.7678  -36.8899 H         1 UNK         0.0600 
    167 H167        1.8292  -19.3967  -37.4468 H         1 UNK         0.0600 
    168 H168        3.4917  -18.8214  -37.4113 H         1 UNK         0.0600 
    169 H169        3.8297  -16.6422  -38.5238 H         1 UNK         0.3000 
    170 H170        4.4005  -14.6227  -39.3371 H         1 UNK         0.0600 
    171 H171        5.1966  -15.6740  -42.1200 H         1 UNK         0.0600 
    172 H172        6.2081  -14.6999  -41.0582 H         1 UNK         0.0600 
    173 H173        5.7797  -16.3354  -40.5962 H         1 UNK         0.0600 
    174 H174        2.8217  -13.8823  -41.6467 H         1 UNK         0.3000 
    175 H175        3.7807  -10.4239  -41.2968 H         1 UNK         0.0600 
    176 H176        3.9924  -12.2858  -43.7161 H         1 UNK         0.0600 
    177 H177        3.6546  -10.5566  -43.8007 H         1 UNK         0.0600 
    178 H178        5.1887  -11.1277  -43.1626 H         1 UNK         0.0600 
    179 H179        1.7008  -11.9932  -42.6478 H         1 UNK         0.3000 
    180 H180       -0.7609  -11.3864  -40.2260 H         1 UNK         0.0600 
    181 H181       -1.9361   -9.8691  -41.8116 H         1 UNK         0.0600 
    182 H182       -0.4134   -9.5083  -42.6241 H         1 UNK         0.0600 
    183 H183       -0.6661   -9.0083  -40.9559 H         1 UNK         0.0600 
    184 H184       -0.7816  -11.8797  -43.0987 H         1 UNK         0.3000 
    185 H185       -0.1835  -15.3204  -42.9117 H         1 UNK         0.0600 
    186 H186       -2.9703  -14.0729  -43.2741 H         1 UNK         0.0600 
    187 H187       -2.4646  -15.6390  -43.9023 H         1 UNK         0.0600 
    188 H188       -2.5864  -15.3834  -42.1675 H         1 UNK         0.0600 
    189 H189       -1.2246  -13.8151  -45.0451 H         1 UNK         0.3000 
    190 H190       -0.1003  -19.6898  -46.2528 H         1 UNK         0.3000 
    191 H191       -1.5602  -19.5744  -48.6337 H         1 UNK         0.0600 
    192 H192       -1.0882  -17.6028  -47.2336 H         1 UNK         0.0600 
    193 H193       -2.1193  -18.2213  -45.9455 H         1 UNK         0.0600 
    194 H194       -2.8206  -17.7431  -47.4883 H         1 UNK         0.0600 
    195 H195       -2.5657  -20.8972  -45.4666 H         1 UNK         0.3000 
    196 H196       -5.2463  -21.5520  -46.2414 H         1 UNK         0.0600 
    197 H197       -4.5667  -21.3261  -43.8749 H         1 UNK         0.0600 
    198 H198       -3.4634  -22.6908  -44.0238 H         1 UNK         0.0600 
    199 H199       -5.2002  -22.9402  -44.1635 H         1 UNK         0.0600 
    200 H200       -2.2077  -23.4947  -46.1624 H         1 UNK         0.3000 
    201 H201       -3.4278  -25.9396  -46.9564 H         1 UNK         0.0600 
    202 H202       -1.3022  -25.8514  -45.7073 H         1 UNK         0.0600 
    203 H203       -0.5021  -25.0399  -47.0520 H         1 UNK         0.0600 
    204 H204       -1.0585  -26.7011  -47.2255 H         1 UNK         0.0600 
    205 H205       -1.6821  -23.4397  -48.8613 H         1 UNK         0.3000 
    206 H206       -1.7186  -24.9899  -51.3010 H         1 UNK         0.0600 
    207 H207       -1.0126  -22.0683  -50.7620 H         1 UNK         0.0600 
    208 H208        0.1147  -23.4186  -50.7563 H         1 UNK         0.0600 
    209 H209       -0.6687  -22.9335  -52.2536 H         1 UNK         0.0600 
    210 H210       -4.1632  -23.1176  -49.8353 H         1 UNK         0.3000 
    211 H211       -5.4226  -22.0170  -52.1873 H         1 UNK         0.0600 
    212 H212       -6.3870  -22.3781  -49.3187 H         1 UNK         0.0600 
    213 H213       -7.2881  -21.5377  -50.5769 H         1 UNK         0.0600 
    214 H214       -5.7360  -20.9151  -50.0604 H         1 UNK         0.0600 
    215 H215       -5.1504  -24.2025  -53.3175 H         1 UNK         0.3000 
    216 H216       -7.7199  -25.6838  -53.2615 H         1 UNK         0.0600 
    217 H217       -6.5060  -27.8680  -53.1901 H         1 UNK         0.0600 
    218 H218       -6.1968  -26.9424  -51.7316 H         1 UNK         0.0600 
    219 H219       -4.9723  -27.0248  -52.9962 H         1 UNK         0.0600 
    220 H220       -5.6836  -23.9143  -55.1368 H         1 UNK         0.3000 
    221 H221       -5.7651  -25.6694  -57.5382 H         1 UNK         0.0600 
    222 H222       -4.4460  -22.9337  -57.0973 H         1 UNK         0.0600 
    223 H223       -3.6189  -24.4794  -56.9262 H         1 UNK         0.0600 
    224 H224       -4.2417  -23.9862  -58.4898 H         1 UNK         0.0600 
    225 H225       -6.3947  -24.5025  -59.5818 H         1 UNK         0.3000 
    226 H226       -9.0043  -23.3439  -59.4691 H         1 UNK         0.0600 
    227 H227       -8.1968  -24.6863  -61.3955 H         1 UNK         0.0600 
    228 H228       -8.6716  -23.0831  -61.9318 H         1 UNK         0.0600 
    229 H229       -6.9654  -23.4757  -61.7575 H         1 UNK         0.0600 
    230 H230       -5.7998  -21.9531  -59.4268 H         1 UNK         0.3000 
    231 H231       -6.7560  -19.1600  -59.7282 H         1 UNK         0.0600 
    232 H232       -4.3435  -18.6381  -59.8206 H         1 UNK         0.0600 
    233 H233       -4.7068  -19.9087  -60.9743 H         1 UNK         0.0600 
    234 H234       -3.9264  -20.3053  -59.4426 H         1 UNK         0.0600 
    235 H235       -7.2534  -21.0981  -57.3700 H         1 UNK         0.3000 
    236 H236       -7.5346  -21.0914  -55.2063 H         1 UNK         0.0600 
    237 H237       -6.4936  -18.2073  -55.0740 H         1 UNK         0.0600 
    238 H238       -8.1725  -18.7135  -55.2095 H         1 UNK         0.0600 
    239 H239       -7.2504  -19.1010  -53.7669 H         1 UNK         0.0600 
    240 H240       -4.5788  -19.1013  -55.1242 H         1 UNK         0.3000 
    241 H241       -3.1598  -20.9678  -53.4475 H         1 UNK         0.0600 
    242 H242       -1.6483  -23.1121  -55.8282 H         1 UNK         0.3800 
    243 H243       -2.4945  -22.9499  -54.3024 H         1 UNK         0.3800 
    244 H244       -2.8860  -18.4562  -53.3809 H         1 UNK         0.0800 
    245 H245       -2.0950  -18.5146  -54.9247 H         1 UNK         0.0800 
    246 H246       -1.5766  -19.9065  -51.0197 H         1 UNK         0.0800 
    247 H247       -1.7564  -18.2157  -51.3958 H         1 UNK         0.0800 
@<TRIPOS>BOND
     1    1    2 1    
     2    1  127 1    
     3    1  128 1    
     4    1  129 1    
     5    2    3 2    
     6    2    4 am   BACKBONE|DICT|INTERRES
     7    4    5 1    
     8    4  130 1    
     9    5    6 1    
    10    5   65 1    
    11    5  131 1    
    12    6    7 1    
    13    6  132 1    
    14    6  133 1    
    15    7    8 1    
    16    8    9 1    
    17    8  134 1    
    18    8  135 1    
    19    9   10 ar   
    20    9   14 ar   
    21   10   11 ar   
    22   10  136 1    
    23   11   12 ar   
    24   11  126 1    
    25   12   13 ar   
    26   12  137 1    
    27   13   14 ar   
    28   13   15 1    
    29   14  138 1    
    30   15   16 1    
    31   15  139 1    
    32   15  140 1    
    33   16   17 1    
    34   17   18 1    
    35   17  141 1    
    36   17  142 1    
    37   18   19 1    
    38   18   67 1    
    39   18  143 1    
    40   19   20 am   BACKBONE|DICT|INTERRES
    41   19  144 1    
    42   20   21 2    
    43   20   22 1    
    44   22   23 1    
    45   22   24 1    
    46   22  145 1    
    47   23  146 1    
    48   23  147 1    
    49   23  148 1    
    50   24   25 am   BACKBONE|DICT|INTERRES
    51   24  149 1    
    52   25   26 2    
    53   25   27 1    
    54   27   28 1    
    55   27   29 1    
    56   27  150 1    
    57   28  151 1    
    58   28  152 1    
    59   28  153 1    
    60   29   30 am   BACKBONE|DICT|INTERRES
    61   29  154 1    
    62   30   31 2    
    63   30   32 1    
    64   32   33 1    
    65   32   34 1    
    66   32  155 1    
    67   33  156 1    
    68   33  157 1    
    69   33  158 1    
    70   34   35 am   BACKBONE|DICT|INTERRES
    71   34  159 1    
    72   35   36 2    
    73   35   37 1    
    74   37   38 1    
    75   37   39 1    
    76   37  160 1    
    77   38  161 1    
    78   38  162 1    
    79   38  163 1    
    80   39   40 am   BACKBONE|DICT|INTERRES
    81   39  164 1    
    82   40   41 2    
    83   40   42 1    
    84   42   43 1    
    85   42   44 1    
    86   42  165 1    
    87   43  166 1    
    88   43  167 1    
    89   43  168 1    
    90   44   45 am   BACKBONE|DICT|INTERRES
    91   44  169 1    
    92   45   46 2    
    93   45   47 1    
    94   47   48 1    
    95   47   49 1    
    96   47  170 1    
    97   48  171 1    
    98   48  172 1    
    99   48  173 1    
   100   49   50 am   BACKBONE|DICT|INTERRES
   101   49  174 1    
   102   50   51 2    
   103   50   52 1    
   104   52   53 1    
   105   52   54 1    
   106   52  175 1    
   107   53  176 1    
   108   53  177 1    
   109   53  178 1    
   110   54   55 am   BACKBONE|DICT|INTERRES
   111   54  179 1    
   112   55   56 2    
   113   55   57 1    
   114   57   58 1    
   115   57   59 1    
   116   57  180 1    
   117   58  181 1    
   118   58  182 1    
   119   58  183 1    
   120   59   60 am   BACKBONE|DICT|INTERRES
   121   59  184 1    
   122   60   61 2    
   123   60   62 1    
   124   62   63 1    
   125   62   64 1    
   126   62  185 1    
   127   63  186 1    
   128   63  187 1    
   129   63  188 1    
   130   64   65 am   BACKBONE|DICT|INTERRES
   131   64  189 1    
   132   65   66 2    
   133   67   68 2    
   134   67   69 am   BACKBONE|DICT|INTERRES
   135   69   70 1    
   136   69  190 1    
   137   70   71 1    
   138   70   72 1    
   139   70  191 1    
   140   71  192 1    
   141   71  193 1    
   142   71  194 1    
   143   72   73 2    
   144   72   74 am   BACKBONE|DICT|INTERRES
   145   74   75 1    
   146   74  195 1    
   147   75   76 1    
   148   75   77 1    
   149   75  196 1    
   150   76  197 1    
   151   76  198 1    
   152   76  199 1    
   153   77   78 2    
   154   77   79 am   BACKBONE|DICT|INTERRES
   155   79   80 1    
   156   79  200 1    
   157   80   81 1    
   158   80   82 1    
   159   80  201 1    
   160   81  202 1    
   161   81  203 1    
   162   81  204 1    
   163   82   83 2    
   164   82   84 am   BACKBONE|DICT|INTERRES
   165   84   85 1    
   166   84  205 1    
   167   85   86 1    
   168   85   87 1    
   169   85  206 1    
   170   86  207 1    
   171   86  208 1    
   172   86  209 1    
   173   87   88 2    
   174   87   89 am   BACKBONE|DICT|INTERRES
   175   89   90 1    
   176   89  210 1    
   177   90   91 1    
   178   90   92 1    
   179   90  211 1    
   180   91  212 1    
   181   91  213 1    
   182   91  214 1    
   183   92   93 2    
   184   92   94 am   BACKBONE|DICT|INTERRES
   185   94   95 1    
   186   94  215 1    
   187   95   96 1    
   188   95   97 1    
   189   95  216 1    
   190   96  217 1    
   191   96  218 1    
   192   96  219 1    
   193   97   98 2    
   194   97   99 am   BACKBONE|DICT|INTERRES
   195   99  100 1    
   196   99  220 1    
   197  100  101 1    
   198  100  102 1    
   199  100  221 1    
   200  101  222 1    
   201  101  223 1    
   202  101  224 1    
   203  102  103 2    
   204  102  104 am   BACKBONE|DICT|INTERRES
   205  104  105 1    
   206  104  225 1    
   207  105  106 1    
   208  105  107 1    
   209  105  226 1    
   210  106  227 1    
   211  106  228 1    
   212  106  229 1    
   213  107  108 2    
   214  107  109 am   BACKBONE|DICT|INTERRES
   215  109  110 1    
   216  109  230 1    
   217  110  111 1    
   218  110  112 1    
   219  110  231 1    
   220  111  232 1    
   221  111  233 1    
   222  111  234 1    
   223  112  113 2    
   224  112  114 am   BACKBONE|DICT|INTERRES
   225  114  115 1    
   226  114  235 1    
   227  115  116 1    
   228  115  117 1    
   229  115  236 1    
   230  116  237 1    
   231  116  238 1    
   232  116  239 1    
   233  117  118 2    
   234  117  119 am   BACKBONE|DICT|INTERRES
   235  119  120 1    
   236  119  240 1    
   237  120  121 1    
   238  120  124 1    
   239  120  241 1    
   240  121  122 am   BACKBONE|DICT|INTERRES
   241  121  123 2    
   242  122  242 1    
   243  122  243 1    
   244  124  125 1    
   245  124  244 1    
   246  124  245 1    
   247  125  126 1    
   248  126  246 1    
   249  126  247 1    
@<TRIPOS>SUBSTRUCTURE
     1 UNK         1 GROUP             0       ****    0 ROOT    
