@<TRIPOS>MOLECULE
3R540
247   249    1
SMALL
USER_CHARGES


@<TRIPOS>ATOM
      1 CA         -0.4146  -13.7268  -48.2147 C.3       0 UNK        -0.1800 
      2 C           0.9488  -13.0660  -48.3502 C.2       0 UNK         0.5000 
      3 O           1.1800  -12.0029  -47.7753 O.2       0 UNK        -0.5000 
      4 N           1.8527  -13.6992  -49.1071 N.am      1 UNK        -0.5000 
      5 CA          3.2181  -13.2190  -49.3671 C.3       1 UNK         0.1400 
      6 C6          3.8159  -13.8254  -50.6624 C.3       23 UNK        -0.0398 
      7 S7          2.7864  -13.5412  -52.1434 S.3       23 UNK        -0.2404 
      8 C8          2.3191  -15.2407  -52.6031 C.3       23 UNK        -0.0205 
      9 C9          1.2533  -15.8105  -51.6794 C.ar      23 UNK        -0.0193 
     10 C10        -0.0943  -15.5191  -51.9083 C.ar      23 UNK        -0.1150 
     11 C11        -1.0880  -16.0591  -51.0873 C.ar      23 UNK        -0.0193 
     12 C12        -0.7234  -16.8801  -50.0174 C.ar      23 UNK        -0.1150 
     13 C13         0.6223  -17.1554  -49.7608 C.ar      23 UNK        -0.0193 
     14 C14         1.6066  -16.6305  -50.6028 C.ar      23 UNK        -0.1150 
     15 C15         1.0096  -17.9758  -48.5435 C.3       23 UNK        -0.0205 
     16 S16         1.4473  -19.6888  -48.9647 S.3       23 UNK        -0.2404 
     17 C17         1.6561  -20.3856  -47.2812 C.3       23 UNK        -0.0398 
     18 CA          0.7386  -21.5675  -46.8354 C.3       11 UNK         0.1400 
     19 N           0.4595  -21.5181  -45.3950 N.am      11 UNK        -0.5000 
     20 C          -0.0800  -22.5133  -44.6767 C.2       10 UNK         0.5000 
     21 O          -0.3617  -23.6166  -45.1422 O.2       10 UNK        -0.5000 
     22 CA         -0.4041  -22.2130  -43.2013 C.3       10 UNK         0.1400 
     23 CB          0.8527  -22.3286  -42.3265 C.3       10 UNK        -0.1800 
     24 N          -1.0226  -20.8992  -43.0144 N.am      10 UNK        -0.5000 
     25 C          -2.2152  -20.5488  -43.5181 C.2       9 UNK         0.5000 
     26 O          -2.9382  -21.3135  -44.1543 O.2       9 UNK        -0.5000 
     27 CA         -2.6561  -19.0872  -43.3281 C.3       9 UNK         0.1400 
     28 CB         -3.2489  -18.8708  -41.9281 C.3       9 UNK        -0.1800 
     29 N          -1.5702  -18.1358  -43.5616 N.am      9 UNK        -0.5000 
     30 C          -0.9245  -17.9899  -44.7273 C.2       8 UNK         0.5000 
     31 O          -1.2050  -18.6159  -45.7487 O.2       8 UNK        -0.5000 
     32 CA          0.2760  -17.0282  -44.7375 C.3       8 UNK         0.1400 
     33 CB         -0.1908  -15.5677  -44.8287 C.3       8 UNK        -0.1800 
     34 N           1.1422  -17.2117  -43.5725 N.am      8 UNK        -0.5000 
     35 C           1.8172  -18.3384  -43.2991 C.2       7 UNK         0.5000 
     36 O           1.8255  -19.3252  -44.0340 O.2       7 UNK        -0.5000 
     37 CA          2.5599  -18.3953  -41.9535 C.3       7 UNK         0.1400 
     38 CB          3.9376  -17.7221  -42.0418 C.3       7 UNK        -0.1800 
     39 N           1.7796  -17.7865  -40.8779 N.am      7 UNK        -0.5000 
     40 C           0.6549  -18.3125  -40.3727 C.2       6 UNK         0.5000 
     41 O           0.1837  -19.3923  -40.7295 O.2       6 UNK        -0.5000 
     42 CA         -0.0885  -17.4640  -39.3252 C.3       6 UNK         0.1400 
     43 CB          0.5159  -17.6737  -37.9289 C.3       6 UNK        -0.1800 
     44 N          -0.0727  -16.0370  -39.6528 N.am      6 UNK        -0.5000 
     45 C          -0.7027  -15.4975  -40.7062 C.2       5 UNK         0.5000 
     46 O          -1.4008  -16.1426  -41.4866 O.2       5 UNK        -0.5000 
     47 CA         -0.4743  -13.9960  -40.9575 C.3       5 UNK         0.1400 
     48 CB         -1.4836  -13.1558  -40.1613 C.3       5 UNK        -0.1800 
     49 N           0.8866  -13.5591  -40.6344 N.am      5 UNK        -0.5000 
     50 C           1.9906  -13.9825  -41.2628 C.2       4 UNK         0.5000 
     51 O           1.9876  -14.8089  -42.1791 O.2       4 UNK        -0.5000 
     52 CA          3.3213  -13.4308  -40.7414 C.3       4 UNK         0.1400 
     53 CB          3.8299  -14.2713  -39.5578 C.3       4 UNK        -0.1800 
     54 N           4.3082  -13.4602  -41.8151 N.am      4 UNK        -0.5000 
     55 C           5.2705  -12.5497  -42.0009 C.2       3 UNK         0.5000 
     56 O           5.4411  -11.5837  -41.2552 O.2       3 UNK        -0.5000 
     57 CA          6.2202  -12.7395  -43.2025 C.3       3 UNK         0.1400 
     58 CB          7.6232  -13.1376  -42.7157 C.3       3 UNK        -0.1800 
     59 N           5.7760  -13.7273  -44.1902 N.am      3 UNK        -0.5000 
     60 C           4.7661  -13.5570  -45.0521 C.2       2 UNK         0.5000 
     61 O           4.0293  -12.5684  -45.0576 O.2       2 UNK        -0.5000 
     62 CA          4.5440  -14.7110  -46.0507 C.3       2 UNK         0.1400 
     63 CB          3.8347  -15.8868  -45.3651 C.3       2 UNK        -0.1800 
     64 N           3.7648  -14.3151  -47.2233 N.am      2 UNK        -0.5000 
     65 C           4.1792  -13.4760  -48.1831 C.2       1 UNK         0.5000 
     66 O           5.2894  -12.9409  -48.1832 O.2       1 UNK        -0.5000 
     67 C          -0.5610  -21.7563  -47.6525 C.2       11 UNK         0.5000 
     68 O          -0.6049  -22.6230  -48.5269 O.2       11 UNK        -0.5000 
     69 N          -1.6100  -20.9902  -47.3189 N.am      12 UNK        -0.5000 
     70 CA         -2.9351  -21.1048  -47.9277 C.3       12 UNK         0.1400 
     71 CB         -3.8320  -19.9545  -47.4496 C.3       12 UNK        -0.1800 
     72 C          -3.5953  -22.4694  -47.6601 C.2       12 UNK         0.5000 
     73 O          -4.1487  -23.0600  -48.5876 O.2       12 UNK        -0.5000 
     74 N          -3.4954  -22.9657  -46.4186 N.am      13 UNK        -0.5000 
     75 CA         -3.9851  -24.2808  -46.0006 C.3       13 UNK         0.1400 
     76 CB         -3.8803  -24.4186  -44.4750 C.3       13 UNK        -0.1800 
     77 C          -3.2597  -25.4410  -46.7045 C.2       13 UNK         0.5000 
     78 O          -3.9190  -26.3820  -47.1466 O.2       13 UNK        -0.5000 
     79 N          -1.9308  -25.3340  -46.8509 N.am      14 UNK        -0.5000 
     80 CA         -1.0957  -26.2740  -47.6066 C.3       14 UNK         0.1400 
     81 CB          0.3864  -25.9323  -47.3940 C.3       14 UNK        -0.1800 
     82 C          -1.4384  -26.3081  -49.1096 C.2       14 UNK         0.5000 
     83 O          -1.3311  -27.3626  -49.7356 O.2       14 UNK        -0.5000 
     84 N          -1.8995  -25.1696  -49.6425 N.am      15 UNK        -0.5000 
     85 CA         -2.4442  -25.0125  -50.9907 C.3       15 UNK         0.1400 
     86 CB         -2.1715  -23.5742  -51.4654 C.3       15 UNK        -0.1800 
     87 C          -3.9452  -25.3738  -51.0857 C.2       15 UNK         0.5000 
     88 O          -4.5797  -25.0230  -52.0799 O.2       15 UNK        -0.5000 
     89 N          -4.4970  -26.0493  -50.0647 N.am      16 UNK        -0.5000 
     90 CA         -5.8774  -26.5355  -49.9549 C.3       16 UNK         0.1400 
     91 CB         -6.1537  -27.6361  -51.0005 C.3       16 UNK        -0.1800 
     92 C          -6.9165  -25.3963  -49.9774 C.2       16 UNK         0.5000 
     93 O          -7.9111  -25.4760  -50.6991 O.2       16 UNK        -0.5000 
     94 N          -6.6421  -24.3495  -49.1865 N.am      17 UNK        -0.5000 
     95 CA         -7.3624  -23.0739  -49.1117 C.3       17 UNK         0.1400 
     96 CB         -8.8329  -23.2642  -48.6827 C.3       17 UNK        -0.1800 
     97 C          -7.1896  -22.2555  -50.4069 C.2       17 UNK         0.5000 
     98 O          -8.1549  -21.6854  -50.9182 O.2       17 UNK        -0.5000 
     99 N          -5.9420  -22.2259  -50.9010 N.am      18 UNK        -0.5000 
    100 CA        -5.4767  -21.5509  -52.1170 C.3       18 UNK         0.1400 
    101 CB        -5.5109  -20.0198  -51.9267 C.3       18 UNK        -0.1800 
    102 C         -6.2038  -22.0221  -53.3967 C.2       18 UNK         0.5000 
    103 O         -6.5703  -21.2002  -54.2396 O.2       18 UNK        -0.5000 
    104 N         -6.3972  -23.3424  -53.5209 N.am      19 UNK        -0.5000 
    105 CA        -7.0811  -24.0056  -54.6306 C.3       19 UNK         0.1400 
    106 CB        -7.2706  -25.4931  -54.2924 C.3       19 UNK        -0.1800 
    107 C         -6.3159  -23.8231  -55.9536 C.2       19 UNK         0.5000 
    108 O         -5.3011  -24.4879  -56.1710 O.2       19 UNK        -0.5000 
    109 N         -6.8035  -22.8909  -56.7854 N.am      20 UNK        -0.5000 
    110 CA        -6.2170  -22.4372  -58.0531 C.3       20 UNK         0.1400 
    111 CB        -6.2554  -23.5625  -59.1089 C.3       20 UNK        -0.1800 
    112 C         -4.8130  -21.8096  -57.8911 C.2       20 UNK         0.5000 
    113 O         -4.0068  -21.8624  -58.8223 O.2       20 UNK        -0.5000 
    114 N         -4.5484  -21.2294  -56.7125 N.am      21 UNK        -0.5000 
    115 CA        -3.2996  -20.5574  -56.3662 C.3       21 UNK         0.1400 
    116 CB        -2.8609  -21.0143  -54.9597 C.3       21 UNK        -0.1800 
    117 C         -3.4882  -19.0344  -56.5116 C.2       21 UNK         0.5000 
    118 O         -3.8541  -18.5721  -57.5945 O.2       21 UNK        -0.5000 
    119 N         -3.2202  -18.2788  -55.4408 N.am      22 UNK        -0.5000 
    120 CA        -3.3891  -16.8217  -55.3616 C.3       22 UNK         0.1400 
    121 C         -4.8669  -16.3407  -55.4739 C.2       22 UNK         0.5000 
    122 N         -5.0862  -15.0948  -55.8738 N.am      22 UNK        -0.7600 
    123 O         -5.8136  -17.0684  -55.1823 O.2       22 UNK        -0.5000 
    124 C124       -2.6777  -16.2502  -54.1083 C.3       23 UNK        -0.0398 
    125 S125       -3.2967  -16.9136  -52.5202 S.3       23 UNK        -0.2404 
    126 C126       -2.5540  -15.7448  -51.3404 C.3       23 UNK        -0.0205 
    127 H127       -0.9481  -13.3359  -47.3482 H         1 UNK         0.0600 
    128 H128       -0.3130  -14.8040  -48.0881 H         1 UNK         0.0600 
    129 H129       -1.0170  -13.5370  -49.1031 H         1 UNK         0.0600 
    130 H130        1.5865  -14.5440  -49.5954 H         1 UNK         0.3000 
    131 H131        3.1731  -12.1362  -49.5031 H         1 UNK         0.0600 
    132 H132        4.7925  -13.3824  -50.8662 H         1 UNK         0.0800 
    133 H133        3.9986  -14.8934  -50.5388 H         1 UNK         0.0800 
    134 H134        3.2033  -15.8801  -52.6147 H         1 UNK         0.0800 
    135 H135        1.9423  -15.2333  -53.6270 H         1 UNK         0.0800 
    136 H136       -0.3688  -14.8752  -52.7318 H         1 UNK         0.1150 
    137 H137       -1.4883  -17.2900  -49.3723 H         1 UNK         0.1150 
    138 H138        2.6461  -16.8583  -50.4131 H         1 UNK         0.1150 
    139 H139        0.1815  -17.9868  -47.8357 H         1 UNK         0.0800 
    140 H140        1.8499  -17.5013  -48.0346 H         1 UNK         0.0800 
    141 H141        1.5418  -19.5599  -46.5802 H         1 UNK         0.0800 
    142 H142        2.6989  -20.6878  -47.1767 H         1 UNK         0.0800 
    143 H143        1.3149  -22.4803  -47.0020 H         1 UNK         0.0600 
    144 H144        0.7021  -20.6558  -44.9159 H         1 UNK         0.3000 
    145 H145       -1.1188  -22.9650  -42.8611 H         1 UNK         0.0600 
    146 H146        0.6131  -22.1868  -41.2725 H         1 UNK         0.0600 
    147 H147        1.3080  -23.3146  -42.4271 H         1 UNK         0.0600 
    148 H148        1.6063  -21.5903  -42.5996 H         1 UNK         0.0600 
    149 H149       -0.5075  -20.2258  -42.4569 H         1 UNK         0.3000 
    150 H150       -3.4381  -18.8805  -44.0615 H         1 UNK         0.0600 
    151 H151       -4.0730  -19.5606  -41.7421 H         1 UNK         0.0600 
    152 H152       -3.6405  -17.8594  -41.8186 H         1 UNK         0.0600 
    153 H153       -2.5059  -19.0276  -41.1462 H         1 UNK         0.0600 
    154 H154       -1.3133  -17.5391  -42.7798 H         1 UNK         0.3000 
    155 H155        0.8716  -17.2465  -45.6248 H         1 UNK         0.0600 
    156 H156       -0.7785  -15.2771  -43.9590 H         1 UNK         0.0600 
    157 H157       -0.8178  -15.4165  -45.7076 H         1 UNK         0.0600 
    158 H158        0.6508  -14.8800  -44.9063 H         1 UNK         0.0600 
    159 H159        1.2376  -16.4211  -42.9420 H         1 UNK         0.3000 
    160 H160        2.7167  -19.4475  -41.7067 H         1 UNK         0.0600 
    161 H161        3.8586  -16.6567  -42.2542 H         1 UNK         0.0600 
    162 H162        4.5400  -18.1723  -42.8317 H         1 UNK         0.0600 
    163 H163        4.4901  -17.8352  -41.1091 H         1 UNK         0.0600 
    164 H164        2.0710  -16.8735  -40.5644 H         1 UNK         0.3000 
    165 H165       -1.1281  -17.7977  -39.3019 H         1 UNK         0.0600 
    166 H166       -0.0503  -17.1341  -37.1695 H         1 UNK         0.0600 
    167 H167        0.5032  -18.7291  -37.6534 H         1 UNK         0.0600 
    168 H168        1.5513  -17.3340  -37.8808 H         1 UNK         0.0600 
    169 H169        0.4756  -15.4346  -39.0572 H         1 UNK         0.3000 
    170 H170       -0.6409  -13.8094  -42.0202 H         1 UNK         0.0600 
    171 H171       -2.5075  -13.4479  -40.3989 H         1 UNK         0.0600 
    172 H172       -1.3493  -13.2752  -39.0855 H         1 UNK         0.0600 
    173 H173       -1.3871  -12.0957  -40.3968 H         1 UNK         0.0600 
    174 H174        0.9756  -12.8871  -39.8857 H         1 UNK         0.3000 
    175 H175        3.1556  -12.4022  -40.4138 H         1 UNK         0.0600 
    176 H176        4.0096  -15.3074  -39.8475 H         1 UNK         0.0600 
    177 H177        4.7636  -13.8696  -39.1639 H         1 UNK         0.0600 
    178 H178        3.1097  -14.2771  -38.7388 H         1 UNK         0.0600 
    179 H179        4.1704  -14.1872  -42.5037 H         1 UNK         0.3000 
    180 H180        6.2978  -11.7724  -43.7038 H         1 UNK         0.0600 
    181 H181        7.6143  -14.1060  -42.2138 H         1 UNK         0.0600 
    182 H182        8.0164  -12.4057  -42.0088 H         1 UNK         0.0600 
    183 H183        8.3284  -13.1942  -43.5452 H         1 UNK         0.0600 
    184 H184        6.3197  -14.5770  -44.2387 H         1 UNK         0.3000 
    185 H185        5.5197  -15.0524  -46.4029 H         1 UNK         0.0600 
    186 H186        4.4633  -16.3180  -44.5868 H         1 UNK         0.0600 
    187 H187        2.9059  -15.5658  -44.8962 H         1 UNK         0.0600 
    188 H188        3.6025  -16.6860  -46.0694 H         1 UNK         0.0600 
    189 H189        2.8230  -14.6693  -47.2840 H         1 UNK         0.3000 
    190 H190       -1.4899  -20.2676  -46.6132 H         1 UNK         0.3000 
    191 H191       -2.8113  -21.0056  -49.0081 H         1 UNK         0.0600 
    192 H192       -3.9770  -19.9782  -46.3693 H         1 UNK         0.0600 
    193 H193       -4.8162  -20.0070  -47.9168 H         1 UNK         0.0600 
    194 H194       -3.4000  -18.9871  -47.7069 H         1 UNK         0.0600 
    195 H195       -3.0739  -22.3902  -45.6935 H         1 UNK         0.3000 
    196 H196       -5.0413  -24.3403  -46.2710 H         1 UNK         0.0600 
    197 H197       -4.2538  -25.3880  -44.1429 H         1 UNK         0.0600 
    198 H198       -4.4693  -23.6532  -43.9695 H         1 UNK         0.0600 
    199 H199       -2.8495  -24.3281  -44.1320 H         1 UNK         0.0600 
    200 H200       -1.4493  -24.5549  -46.4087 H         1 UNK         0.3000 
    201 H201       -1.2748  -27.2738  -47.2060 H         1 UNK         0.0600 
    202 H202        0.6551  -25.9844  -46.3388 H         1 UNK         0.0600 
    203 H203        0.6236  -24.9297  -47.7502 H         1 UNK         0.0600 
    204 H204        1.0300  -26.6321  -47.9285 H         1 UNK         0.0600 
    205 H205       -1.9114  -24.3409  -49.0594 H         1 UNK         0.3000 
    206 H206       -1.9165  -25.6887  -51.6659 H         1 UNK         0.0600 
    207 H207       -1.1062  -23.3455  -51.4298 H         1 UNK         0.0600 
    208 H208       -2.4970  -23.4277  -52.4959 H         1 UNK         0.0600 
    209 H209       -2.6864  -22.8411  -50.8454 H         1 UNK         0.0600 
    210 H210       -3.9169  -26.2427  -49.2571 H         1 UNK         0.3000 
    211 H211       -5.9602  -26.9973  -48.9701 H         1 UNK         0.0600 
    212 H212       -6.1212  -27.2481  -52.0183 H         1 UNK         0.0600 
    213 H213       -7.1394  -28.0782  -50.8514 H         1 UNK         0.0600 
    214 H214       -5.4231  -28.4413  -50.9260 H         1 UNK         0.0600 
    215 H215       -5.7470  -24.3500  -48.7104 H         1 UNK         0.3000 
    216 H216       -6.8731  -22.4978  -48.3250 H         1 UNK         0.0600 
    217 H217       -9.3023  -22.3019  -48.4758 H         1 UNK         0.0600 
    218 H218       -8.9046  -23.8621  -47.7743 H         1 UNK         0.0600 
    219 H219       -9.4268  -23.7527  -49.4553 H         1 UNK         0.0600 
    220 H220       -5.2338  -22.7281  -50.3780 H         1 UNK         0.3000 
    221 H221       -4.4341  -21.8404  -52.2440 H         1 UNK         0.0600 
    222 H222       -6.5280  -19.6515  -51.7913 H         1 UNK         0.0600 
    223 H223       -4.9261  -19.7174  -51.0578 H         1 UNK         0.0600 
    224 H224       -5.0945  -19.5021  -52.7912 H         1 UNK         0.0600 
    225 H225       -5.9646  -23.9576  -52.8363 H         1 UNK         0.3000 
    226 H226       -8.0722  -23.5586  -54.7309 H         1 UNK         0.0600 
    227 H227       -7.8805  -25.6194  -53.3984 H         1 UNK         0.0600 
    228 H228       -7.7733  -26.0178  -55.1056 H         1 UNK         0.0600 
    229 H229       -6.3159  -25.9913  -54.1198 H         1 UNK         0.0600 
    230 H230       -7.6135  -22.3692  -56.4787 H         1 UNK         0.3000 
    231 H231       -6.8607  -21.6327  -58.4113 H         1 UNK         0.0600 
    232 H232       -7.2578  -23.9797  -59.2046 H         1 UNK         0.0600 
    233 H233       -5.5751  -24.3770  -58.8588 H         1 UNK         0.0600 
    234 H234       -5.9673  -23.1875  -60.0916 H         1 UNK         0.0600 
    235 H235       -5.2845  -21.1964  -56.0164 H         1 UNK         0.3000 
    236 H236       -2.5097  -20.8455  -57.0627 H         1 UNK         0.0600 
    237 H237       -1.8799  -20.6133  -54.7017 H         1 UNK         0.0600 
    238 H238       -3.5642  -20.6980  -54.1920 H         1 UNK         0.0600 
    239 H239       -2.7844  -22.1009  -54.9089 H         1 UNK         0.0600 
    240 H240       -2.9577  -18.7314  -54.5782 H         1 UNK         0.3000 
    241 H241       -2.8725  -16.4130  -56.2325 H         1 UNK         0.0600 
    242 H242       -6.0369  -14.7656  -55.9425 H         1 UNK         0.3800 
    243 H243       -4.3312  -14.4739  -56.1214 H         1 UNK         0.3800 
    244 H244       -1.6119  -16.4719  -54.1729 H         1 UNK         0.0800 
    245 H245       -2.7534  -15.1618  -54.0955 H         1 UNK         0.0800 
    246 H246       -3.1095  -15.7966  -50.4027 H         1 UNK         0.0800 
    247 H247       -2.6684  -14.7214  -51.7008 H         1 UNK         0.0800 
@<TRIPOS>BOND
     1    1    2 1    
     2    1  127 1    
     3    1  128 1    
     4    1  129 1    
     5    2    3 2    
     6    2    4 am   BACKBONE|DICT|INTERRES
     7    4    5 1    
     8    4  130 1    
     9    5    6 1    
    10    5   65 1    
    11    5  131 1    
    12    6    7 1    
    13    6  132 1    
    14    6  133 1    
    15    7    8 1    
    16    8    9 1    
    17    8  134 1    
    18    8  135 1    
    19    9   10 ar   
    20    9   14 ar   
    21   10   11 ar   
    22   10  136 1    
    23   11   12 ar   
    24   11  126 1    
    25   12   13 ar   
    26   12  137 1    
    27   13   14 ar   
    28   13   15 1    
    29   14  138 1    
    30   15   16 1    
    31   15  139 1    
    32   15  140 1    
    33   16   17 1    
    34   17   18 1    
    35   17  141 1    
    36   17  142 1    
    37   18   19 1    
    38   18   67 1    
    39   18  143 1    
    40   19   20 am   BACKBONE|DICT|INTERRES
    41   19  144 1    
    42   20   21 2    
    43   20   22 1    
    44   22   23 1    
    45   22   24 1    
    46   22  145 1    
    47   23  146 1    
    48   23  147 1    
    49   23  148 1    
    50   24   25 am   BACKBONE|DICT|INTERRES
    51   24  149 1    
    52   25   26 2    
    53   25   27 1    
    54   27   28 1    
    55   27   29 1    
    56   27  150 1    
    57   28  151 1    
    58   28  152 1    
    59   28  153 1    
    60   29   30 am   BACKBONE|DICT|INTERRES
    61   29  154 1    
    62   30   31 2    
    63   30   32 1    
    64   32   33 1    
    65   32   34 1    
    66   32  155 1    
    67   33  156 1    
    68   33  157 1    
    69   33  158 1    
    70   34   35 am   BACKBONE|DICT|INTERRES
    71   34  159 1    
    72   35   36 2    
    73   35   37 1    
    74   37   38 1    
    75   37   39 1    
    76   37  160 1    
    77   38  161 1    
    78   38  162 1    
    79   38  163 1    
    80   39   40 am   BACKBONE|DICT|INTERRES
    81   39  164 1    
    82   40   41 2    
    83   40   42 1    
    84   42   43 1    
    85   42   44 1    
    86   42  165 1    
    87   43  166 1    
    88   43  167 1    
    89   43  168 1    
    90   44   45 am   BACKBONE|DICT|INTERRES
    91   44  169 1    
    92   45   46 2    
    93   45   47 1    
    94   47   48 1    
    95   47   49 1    
    96   47  170 1    
    97   48  171 1    
    98   48  172 1    
    99   48  173 1    
   100   49   50 am   BACKBONE|DICT|INTERRES
   101   49  174 1    
   102   50   51 2    
   103   50   52 1    
   104   52   53 1    
   105   52   54 1    
   106   52  175 1    
   107   53  176 1    
   108   53  177 1    
   109   53  178 1    
   110   54   55 am   BACKBONE|DICT|INTERRES
   111   54  179 1    
   112   55   56 2    
   113   55   57 1    
   114   57   58 1    
   115   57   59 1    
   116   57  180 1    
   117   58  181 1    
   118   58  182 1    
   119   58  183 1    
   120   59   60 am   BACKBONE|DICT|INTERRES
   121   59  184 1    
   122   60   61 2    
   123   60   62 1    
   124   62   63 1    
   125   62   64 1    
   126   62  185 1    
   127   63  186 1    
   128   63  187 1    
   129   63  188 1    
   130   64   65 am   BACKBONE|DICT|INTERRES
   131   64  189 1    
   132   65   66 2    
   133   67   68 2    
   134   67   69 am   BACKBONE|DICT|INTERRES
   135   69   70 1    
   136   69  190 1    
   137   70   71 1    
   138   70   72 1    
   139   70  191 1    
   140   71  192 1    
   141   71  193 1    
   142   71  194 1    
   143   72   73 2    
   144   72   74 am   BACKBONE|DICT|INTERRES
   145   74   75 1    
   146   74  195 1    
   147   75   76 1    
   148   75   77 1    
   149   75  196 1    
   150   76  197 1    
   151   76  198 1    
   152   76  199 1    
   153   77   78 2    
   154   77   79 am   BACKBONE|DICT|INTERRES
   155   79   80 1    
   156   79  200 1    
   157   80   81 1    
   158   80   82 1    
   159   80  201 1    
   160   81  202 1    
   161   81  203 1    
   162   81  204 1    
   163   82   83 2    
   164   82   84 am   BACKBONE|DICT|INTERRES
   165   84   85 1    
   166   84  205 1    
   167   85   86 1    
   168   85   87 1    
   169   85  206 1    
   170   86  207 1    
   171   86  208 1    
   172   86  209 1    
   173   87   88 2    
   174   87   89 am   BACKBONE|DICT|INTERRES
   175   89   90 1    
   176   89  210 1    
   177   90   91 1    
   178   90   92 1    
   179   90  211 1    
   180   91  212 1    
   181   91  213 1    
   182   91  214 1    
   183   92   93 2    
   184   92   94 am   BACKBONE|DICT|INTERRES
   185   94   95 1    
   186   94  215 1    
   187   95   96 1    
   188   95   97 1    
   189   95  216 1    
   190   96  217 1    
   191   96  218 1    
   192   96  219 1    
   193   97   98 2    
   194   97   99 am   BACKBONE|DICT|INTERRES
   195   99  100 1    
   196   99  220 1    
   197  100  101 1    
   198  100  102 1    
   199  100  221 1    
   200  101  222 1    
   201  101  223 1    
   202  101  224 1    
   203  102  103 2    
   204  102  104 am   BACKBONE|DICT|INTERRES
   205  104  105 1    
   206  104  225 1    
   207  105  106 1    
   208  105  107 1    
   209  105  226 1    
   210  106  227 1    
   211  106  228 1    
   212  106  229 1    
   213  107  108 2    
   214  107  109 am   BACKBONE|DICT|INTERRES
   215  109  110 1    
   216  109  230 1    
   217  110  111 1    
   218  110  112 1    
   219  110  231 1    
   220  111  232 1    
   221  111  233 1    
   222  111  234 1    
   223  112  113 2    
   224  112  114 am   BACKBONE|DICT|INTERRES
   225  114  115 1    
   226  114  235 1    
   227  115  116 1    
   228  115  117 1    
   229  115  236 1    
   230  116  237 1    
   231  116  238 1    
   232  116  239 1    
   233  117  118 2    
   234  117  119 am   BACKBONE|DICT|INTERRES
   235  119  120 1    
   236  119  240 1    
   237  120  121 1    
   238  120  124 1    
   239  120  241 1    
   240  121  122 am   BACKBONE|DICT|INTERRES
   241  121  123 2    
   242  122  242 1    
   243  122  243 1    
   244  124  125 1    
   245  124  244 1    
   246  124  245 1    
   247  125  126 1    
   248  126  246 1    
   249  126  247 1    
@<TRIPOS>SUBSTRUCTURE
     1 UNK         1 GROUP             0       ****    0 ROOT    
