@<TRIPOS>MOLECULE
3R540
247   249    1
SMALL
USER_CHARGES


@<TRIPOS>ATOM
      1 CA          4.0273  -16.7557  -51.6766 C.3       0 UNK        -0.1800 
      2 C           4.2652  -15.3087  -51.2698 C.2       0 UNK         0.5000 
      3 O           5.4103  -14.8559  -51.2611 O.2       0 UNK        -0.5000 
      4 N           3.1931  -14.5785  -50.9532 N.am      1 UNK        -0.5000 
      5 CA          3.2038  -13.1520  -50.6356 C.3       1 UNK         0.1400 
      6 C6          3.7172  -12.8428  -49.1964 C.3       23 UNK        -0.0398 
      7 S7          2.4861  -12.9899  -47.8514 S.3       23 UNK        -0.2404 
      8 C8          3.0957  -14.4182  -46.9042 C.3       23 UNK        -0.0205 
      9 C9          2.9004  -15.7462  -47.6228 C.ar      23 UNK        -0.0193 
     10 C10         1.6733  -16.0731  -48.2112 C.ar      23 UNK        -0.1150 
     11 C11         1.4975  -17.3027  -48.8498 C.ar      23 UNK        -0.0193 
     12 C12         2.5515  -18.2204  -48.8755 C.ar      23 UNK        -0.1150 
     13 C13         3.7694  -17.9223  -48.2585 C.ar      23 UNK        -0.0193 
     14 C14         3.9401  -16.6795  -47.6438 C.ar      23 UNK        -0.1150 
     15 C15         4.9046  -18.9352  -48.2562 C.3       23 UNK        -0.0205 
     16 S16         4.6652  -20.2140  -46.9796 S.3       23 UNK        -0.2404 
     17 C17         3.5933  -21.3962  -47.8625 C.3       23 UNK        -0.0398 
     18 CA          3.6297  -22.8093  -47.2338 C.3       11 UNK         0.1400 
     19 N           2.9836  -22.8431  -45.9184 N.am      11 UNK        -0.5000 
     20 C           3.1204  -23.8348  -45.0268 C.2       10 UNK         0.5000 
     21 O           3.7315  -24.8796  -45.2522 O.2       10 UNK        -0.5000 
     22 CA          2.4833  -23.6177  -43.6445 C.3       10 UNK         0.1400 
     23 CB          3.3257  -22.6410  -42.8081 C.3       10 UNK        -0.1800 
     24 N           1.1260  -23.0941  -43.7706 N.am      10 UNK        -0.5000 
     25 C           0.0118  -23.8292  -43.6561 C.2       9 UNK         0.5000 
     26 O           0.0061  -25.0232  -43.3570 O.2       9 UNK        -0.5000 
     27 CA         -1.3316  -23.1242  -43.9388 C.3       9 UNK         0.1400 
     28 CB         -1.9768  -22.6574  -42.6262 C.3       9 UNK        -0.1800 
     29 N          -1.2211  -21.9815  -44.8486 N.am      9 UNK        -0.5000 
     30 C          -0.7963  -22.0523  -46.1192 C.2       8 UNK         0.5000 
     31 O          -0.5081  -23.1095  -46.6771 O.2       8 UNK        -0.5000 
     32 CA         -0.5870  -20.7257  -46.8744 C.3       8 UNK         0.1400 
     33 CB         -1.8355  -20.3974  -47.7025 C.3       8 UNK        -0.1800 
     34 N          -0.2527  -19.5987  -45.9971 N.am      8 UNK        -0.5000 
     35 C           0.7951  -19.5677  -45.1546 C.2       7 UNK         0.5000 
     36 O           1.6296  -20.4716  -45.0913 O.2       7 UNK        -0.5000 
     37 CA          0.9047  -18.3897  -44.1637 C.3       7 UNK         0.1400 
     38 CB          2.0100  -17.4199  -44.5935 C.3       7 UNK        -0.1800 
     39 N          -0.3368  -17.6375  -43.9819 N.am      7 UNK        -0.5000 
     40 C          -1.4801  -18.1291  -43.4821 C.2       6 UNK         0.5000 
     41 O          -1.5958  -19.2750  -43.0460 O.2       6 UNK        -0.5000 
     42 CA         -2.7163  -17.2072  -43.5386 C.3       6 UNK         0.1400 
     43 CB         -2.9217  -16.5015  -42.1902 C.3       6 UNK        -0.1800 
     44 N          -2.6589  -16.1975  -44.6022 N.am      6 UNK        -0.5000 
     45 C          -2.5230  -16.4536  -45.9117 C.2       5 UNK         0.5000 
     46 O          -2.4594  -17.5907  -46.3759 O.2       5 UNK        -0.5000 
     47 CA         -2.4007  -15.2537  -46.8661 C.3       5 UNK         0.1400 
     48 CB         -3.6856  -15.0838  -47.6853 C.3       5 UNK        -0.1800 
     49 N          -2.0888  -13.9784  -46.2253 N.am      5 UNK        -0.5000 
     50 C          -0.9367  -13.6562  -45.6267 C.2       4 UNK         0.5000 
     51 O          -0.0432  -14.4721  -45.3975 O.2       4 UNK        -0.5000 
     52 CA         -0.7765  -12.1688  -45.2405 C.3       4 UNK         0.1400 
     53 CB          0.6112  -11.8372  -44.6656 C.3       4 UNK        -0.1800 
     54 N          -1.0610  -11.2741  -46.3706 N.am      4 UNK        -0.5000 
     55 C          -2.2832  -10.9224  -46.7902 C.2       3 UNK         0.5000 
     56 O          -3.3157  -11.3319  -46.2571 O.2       3 UNK        -0.5000 
     57 CA         -2.3971   -9.9984  -48.0165 C.3       3 UNK         0.1400 
     58 CB         -2.1938   -8.5215  -47.6267 C.3       3 UNK        -0.1800 
     59 N          -1.5641  -10.3801  -49.1638 N.am      3 UNK        -0.5000 
     60 C          -0.2365  -10.3043  -49.3075 C.2       2 UNK         0.5000 
     61 O           0.5409   -9.9639  -48.4120 O.2       2 UNK        -0.5000 
     62 CA          0.3051  -10.6198  -50.7105 C.3       2 UNK         0.1400 
     63 CB          0.5067   -9.3212  -51.5075 C.3       2 UNK        -0.1800 
     64 N           1.5873  -11.3034  -50.5899 N.am      2 UNK        -0.5000 
     65 C           1.8260  -12.5553  -50.9949 C.2       1 UNK         0.5000 
     66 O           1.0133  -13.2339  -51.6293 O.2       1 UNK        -0.5000 
     67 C           3.0569  -23.8478  -48.2194 C.2       11 UNK         0.5000 
     68 O           3.8341  -24.4679  -48.9472 O.2       11 UNK        -0.5000 
     69 N           1.7275  -24.0057  -48.2467 N.am      12 UNK        -0.5000 
     70 CA          1.0244  -24.9018  -49.1672 C.3       12 UNK         0.1400 
     71 CB         -0.0676  -24.1100  -49.9072 C.3       12 UNK        -0.1800 
     72 C           0.4121  -26.1049  -48.4334 C.2       12 UNK         0.5000 
     73 O           0.3925  -27.2008  -48.9957 O.2       12 UNK        -0.5000 
     74 N          -0.0744  -25.8777  -47.2033 N.am      13 UNK        -0.5000 
     75 CA         -0.8713  -26.8002  -46.3878 C.3       13 UNK         0.1400 
     76 CB         -0.0529  -28.0442  -45.9783 C.3       13 UNK        -0.1800 
     77 C          -2.2177  -27.1184  -47.0736 C.2       13 UNK         0.5000 
     78 O          -2.7420  -26.2495  -47.7702 O.2       13 UNK        -0.5000 
     79 N          -2.7721  -28.3207  -46.8504 N.am      14 UNK        -0.5000 
     80 CA         -4.0033  -28.8465  -47.4622 C.3       14 UNK         0.1400 
     81 CB         -3.7552  -29.1698  -48.9507 C.3       14 UNK        -0.1800 
     82 C          -5.2194  -27.9180  -47.2513 C.2       14 UNK         0.5000 
     83 O          -5.7944  -27.4129  -48.2178 O.2       14 UNK        -0.5000 
     84 N          -5.5360  -27.6555  -45.9734 N.am      15 UNK        -0.5000 
     85 CA         -6.5637  -26.7139  -45.4991 C.3       15 UNK         0.1400 
     86 CB         -7.9782  -27.2005  -45.8786 C.3       15 UNK        -0.1800 
     87 C          -6.2855  -25.2588  -45.9409 C.2       15 UNK         0.5000 
     88 O          -7.2125  -24.5076  -46.2480 O.2       15 UNK        -0.5000 
     89 N          -4.9908  -24.9126  -45.9883 N.am      16 UNK        -0.5000 
     90 CA         -4.4065  -23.6505  -46.4518 C.3       16 UNK         0.1400 
     91 CB         -4.8358  -22.4759  -45.5485 C.3       16 UNK        -0.1800 
     92 C          -4.6285  -23.3621  -47.9512 C.2       16 UNK         0.5000 
     93 O          -4.5011  -22.2093  -48.3605 O.2       16 UNK        -0.5000 
     94 N          -4.9456  -24.4004  -48.7420 N.am      17 UNK        -0.5000 
     95 CA         -5.0470  -24.4198  -50.2061 C.3       17 UNK         0.1400 
     96 CB         -3.6317  -24.4213  -50.8166 C.3       17 UNK        -0.1800 
     97 C          -5.9442  -23.3095  -50.7954 C.2       17 UNK         0.5000 
     98 O          -5.5997  -22.7161  -51.8192 O.2       17 UNK        -0.5000 
     99 N          -7.0563  -23.0119  -50.1051 N.am      18 UNK        -0.5000 
    100 CA        -8.0014  -21.9237  -50.3921 C.3       18 UNK         0.1400 
    101 CB        -8.7951  -22.2194  -51.6819 C.3       18 UNK        -0.1800 
    102 C         -7.3298  -20.5300  -50.4004 C.2       18 UNK         0.5000 
    103 O         -7.6517  -19.6908  -51.2427 O.2       18 UNK        -0.5000 
    104 N         -6.3822  -20.3341  -49.4706 N.am      19 UNK        -0.5000 
    105 CA        -5.5179  -19.1639  -49.2729 C.3       19 UNK         0.1400 
    106 CB        -6.3426  -17.8668  -49.1346 C.3       19 UNK        -0.1800 
    107 C         -4.3853  -19.0420  -50.3152 C.2       19 UNK         0.5000 
    108 O         -3.6854  -18.0281  -50.3245 O.2       19 UNK        -0.5000 
    109 N         -4.2208  -20.0637  -51.1732 N.am      20 UNK        -0.5000 
    110 CA        -3.1683  -20.2430  -52.1837 C.3       20 UNK         0.1400 
    111 CB        -1.8297  -20.5603  -51.4903 C.3       20 UNK        -0.1800 
    112 C         -3.0408  -19.0885  -53.2046 C.2       20 UNK         0.5000 
    113 O         -1.9810  -18.9211  -53.8095 O.2       20 UNK        -0.5000 
    114 N         -4.1228  -18.3125  -53.3698 N.am      21 UNK        -0.5000 
    115 CA        -4.2303  -17.0805  -54.1592 C.3       21 UNK         0.1400 
    116 CB        -4.0256  -17.3627  -55.6627 C.3       21 UNK        -0.1800 
    117 C         -3.3486  -15.9184  -53.6414 C.2       21 UNK         0.5000 
    118 O         -3.0926  -14.9752  -54.3922 O.2       21 UNK        -0.5000 
    119 N         -2.9270  -15.9765  -52.3698 N.am      22 UNK        -0.5000 
    120 CA        -2.1541  -14.9172  -51.6946 C.3       22 UNK         0.1400 
    121 C         -3.0253  -13.7197  -51.2050 C.2       22 UNK         0.5000 
    122 N         -4.3503  -13.7915  -51.2526 N.am      22 UNK        -0.7600 
    123 O         -2.4949  -12.7008  -50.7726 O.2       22 UNK        -0.5000 
    124 C124       -1.3003  -15.4813  -50.5303 C.3       23 UNK        -0.0398 
    125 S125       -0.1071  -16.7607  -51.0530 S.3       23 UNK        -0.2404 
    126 C126        0.1660  -17.6565  -49.4898 C.3       23 UNK        -0.0205 
    127 H127        4.6202  -17.4239  -51.0527 H         1 UNK         0.0600 
    128 H128        4.3223  -16.9070  -52.7147 H         1 UNK         0.0600 
    129 H129        2.9788  -17.0366  -51.5769 H         1 UNK         0.0600 
    130 H130        2.2636  -14.9761  -51.0174 H         1 UNK         0.3000 
    131 H131        3.8993  -12.6804  -51.3332 H         1 UNK         0.0600 
    132 H132        4.5845  -13.4619  -48.9646 H         1 UNK         0.0800 
    133 H133        4.0917  -11.8189  -49.1662 H         1 UNK         0.0800 
    134 H134        4.1457  -14.2564  -46.6563 H         1 UNK         0.0800 
    135 H135        2.5613  -14.4597  -45.9549 H         1 UNK         0.0800 
    136 H136        0.8563  -15.3672  -48.1732 H         1 UNK         0.1150 
    137 H137        2.4212  -19.1721  -49.3693 H         1 UNK         0.1150 
    138 H138        4.8813  -16.4446  -47.1672 H         1 UNK         0.1150 
    139 H139        5.0053  -19.3900  -49.2424 H         1 UNK         0.0800 
    140 H140        5.8524  -18.4305  -48.0635 H         1 UNK         0.0800 
    141 H141        3.9223  -21.4339  -48.9028 H         1 UNK         0.0800 
    142 H142        2.5751  -21.0082  -47.8734 H         1 UNK         0.0800 
    143 H143        4.6785  -23.0764  -47.0842 H         1 UNK         0.0600 
    144 H144        2.5062  -21.9906  -45.6349 H         1 UNK         0.3000 
    145 H145        2.4743  -24.5783  -43.1251 H         1 UNK         0.0600 
    146 H146        2.9089  -22.5208  -41.8081 H         1 UNK         0.0600 
    147 H147        4.3469  -23.0066  -42.6932 H         1 UNK         0.0600 
    148 H148        3.3806  -21.6532  -43.2676 H         1 UNK         0.0600 
    149 H149        1.0466  -22.1266  -44.0611 H         1 UNK         0.3000 
    150 H150       -1.9924  -23.8589  -44.4011 H         1 UNK         0.0600 
    151 H151       -2.1332  -23.4965  -41.9470 H         1 UNK         0.0600 
    152 H152       -2.9483  -22.1960  -42.8025 H         1 UNK         0.0600 
    153 H153       -1.3509  -21.9286  -42.1096 H         1 UNK         0.0600 
    154 H154       -1.4092  -21.0698  -44.4490 H         1 UNK         0.3000 
    155 H155        0.2472  -20.8655  -47.5630 H         1 UNK         0.0600 
    156 H156       -2.0572  -21.2038  -48.4015 H         1 UNK         0.0600 
    157 H157       -1.7072  -19.4911  -48.2903 H         1 UNK         0.0600 
    158 H158       -2.7136  -20.2584  -47.0717 H         1 UNK         0.0600 
    159 H159       -0.9138  -18.8283  -45.9915 H         1 UNK         0.3000 
    160 H160        1.1821  -18.8150  -43.1972 H         1 UNK         0.0600 
    161 H161        1.7153  -16.8768  -45.4887 H         1 UNK         0.0600 
    162 H162        2.9413  -17.9444  -44.8134 H         1 UNK         0.0600 
    163 H163        2.2206  -16.6877  -43.8141 H         1 UNK         0.0600 
    164 H164       -0.3393  -16.6889  -44.3344 H         1 UNK         0.3000 
    165 H165       -3.5842  -17.8407  -43.7326 H         1 UNK         0.0600 
    166 H166       -3.8427  -15.9182  -42.1855 H         1 UNK         0.0600 
    167 H167       -2.9931  -17.2253  -41.3771 H         1 UNK         0.0600 
    168 H168       -2.0951  -15.8283  -41.9592 H         1 UNK         0.0600 
    169 H169       -2.6938  -15.2314  -44.3129 H         1 UNK         0.3000 
    170 H170       -1.5791  -15.4757  -47.5476 H         1 UNK         0.0600 
    171 H171       -3.8536  -15.9587  -48.3114 H         1 UNK         0.0600 
    172 H172       -4.5600  -14.9555  -47.0462 H         1 UNK         0.0600 
    173 H173       -3.6250  -14.2196  -48.3461 H         1 UNK         0.0600 
    174 H174       -2.7710  -13.2351  -46.3368 H         1 UNK         0.3000 
    175 H175       -1.5038  -11.9736  -44.4498 H         1 UNK         0.0600 
    176 H176        1.4000  -11.9820  -45.4015 H         1 UNK         0.0600 
    177 H177        0.6584  -10.8020  -44.3275 H         1 UNK         0.0600 
    178 H178        0.8425  -12.4688  -43.8070 H         1 UNK         0.0600 
    179 H179       -0.2652  -10.9221  -46.8951 H         1 UNK         0.3000 
    180 H180       -3.4239  -10.0931  -48.3733 H         1 UNK         0.0600 
    181 H181       -1.1955   -8.3350  -47.2302 H         1 UNK         0.0600 
    182 H182       -2.9075   -8.2224  -46.8581 H         1 UNK         0.0600 
    183 H183       -2.3438   -7.8635  -48.4826 H         1 UNK         0.0600 
    184 H184       -2.0793  -10.8051  -49.9282 H         1 UNK         0.3000 
    185 H185       -0.4189  -11.2377  -51.2429 H         1 UNK         0.0600 
    186 H186       -0.4350   -8.7824  -51.6201 H         1 UNK         0.0600 
    187 H187        1.2130   -8.6508  -51.0160 H         1 UNK         0.0600 
    188 H188        0.8838   -9.5296  -52.5089 H         1 UNK         0.0600 
    189 H189        2.2626  -10.8378  -49.9996 H         1 UNK         0.3000 
    190 H190        1.1455  -23.5000  -47.5876 H         1 UNK         0.3000 
    191 H191        1.7100  -25.2953  -49.9205 H         1 UNK         0.0600 
    192 H192        0.3516  -23.2501  -50.4297 H         1 UNK         0.0600 
    193 H193       -0.5584  -24.7356  -50.6533 H         1 UNK         0.0600 
    194 H194       -0.8404  -23.7460  -49.2294 H         1 UNK         0.0600 
    195 H195       -0.0969  -24.9104  -46.8938 H         1 UNK         0.3000 
    196 H196       -1.1221  -26.2552  -45.4781 H         1 UNK         0.0600 
    197 H197       -0.5648  -28.6176  -45.2051 H         1 UNK         0.0600 
    198 H198        0.9148  -27.7543  -45.5684 H         1 UNK         0.0600 
    199 H199        0.1295  -28.7119  -46.8209 H         1 UNK         0.0600 
    200 H200       -2.2798  -28.9622  -46.2447 H         1 UNK         0.3000 
    201 H201       -4.2351  -29.7844  -46.9553 H         1 UNK         0.0600 
    202 H202       -2.9275  -29.8690  -49.0687 H         1 UNK         0.0600 
    203 H203       -3.5196  -28.2740  -49.5269 H         1 UNK         0.0600 
    204 H204       -4.6352  -29.6284  -49.4032 H         1 UNK         0.0600 
    205 H205       -4.9928  -28.1073  -45.2504 H         1 UNK         0.3000 
    206 H206       -6.5001  -26.7138  -44.4100 H         1 UNK         0.0600 
    207 H207       -8.1436  -28.2264  -45.5498 H         1 UNK         0.0600 
    208 H208       -8.7430  -26.5826  -45.4068 H         1 UNK         0.0600 
    209 H209       -8.1473  -27.1616  -46.9550 H         1 UNK         0.0600 
    210 H210       -4.3209  -25.6342  -45.7668 H         1 UNK         0.3000 
    211 H211       -3.3287  -23.7705  -46.3458 H         1 UNK         0.0600 
    212 H212       -5.8880  -22.2249  -45.6836 H         1 UNK         0.0600 
    213 H213       -4.2567  -21.5790  -45.7679 H         1 UNK         0.0600 
    214 H214       -4.6793  -22.7102  -44.4960 H         1 UNK         0.0600 
    215 H215       -5.0163  -25.3115  -48.3038 H         1 UNK         0.3000 
    216 H216       -5.5221  -25.3663  -50.4673 H         1 UNK         0.0600 
    217 H217       -3.0367  -25.2445  -50.4207 H         1 UNK         0.0600 
    218 H218       -3.1033  -23.4928  -50.6010 H         1 UNK         0.0600 
    219 H219       -3.6659  -24.5391  -51.9002 H         1 UNK         0.0600 
    220 H220       -7.2341  -23.5377  -49.2598 H         1 UNK         0.3000 
    221 H221       -8.7125  -21.9099  -49.5650 H         1 UNK         0.0600 
    222 H222       -8.1572  -22.1954  -52.5659 H         1 UNK         0.0600 
    223 H223       -9.2690  -23.1999  -51.6370 H         1 UNK         0.0600 
    224 H224       -9.5870  -21.4844  -51.8308 H         1 UNK         0.0600 
    225 H225       -6.1129  -21.1319  -48.9033 H         1 UNK         0.3000 
    226 H226       -5.0171  -19.3323  -48.3183 H         1 UNK         0.0600 
    227 H227       -7.1698  -17.9958  -48.4368 H         1 UNK         0.0600 
    228 H228       -5.7303  -17.0519  -48.7554 H         1 UNK         0.0600 
    229 H229       -6.7535  -17.5392  -50.0895 H         1 UNK         0.0600 
    230 H230       -4.8667  -20.8415  -51.1023 H         1 UNK         0.3000 
    231 H231       -3.4541  -21.1217  -52.7631 H         1 UNK         0.0600 
    232 H232       -1.4800  -19.7081  -50.9116 H         1 UNK         0.0600 
    233 H233       -1.0533  -20.8097  -52.2142 H         1 UNK         0.0600 
    234 H234       -1.9247  -21.4096  -50.8149 H         1 UNK         0.0600 
    235 H235       -4.9364  -18.5461  -52.8177 H         1 UNK         0.3000 
    236 H236       -5.2598  -16.7426  -54.0333 H         1 UNK         0.0600 
    237 H237       -4.6580  -18.1838  -56.0003 H         1 UNK         0.0600 
    238 H238       -4.2834  -16.4897  -56.2633 H         1 UNK         0.0600 
    239 H239       -2.9909  -17.6189  -55.8913 H         1 UNK         0.0600 
    240 H240       -3.1679  -16.7809  -51.7982 H         1 UNK         0.3000 
    241 H241       -1.4587  -14.4944  -52.4221 H         1 UNK         0.0600 
    242 H242       -4.8999  -13.0076  -50.9397 H         1 UNK         0.3800 
    243 H243       -4.8066  -14.6194  -51.5976 H         1 UNK         0.3800 
    244 H244       -1.9657  -15.9150  -49.7862 H         1 UNK         0.0800 
    245 H245       -0.7430  -14.6857  -50.0324 H         1 UNK         0.0800 
    246 H246        0.1373  -18.7256  -49.6971 H         1 UNK         0.0800 
    247 H247       -0.6410  -17.4657  -48.7824 H         1 UNK         0.0800 
@<TRIPOS>BOND
     1    1    2 1    
     2    1  127 1    
     3    1  128 1    
     4    1  129 1    
     5    2    3 2    
     6    2    4 am   BACKBONE|DICT|INTERRES
     7    4    5 1    
     8    4  130 1    
     9    5    6 1    
    10    5   65 1    
    11    5  131 1    
    12    6    7 1    
    13    6  132 1    
    14    6  133 1    
    15    7    8 1    
    16    8    9 1    
    17    8  134 1    
    18    8  135 1    
    19    9   10 ar   
    20    9   14 ar   
    21   10   11 ar   
    22   10  136 1    
    23   11   12 ar   
    24   11  126 1    
    25   12   13 ar   
    26   12  137 1    
    27   13   14 ar   
    28   13   15 1    
    29   14  138 1    
    30   15   16 1    
    31   15  139 1    
    32   15  140 1    
    33   16   17 1    
    34   17   18 1    
    35   17  141 1    
    36   17  142 1    
    37   18   19 1    
    38   18   67 1    
    39   18  143 1    
    40   19   20 am   BACKBONE|DICT|INTERRES
    41   19  144 1    
    42   20   21 2    
    43   20   22 1    
    44   22   23 1    
    45   22   24 1    
    46   22  145 1    
    47   23  146 1    
    48   23  147 1    
    49   23  148 1    
    50   24   25 am   BACKBONE|DICT|INTERRES
    51   24  149 1    
    52   25   26 2    
    53   25   27 1    
    54   27   28 1    
    55   27   29 1    
    56   27  150 1    
    57   28  151 1    
    58   28  152 1    
    59   28  153 1    
    60   29   30 am   BACKBONE|DICT|INTERRES
    61   29  154 1    
    62   30   31 2    
    63   30   32 1    
    64   32   33 1    
    65   32   34 1    
    66   32  155 1    
    67   33  156 1    
    68   33  157 1    
    69   33  158 1    
    70   34   35 am   BACKBONE|DICT|INTERRES
    71   34  159 1    
    72   35   36 2    
    73   35   37 1    
    74   37   38 1    
    75   37   39 1    
    76   37  160 1    
    77   38  161 1    
    78   38  162 1    
    79   38  163 1    
    80   39   40 am   BACKBONE|DICT|INTERRES
    81   39  164 1    
    82   40   41 2    
    83   40   42 1    
    84   42   43 1    
    85   42   44 1    
    86   42  165 1    
    87   43  166 1    
    88   43  167 1    
    89   43  168 1    
    90   44   45 am   BACKBONE|DICT|INTERRES
    91   44  169 1    
    92   45   46 2    
    93   45   47 1    
    94   47   48 1    
    95   47   49 1    
    96   47  170 1    
    97   48  171 1    
    98   48  172 1    
    99   48  173 1    
   100   49   50 am   BACKBONE|DICT|INTERRES
   101   49  174 1    
   102   50   51 2    
   103   50   52 1    
   104   52   53 1    
   105   52   54 1    
   106   52  175 1    
   107   53  176 1    
   108   53  177 1    
   109   53  178 1    
   110   54   55 am   BACKBONE|DICT|INTERRES
   111   54  179 1    
   112   55   56 2    
   113   55   57 1    
   114   57   58 1    
   115   57   59 1    
   116   57  180 1    
   117   58  181 1    
   118   58  182 1    
   119   58  183 1    
   120   59   60 am   BACKBONE|DICT|INTERRES
   121   59  184 1    
   122   60   61 2    
   123   60   62 1    
   124   62   63 1    
   125   62   64 1    
   126   62  185 1    
   127   63  186 1    
   128   63  187 1    
   129   63  188 1    
   130   64   65 am   BACKBONE|DICT|INTERRES
   131   64  189 1    
   132   65   66 2    
   133   67   68 2    
   134   67   69 am   BACKBONE|DICT|INTERRES
   135   69   70 1    
   136   69  190 1    
   137   70   71 1    
   138   70   72 1    
   139   70  191 1    
   140   71  192 1    
   141   71  193 1    
   142   71  194 1    
   143   72   73 2    
   144   72   74 am   BACKBONE|DICT|INTERRES
   145   74   75 1    
   146   74  195 1    
   147   75   76 1    
   148   75   77 1    
   149   75  196 1    
   150   76  197 1    
   151   76  198 1    
   152   76  199 1    
   153   77   78 2    
   154   77   79 am   BACKBONE|DICT|INTERRES
   155   79   80 1    
   156   79  200 1    
   157   80   81 1    
   158   80   82 1    
   159   80  201 1    
   160   81  202 1    
   161   81  203 1    
   162   81  204 1    
   163   82   83 2    
   164   82   84 am   BACKBONE|DICT|INTERRES
   165   84   85 1    
   166   84  205 1    
   167   85   86 1    
   168   85   87 1    
   169   85  206 1    
   170   86  207 1    
   171   86  208 1    
   172   86  209 1    
   173   87   88 2    
   174   87   89 am   BACKBONE|DICT|INTERRES
   175   89   90 1    
   176   89  210 1    
   177   90   91 1    
   178   90   92 1    
   179   90  211 1    
   180   91  212 1    
   181   91  213 1    
   182   91  214 1    
   183   92   93 2    
   184   92   94 am   BACKBONE|DICT|INTERRES
   185   94   95 1    
   186   94  215 1    
   187   95   96 1    
   188   95   97 1    
   189   95  216 1    
   190   96  217 1    
   191   96  218 1    
   192   96  219 1    
   193   97   98 2    
   194   97   99 am   BACKBONE|DICT|INTERRES
   195   99  100 1    
   196   99  220 1    
   197  100  101 1    
   198  100  102 1    
   199  100  221 1    
   200  101  222 1    
   201  101  223 1    
   202  101  224 1    
   203  102  103 2    
   204  102  104 am   BACKBONE|DICT|INTERRES
   205  104  105 1    
   206  104  225 1    
   207  105  106 1    
   208  105  107 1    
   209  105  226 1    
   210  106  227 1    
   211  106  228 1    
   212  106  229 1    
   213  107  108 2    
   214  107  109 am   BACKBONE|DICT|INTERRES
   215  109  110 1    
   216  109  230 1    
   217  110  111 1    
   218  110  112 1    
   219  110  231 1    
   220  111  232 1    
   221  111  233 1    
   222  111  234 1    
   223  112  113 2    
   224  112  114 am   BACKBONE|DICT|INTERRES
   225  114  115 1    
   226  114  235 1    
   227  115  116 1    
   228  115  117 1    
   229  115  236 1    
   230  116  237 1    
   231  116  238 1    
   232  116  239 1    
   233  117  118 2    
   234  117  119 am   BACKBONE|DICT|INTERRES
   235  119  120 1    
   236  119  240 1    
   237  120  121 1    
   238  120  124 1    
   239  120  241 1    
   240  121  122 am   BACKBONE|DICT|INTERRES
   241  121  123 2    
   242  122  242 1    
   243  122  243 1    
   244  124  125 1    
   245  124  244 1    
   246  124  245 1    
   247  125  126 1    
   248  126  246 1    
   249  126  247 1    
@<TRIPOS>SUBSTRUCTURE
     1 UNK         1 GROUP             0       ****    0 ROOT    
