@<TRIPOS>MOLECULE
3R540
247   249    1
SMALL
USER_CHARGES


@<TRIPOS>ATOM
      1 CA         -1.9554  -14.1775  -46.6107 C.3       0 UNK        -0.1800 
      2 C          -2.0278  -12.8314  -47.3345 C.2       0 UNK         0.5000 
      3 O          -3.1253  -12.4232  -47.7072 O.2       0 UNK        -0.5000 
      4 N          -0.9279  -12.0934  -47.5635 N.am      1 UNK        -0.5000 
      5 CA          0.4794  -12.3606  -47.2255 C.3       1 UNK         0.1400 
      6 C6          1.1560  -13.4027  -48.1571 C.3       23 UNK        -0.0398 
      7 S7          1.4195  -12.7484  -49.8415 S.3       23 UNK        -0.2404 
      8 C8         -0.0650  -13.3043  -50.7399 C.3       23 UNK        -0.0205 
      9 C9         -0.1574  -14.8189  -50.8317 C.ar      23 UNK        -0.0193 
     10 C10         0.7019  -15.5283  -51.6751 C.ar      23 UNK        -0.1150 
     11 C11         0.6135  -16.9221  -51.7750 C.ar      23 UNK        -0.0193 
     12 C12        -0.3274  -17.6017  -50.9958 C.ar      23 UNK        -0.1150 
     13 C13        -1.1858  -16.9034  -50.1436 C.ar      23 UNK        -0.0193 
     14 C14        -1.1070  -15.5115  -50.0770 C.ar      23 UNK        -0.1150 
     15 C15        -2.1841  -17.6528  -49.2801 C.3       23 UNK        -0.0205 
     16 S16        -1.5349  -17.8592  -47.5955 S.3       23 UNK        -0.2404 
     17 C17        -2.7391  -19.0378  -46.9110 C.3       23 UNK        -0.0398 
     18 CA         -2.2253  -20.4962  -46.9665 C.3       11 UNK         0.1400 
     19 N          -0.9531  -20.6888  -46.2655 N.am      11 UNK        -0.5000 
     20 C          -0.2097  -21.8039  -46.3163 C.2       10 UNK         0.5000 
     21 O          -0.4965  -22.7918  -46.9923 O.2       10 UNK        -0.5000 
     22 CA          1.0289  -21.8397  -45.4039 C.3       10 UNK         0.1400 
     23 CB          2.2166  -21.1252  -46.0649 C.3       10 UNK        -0.1800 
     24 N           0.7518  -21.2438  -44.0954 N.am      10 UNK        -0.5000 
     25 C          -0.0907  -21.7842  -43.2001 C.2       9 UNK         0.5000 
     26 O          -0.6578  -22.8631  -43.3661 O.2       9 UNK        -0.5000 
     27 CA         -0.3995  -20.9720  -41.9317 C.3       9 UNK         0.1400 
     28 CB          0.5374  -21.3884  -40.7900 C.3       9 UNK        -0.1800 
     29 N          -0.3259  -19.5275  -42.1587 N.am      9 UNK        -0.5000 
     30 C          -1.1952  -18.8500  -42.9260 C.2       8 UNK         0.5000 
     31 O          -2.1507  -19.3934  -43.4839 O.2       8 UNK        -0.5000 
     32 CA         -0.9404  -17.3470  -43.1731 C.3       8 UNK         0.1400 
     33 CB         -2.2304  -16.5051  -43.1082 C.3       8 UNK        -0.1800 
     34 N           0.1273  -16.7717  -42.3483 N.am      8 UNK        -0.5000 
     35 C           0.1348  -16.5437  -41.0266 C.2       7 UNK         0.5000 
     36 O          -0.8343  -16.7213  -40.2883 O.2       7 UNK        -0.5000 
     37 CA          1.4811  -16.0503  -40.4465 C.3       7 UNK         0.1400 
     38 CB          1.5904  -16.2394  -38.9195 C.3       7 UNK        -0.1800 
     39 N           2.6479  -16.6285  -41.1325 N.am      7 UNK        -0.5000 
     40 C           2.9405  -17.9338  -41.2316 C.2       6 UNK         0.5000 
     41 O           2.2834  -18.8181  -40.6859 O.2       6 UNK        -0.5000 
     42 CA          4.1102  -18.2994  -42.1672 C.3       6 UNK         0.1400 
     43 CB          4.2873  -19.8228  -42.3425 C.3       6 UNK        -0.1800 
     44 N           3.9847  -17.6445  -43.4740 N.am      6 UNK        -0.5000 
     45 C           2.9662  -17.7395  -44.3417 C.2       5 UNK         0.5000 
     46 O           1.9778  -18.4526  -44.1537 O.2       5 UNK        -0.5000 
     47 CA          3.0533  -16.8576  -45.6067 C.3       5 UNK         0.1400 
     48 CB          1.7164  -16.7710  -46.3628 C.3       5 UNK        -0.1800 
     49 N           3.5220  -15.4996  -45.3070 N.am      5 UNK        -0.5000 
     50 C           4.8094  -15.1448  -45.1974 C.2       4 UNK         0.5000 
     51 O           5.7421  -15.9385  -45.3251 O.2       4 UNK        -0.5000 
     52 CA          5.1142  -13.6794  -44.8384 C.3       4 UNK         0.1400 
     53 CB          4.9514  -12.7732  -46.0684 C.3       4 UNK        -0.1800 
     54 N           4.3168  -13.1379  -43.7367 N.am      4 UNK        -0.5000 
     55 C           4.1981  -13.6359  -42.4991 C.2       3 UNK         0.5000 
     56 O           4.6669  -14.7167  -42.1402 O.2       3 UNK        -0.5000 
     57 CA          3.3838  -12.8013  -41.4885 C.3       3 UNK         0.1400 
     58 CB          4.1582  -11.5521  -41.0248 C.3       3 UNK        -0.1800 
     59 N           2.0336  -12.4760  -41.9688 N.am      3 UNK        -0.5000 
     60 C           1.6879  -11.6759  -42.9848 C.2       2 UNK         0.5000 
     61 O           2.4745  -10.9469  -43.5952 O.2       2 UNK        -0.5000 
     62 CA          0.2170  -11.7535  -43.4326 C.3       2 UNK         0.1400 
     63 CB         -0.5905  -10.5804  -42.8584 C.3       2 UNK        -0.1800 
     64 N           0.0972  -11.7536  -44.8912 N.am      2 UNK        -0.5000 
     65 C           0.6807  -12.6331  -45.7197 C.2       1 UNK         0.5000 
     66 O           1.3215  -13.6154  -45.3391 O.2       1 UNK        -0.5000 
     67 C          -3.3004  -21.4588  -46.4359 C.2       11 UNK         0.5000 
     68 O          -4.0055  -22.0699  -47.2373 O.2       11 UNK        -0.5000 
     69 N          -3.3795  -21.6007  -45.1047 N.am      12 UNK        -0.5000 
     70 CA         -4.2894  -22.5184  -44.4200 C.3       12 UNK         0.1400 
     71 CB         -4.2438  -22.2559  -42.9075 C.3       12 UNK        -0.1800 
     72 C          -3.9928  -23.9973  -44.7306 C.2       12 UNK         0.5000 
     73 O          -4.9268  -24.7547  -44.9931 O.2       12 UNK        -0.5000 
     74 N          -2.7054  -24.3731  -44.7287 N.am      13 UNK        -0.5000 
     75 CA         -2.2278  -25.7198  -45.0516 C.3       13 UNK         0.1400 
     76 CB         -0.7330  -25.8312  -44.7154 C.3       13 UNK        -0.1800 
     77 C          -2.4837  -26.1123  -46.5177 C.2       13 UNK         0.5000 
     78 O          -2.8925  -27.2438  -46.7814 O.2       13 UNK        -0.5000 
     79 N          -2.2626  -25.1663  -47.4405 N.am      14 UNK        -0.5000 
     80 CA         -2.5433  -25.3231  -48.8693 C.3       14 UNK         0.1400 
     81 CB         -1.7841  -24.2297  -49.6379 C.3       14 UNK        -0.1800 
     82 C          -4.0469  -25.2555  -49.2045 C.2       14 UNK         0.5000 
     83 O          -4.4478  -25.7088  -50.2759 O.2       14 UNK        -0.5000 
     84 N          -4.8372  -24.6514  -48.3051 N.am      15 UNK        -0.5000 
     85 CA         -6.2360  -24.2483  -48.4757 C.3       15 UNK         0.1400 
     86 CB         -7.1698  -25.4737  -48.5390 C.3       15 UNK        -0.1800 
     87 C          -6.4123  -23.2431  -49.6367 C.2       15 UNK         0.5000 
     88 O          -7.4032  -23.2975  -50.3677 O.2       15 UNK        -0.5000 
     89 N          -5.4218  -22.3444  -49.7606 N.am      16 UNK        -0.5000 
     90 CA         -5.2777  -21.2317  -50.7012 C.3       16 UNK         0.1400 
     91 CB         -6.0299  -20.0014  -50.1532 C.3       16 UNK        -0.1800 
     92 C          -5.6528  -21.5877  -52.1553 C.2       16 UNK         0.5000 
     93 O          -4.8423  -22.1796  -52.8723 O.2       16 UNK        -0.5000 
     94 N          -6.8798  -21.2275  -52.5537 N.am      17 UNK        -0.5000 
     95 CA         -7.4592  -21.4347  -53.8793 C.3       17 UNK         0.1400 
     96 CB         -8.8099  -20.7064  -53.9470 C.3       17 UNK        -0.1800 
     97 C          -7.6249  -22.9119  -54.2849 C.2       17 UNK         0.5000 
     98 O          -7.6887  -23.1882  -55.4825 O.2       17 UNK        -0.5000 
     99 N          -7.6663  -23.8348  -53.3115 N.am      18 UNK        -0.5000 
    100 CA        -7.7408  -25.2791  -53.5539 C.3       18 UNK         0.1400 
    101 CB        -8.0178  -26.0079  -52.2334 C.3       18 UNK        -0.1800 
    102 C         -6.4641  -25.8332  -54.2149 C.2       18 UNK         0.5000 
    103 O         -6.5569  -26.6635  -55.1196 O.2       18 UNK        -0.5000 
    104 N         -5.3016  -25.3348  -53.7737 N.am      19 UNK        -0.5000 
    105 CA        -3.9952  -25.6150  -54.3741 C.3       19 UNK         0.1400 
    106 CB        -2.9234  -25.5276  -53.2778 C.3       19 UNK        -0.1800 
    107 C         -3.6542  -24.6353  -55.5130 C.2       19 UNK         0.5000 
    108 O         -2.6966  -24.8778  -56.2483 O.2       19 UNK        -0.5000 
    109 N         -4.4185  -23.5369  -55.6073 N.am      20 UNK        -0.5000 
    110 CA        -4.2012  -22.3580  -56.4492 C.3       20 UNK         0.1400 
    111 CB        -4.3082  -22.7095  -57.9473 C.3       20 UNK        -0.1800 
    112 C         -2.8932  -21.6298  -56.0783 C.2       20 UNK         0.5000 
    113 O         -2.1606  -21.1795  -56.9624 O.2       20 UNK        -0.5000 
    114 N         -2.6207  -21.5427  -54.7668 N.am      21 UNK        -0.5000 
    115 CA        -1.4284  -20.9312  -54.1809 C.3       21 UNK         0.1400 
    116 CB        -1.4550  -21.1366  -52.6570 C.3       21 UNK        -0.1800 
    117 C         -1.3276  -19.4402  -54.5515 C.2       21 UNK         0.5000 
    118 O         -2.1569  -18.6468  -54.1027 O.2       21 UNK        -0.5000 
    119 N         -0.3462  -19.1125  -55.4031 N.am      22 UNK        -0.5000 
    120 CA        -0.1544  -17.7940  -56.0353 C.3       22 UNK         0.1400 
    121 C         -1.3047  -17.3751  -57.0067 C.2       22 UNK         0.5000 
    122 N         -2.1028  -18.3011  -57.5264 N.am      22 UNK        -0.7600 
    123 O         -1.4602  -16.2002  -57.3297 O.2       22 UNK        -0.5000 
    124 C124        0.2255  -16.6816  -55.0166 C.3       23 UNK        -0.0398 
    125 S125        1.8884  -16.9258  -54.2995 S.3       23 UNK        -0.2404 
    126 C126        1.5359  -17.7194  -52.6932 C.3       23 UNK        -0.0205 
    127 H127       -1.0273  -14.7143  -46.7895 H         1 UNK         0.0600 
    128 H128       -2.7672  -14.8255  -46.9418 H         1 UNK         0.0600 
    129 H129       -2.0647  -14.0307  -45.5363 H         1 UNK         0.0600 
    130 H130       -1.0654  -11.2140  -48.0413 H         1 UNK         0.3000 
    131 H131        0.9985  -11.4146  -47.3888 H         1 UNK         0.0600 
    132 H132        2.1457  -13.6682  -47.7827 H         1 UNK         0.0800 
    133 H133        0.6004  -14.3364  -48.1988 H         1 UNK         0.0800 
    134 H134       -0.0384  -12.8891  -51.7483 H         1 UNK         0.0800 
    135 H135       -0.9555  -12.8884  -50.2675 H         1 UNK         0.0800 
    136 H136        1.4383  -14.9896  -52.2544 H         1 UNK         0.1150 
    137 H137       -0.3896  -18.6789  -51.0458 H         1 UNK         0.1150 
    138 H138       -1.7746  -14.9716  -49.4219 H         1 UNK         0.1150 
    139 H139       -2.3991  -18.6305  -49.7147 H         1 UNK         0.0800 
    140 H140       -3.1303  -17.1108  -49.2446 H         1 UNK         0.0800 
    141 H141       -3.6816  -18.9397  -47.4531 H         1 UNK         0.0800 
    142 H142       -2.9529  -18.7378  -45.8847 H         1 UNK         0.0800 
    143 H143       -2.0572  -20.7507  -48.0155 H         1 UNK         0.0600 
    144 H144       -0.6515  -19.9329  -45.6695 H         1 UNK         0.3000 
    145 H145        1.3046  -22.8850  -45.2493 H         1 UNK         0.0600 
    146 H146        2.4981  -21.6213  -46.9944 H         1 UNK         0.0600 
    147 H147        3.0919  -21.1269  -45.4151 H         1 UNK         0.0600 
    148 H148        1.9806  -20.0895  -46.3080 H         1 UNK         0.0600 
    149 H149        1.1619  -20.3340  -43.9083 H         1 UNK         0.3000 
    150 H150       -1.4203  -21.2059  -41.6243 H         1 UNK         0.0600 
    151 H151        1.5859  -21.2873  -41.0714 H         1 UNK         0.0600 
    152 H152        0.3755  -22.4324  -40.5194 H         1 UNK         0.0600 
    153 H153        0.3663  -20.7892  -39.8956 H         1 UNK         0.0600 
    154 H154        0.4648  -19.0438  -41.7483 H         1 UNK         0.3000 
    155 H155       -0.5777  -17.2868  -44.1996 H         1 UNK         0.0600 
    156 H156       -2.7212  -16.5858  -42.1383 H         1 UNK         0.0600 
    157 H157       -2.9470  -16.8326  -43.8623 H         1 UNK         0.0600 
    158 H158       -2.0235  -15.4516  -43.2963 H         1 UNK         0.0600 
    159 H159        1.0031  -16.6483  -42.8357 H         1 UNK         0.3000 
    160 H160        1.5052  -14.9802  -40.6417 H         1 UNK         0.0600 
    161 H161        1.5007  -17.2873  -38.6318 H         1 UNK         0.0600 
    162 H162        0.8040  -15.6909  -38.3998 H         1 UNK         0.0600 
    163 H163        2.5445  -15.8691  -38.5444 H         1 UNK         0.0600 
    164 H164        3.2739  -15.9758  -41.5956 H         1 UNK         0.3000 
    165 H165        5.0157  -17.9066  -41.7028 H         1 UNK         0.0600 
    166 H166        4.4761  -20.3062  -41.3833 H         1 UNK         0.0600 
    167 H167        3.4015  -20.2903  -42.7736 H         1 UNK         0.0600 
    168 H168        5.1330  -20.0484  -42.9918 H         1 UNK         0.0600 
    169 H169        4.7411  -17.0185  -43.7240 H         1 UNK         0.3000 
    170 H170        3.7678  -17.3442  -46.2736 H         1 UNK         0.0600 
    171 H171        1.8299  -16.2204  -47.2957 H         1 UNK         0.0600 
    172 H172        0.9468  -16.2751  -45.7715 H         1 UNK         0.0600 
    173 H173        1.3450  -17.7618  -46.6242 H         1 UNK         0.0600 
    174 H174        2.8023  -14.7914  -45.1799 H         1 UNK         0.3000 
    175 H175        6.1591  -13.6357  -44.5251 H         1 UNK         0.0600 
    176 H176        5.5256  -13.1513  -46.9153 H         1 UNK         0.0600 
    177 H177        3.9094  -12.7033  -46.3809 H         1 UNK         0.0600 
    178 H178        5.3051  -11.7629  -45.8619 H         1 UNK         0.0600 
    179 H179        3.8316  -12.2641  -43.9195 H         1 UNK         0.3000 
    180 H180        3.2461  -13.4252  -40.6047 H         1 UNK         0.0600 
    181 H181        4.4029  -10.8832  -41.8500 H         1 UNK         0.0600 
    182 H182        5.0993  -11.8362  -40.5524 H         1 UNK         0.0600 
    183 H183        3.5856  -10.9841  -40.2917 H         1 UNK         0.0600 
    184 H184        1.2936  -13.0080  -41.5355 H         1 UNK         0.3000 
    185 H185       -0.2167  -12.6876  -43.0692 H         1 UNK         0.0600 
    186 H186       -0.5412  -10.5681  -41.7688 H         1 UNK         0.0600 
    187 H187       -0.2138   -9.6207  -43.2148 H         1 UNK         0.0600 
    188 H188       -1.6427  -10.6522  -43.1343 H         1 UNK         0.0600 
    189 H189       -0.4094  -10.9803  -45.2964 H         1 UNK         0.3000 
    190 H190       -2.7894  -21.0202  -44.5174 H         1 UNK         0.3000 
    191 H191       -5.3008  -22.3015  -44.7702 H         1 UNK         0.0600 
    192 H192       -4.4725  -21.2147  -42.6793 H         1 UNK         0.0600 
    193 H193       -4.9745  -22.8733  -42.3838 H         1 UNK         0.0600 
    194 H194       -3.2641  -22.4836  -42.4883 H         1 UNK         0.0600 
    195 H195       -1.9979  -23.7016  -44.4421 H         1 UNK         0.3000 
    196 H196       -2.7702  -26.4265  -44.4202 H         1 UNK         0.0600 
    197 H197       -0.3523  -26.8270  -44.9460 H         1 UNK         0.0600 
    198 H198       -0.5539  -25.6528  -43.6550 H         1 UNK         0.0600 
    199 H199       -0.1389  -25.1119  -45.2804 H         1 UNK         0.0600 
    200 H200       -1.8636  -24.2783  -47.1512 H         1 UNK         0.3000 
    201 H201       -2.1716  -26.2962  -49.1965 H         1 UNK         0.0600 
    202 H202       -1.9255  -24.3336  -50.7127 H         1 UNK         0.0600 
    203 H203       -0.7123  -24.2848  -49.4467 H         1 UNK         0.0600 
    204 H204       -2.1227  -23.2314  -49.3569 H         1 UNK         0.0600 
    205 H205       -4.3902  -24.2860  -47.4742 H         1 UNK         0.3000 
    206 H206       -6.4992  -23.6933  -47.5741 H         1 UNK         0.0600 
    207 H207       -7.1235  -26.0396  -47.6085 H         1 UNK         0.0600 
    208 H208       -8.2088  -25.1757  -48.6831 H         1 UNK         0.0600 
    209 H209       -6.9047  -26.1537  -49.3459 H         1 UNK         0.0600 
    210 H210       -4.6987  -22.3948  -49.0495 H         1 UNK         0.3000 
    211 H211       -4.2160  -20.9829  -50.7172 H         1 UNK         0.0600 
    212 H212       -5.6091  -19.6862  -49.1981 H         1 UNK         0.0600 
    213 H213       -5.9503  -19.1524  -50.8337 H         1 UNK         0.0600 
    214 H214       -7.0889  -20.2056  -49.9910 H         1 UNK         0.0600 
    215 H215       -7.4817  -20.7892  -51.8721 H         1 UNK         0.3000 
    216 H216       -6.7875  -20.9732  -54.6054 H         1 UNK         0.0600 
    217 H217       -9.5179  -21.1060  -53.2197 H         1 UNK         0.0600 
    218 H218       -9.2613  -20.8082  -54.9349 H         1 UNK         0.0600 
    219 H219       -8.6942  -19.6398  -53.7535 H         1 UNK         0.0600 
    220 H220       -7.6089  -23.5348  -52.3420 H         1 UNK         0.3000 
    221 H221       -8.5792  -25.4654  -54.2284 H         1 UNK         0.0600 
    222 H222       -7.1796  -25.8978  -51.5468 H         1 UNK         0.0600 
    223 H223       -8.9109  -25.6213  -51.7422 H         1 UNK         0.0600 
    224 H224       -8.1684  -27.0752  -52.3992 H         1 UNK         0.0600 
    225 H225       -5.3144  -24.6645  -53.0164 H         1 UNK         0.3000 
    226 H226       -3.9840  -26.6257  -54.7871 H         1 UNK         0.0600 
    227 H227       -3.0945  -26.2715  -52.5003 H         1 UNK         0.0600 
    228 H228       -1.9268  -25.7084  -53.6823 H         1 UNK         0.0600 
    229 H229       -2.9162  -24.5422  -52.8110 H         1 UNK         0.0600 
    230 H230       -5.1622  -23.4500  -54.9297 H         1 UNK         0.3000 
    231 H231       -5.0100  -21.6641  -56.2184 H         1 UNK         0.0600 
    232 H232       -3.4877  -23.3469  -58.2774 H         1 UNK         0.0600 
    233 H233       -4.2862  -21.8079  -58.5605 H         1 UNK         0.0600 
    234 H234       -5.2435  -23.2259  -58.1636 H         1 UNK         0.0600 
    235 H235       -3.3113  -21.8940  -54.1107 H         1 UNK         0.3000 
    236 H236       -0.5581  -21.4589  -54.5764 H         1 UNK         0.0600 
    237 H237       -2.2886  -20.6087  -52.1930 H         1 UNK         0.0600 
    238 H238       -1.5446  -22.1926  -52.4008 H         1 UNK         0.0600 
    239 H239       -0.5358  -20.7695  -52.2003 H         1 UNK         0.0600 
    240 H240        0.2592  -19.8443  -55.7461 H         1 UNK         0.3000 
    241 H241        0.7011  -17.9183  -56.6999 H         1 UNK         0.0600 
    242 H242       -2.8303  -18.0212  -58.1644 H         1 UNK         0.3800 
    243 H243       -1.9886  -19.2840  -57.2959 H         1 UNK         0.3800 
    244 H244       -0.5266  -16.5898  -54.2332 H         1 UNK         0.0800 
    245 H245        0.2562  -15.7069  -55.5052 H         1 UNK         0.0800 
    246 H246        1.1194  -18.7087  -52.8848 H         1 UNK         0.0800 
    247 H247        2.4804  -17.8815  -52.1729 H         1 UNK         0.0800 
@<TRIPOS>BOND
     1    1    2 1    
     2    1  127 1    
     3    1  128 1    
     4    1  129 1    
     5    2    3 2    
     6    2    4 am   BACKBONE|DICT|INTERRES
     7    4    5 1    
     8    4  130 1    
     9    5    6 1    
    10    5   65 1    
    11    5  131 1    
    12    6    7 1    
    13    6  132 1    
    14    6  133 1    
    15    7    8 1    
    16    8    9 1    
    17    8  134 1    
    18    8  135 1    
    19    9   10 ar   
    20    9   14 ar   
    21   10   11 ar   
    22   10  136 1    
    23   11   12 ar   
    24   11  126 1    
    25   12   13 ar   
    26   12  137 1    
    27   13   14 ar   
    28   13   15 1    
    29   14  138 1    
    30   15   16 1    
    31   15  139 1    
    32   15  140 1    
    33   16   17 1    
    34   17   18 1    
    35   17  141 1    
    36   17  142 1    
    37   18   19 1    
    38   18   67 1    
    39   18  143 1    
    40   19   20 am   BACKBONE|DICT|INTERRES
    41   19  144 1    
    42   20   21 2    
    43   20   22 1    
    44   22   23 1    
    45   22   24 1    
    46   22  145 1    
    47   23  146 1    
    48   23  147 1    
    49   23  148 1    
    50   24   25 am   BACKBONE|DICT|INTERRES
    51   24  149 1    
    52   25   26 2    
    53   25   27 1    
    54   27   28 1    
    55   27   29 1    
    56   27  150 1    
    57   28  151 1    
    58   28  152 1    
    59   28  153 1    
    60   29   30 am   BACKBONE|DICT|INTERRES
    61   29  154 1    
    62   30   31 2    
    63   30   32 1    
    64   32   33 1    
    65   32   34 1    
    66   32  155 1    
    67   33  156 1    
    68   33  157 1    
    69   33  158 1    
    70   34   35 am   BACKBONE|DICT|INTERRES
    71   34  159 1    
    72   35   36 2    
    73   35   37 1    
    74   37   38 1    
    75   37   39 1    
    76   37  160 1    
    77   38  161 1    
    78   38  162 1    
    79   38  163 1    
    80   39   40 am   BACKBONE|DICT|INTERRES
    81   39  164 1    
    82   40   41 2    
    83   40   42 1    
    84   42   43 1    
    85   42   44 1    
    86   42  165 1    
    87   43  166 1    
    88   43  167 1    
    89   43  168 1    
    90   44   45 am   BACKBONE|DICT|INTERRES
    91   44  169 1    
    92   45   46 2    
    93   45   47 1    
    94   47   48 1    
    95   47   49 1    
    96   47  170 1    
    97   48  171 1    
    98   48  172 1    
    99   48  173 1    
   100   49   50 am   BACKBONE|DICT|INTERRES
   101   49  174 1    
   102   50   51 2    
   103   50   52 1    
   104   52   53 1    
   105   52   54 1    
   106   52  175 1    
   107   53  176 1    
   108   53  177 1    
   109   53  178 1    
   110   54   55 am   BACKBONE|DICT|INTERRES
   111   54  179 1    
   112   55   56 2    
   113   55   57 1    
   114   57   58 1    
   115   57   59 1    
   116   57  180 1    
   117   58  181 1    
   118   58  182 1    
   119   58  183 1    
   120   59   60 am   BACKBONE|DICT|INTERRES
   121   59  184 1    
   122   60   61 2    
   123   60   62 1    
   124   62   63 1    
   125   62   64 1    
   126   62  185 1    
   127   63  186 1    
   128   63  187 1    
   129   63  188 1    
   130   64   65 am   BACKBONE|DICT|INTERRES
   131   64  189 1    
   132   65   66 2    
   133   67   68 2    
   134   67   69 am   BACKBONE|DICT|INTERRES
   135   69   70 1    
   136   69  190 1    
   137   70   71 1    
   138   70   72 1    
   139   70  191 1    
   140   71  192 1    
   141   71  193 1    
   142   71  194 1    
   143   72   73 2    
   144   72   74 am   BACKBONE|DICT|INTERRES
   145   74   75 1    
   146   74  195 1    
   147   75   76 1    
   148   75   77 1    
   149   75  196 1    
   150   76  197 1    
   151   76  198 1    
   152   76  199 1    
   153   77   78 2    
   154   77   79 am   BACKBONE|DICT|INTERRES
   155   79   80 1    
   156   79  200 1    
   157   80   81 1    
   158   80   82 1    
   159   80  201 1    
   160   81  202 1    
   161   81  203 1    
   162   81  204 1    
   163   82   83 2    
   164   82   84 am   BACKBONE|DICT|INTERRES
   165   84   85 1    
   166   84  205 1    
   167   85   86 1    
   168   85   87 1    
   169   85  206 1    
   170   86  207 1    
   171   86  208 1    
   172   86  209 1    
   173   87   88 2    
   174   87   89 am   BACKBONE|DICT|INTERRES
   175   89   90 1    
   176   89  210 1    
   177   90   91 1    
   178   90   92 1    
   179   90  211 1    
   180   91  212 1    
   181   91  213 1    
   182   91  214 1    
   183   92   93 2    
   184   92   94 am   BACKBONE|DICT|INTERRES
   185   94   95 1    
   186   94  215 1    
   187   95   96 1    
   188   95   97 1    
   189   95  216 1    
   190   96  217 1    
   191   96  218 1    
   192   96  219 1    
   193   97   98 2    
   194   97   99 am   BACKBONE|DICT|INTERRES
   195   99  100 1    
   196   99  220 1    
   197  100  101 1    
   198  100  102 1    
   199  100  221 1    
   200  101  222 1    
   201  101  223 1    
   202  101  224 1    
   203  102  103 2    
   204  102  104 am   BACKBONE|DICT|INTERRES
   205  104  105 1    
   206  104  225 1    
   207  105  106 1    
   208  105  107 1    
   209  105  226 1    
   210  106  227 1    
   211  106  228 1    
   212  106  229 1    
   213  107  108 2    
   214  107  109 am   BACKBONE|DICT|INTERRES
   215  109  110 1    
   216  109  230 1    
   217  110  111 1    
   218  110  112 1    
   219  110  231 1    
   220  111  232 1    
   221  111  233 1    
   222  111  234 1    
   223  112  113 2    
   224  112  114 am   BACKBONE|DICT|INTERRES
   225  114  115 1    
   226  114  235 1    
   227  115  116 1    
   228  115  117 1    
   229  115  236 1    
   230  116  237 1    
   231  116  238 1    
   232  116  239 1    
   233  117  118 2    
   234  117  119 am   BACKBONE|DICT|INTERRES
   235  119  120 1    
   236  119  240 1    
   237  120  121 1    
   238  120  124 1    
   239  120  241 1    
   240  121  122 am   BACKBONE|DICT|INTERRES
   241  121  123 2    
   242  122  242 1    
   243  122  243 1    
   244  124  125 1    
   245  124  244 1    
   246  124  245 1    
   247  125  126 1    
   248  126  246 1    
   249  126  247 1    
@<TRIPOS>SUBSTRUCTURE
     1 UNK         1 GROUP             0       ****    0 ROOT    
