@<TRIPOS>MOLECULE
3R540
247   249    1
SMALL
USER_CHARGES


@<TRIPOS>ATOM
      1 CA         -0.7626  -12.8697  -47.4982 C.3       0 UNK        -0.1800 
      2 C           0.4347  -12.3524  -48.2800 C.2       0 UNK         0.5000 
      3 O           0.4798  -11.1698  -48.6212 O.2       0 UNK        -0.5000 
      4 N           1.4157  -13.2239  -48.5469 N.am      1 UNK        -0.5000 
      5 CA          2.6949  -12.8871  -49.1809 C.3       1 UNK         0.1400 
      6 C6          3.5052  -14.1374  -49.6171 C.3       23 UNK        -0.0398 
      7 S7          3.5499  -15.5035  -48.3961 S.3       23 UNK        -0.2404 
      8 C8          3.5707  -16.9652  -49.4920 C.3       23 UNK        -0.0205 
      9 C9          2.1937  -17.5156  -49.8669 C.ar      23 UNK        -0.0193 
     10 C10         1.0867  -16.6853  -50.0743 C.ar      23 UNK        -0.1150 
     11 C11        -0.1531  -17.2216  -50.4260 C.ar      23 UNK        -0.0193 
     12 C12        -0.2899  -18.6043  -50.5692 C.ar      23 UNK        -0.1150 
     13 C13         0.8049  -19.4532  -50.3856 C.ar      23 UNK        -0.0193 
     14 C14         2.0439  -18.8948  -50.0433 C.ar      23 UNK        -0.1150 
     15 C15         0.6188  -20.9585  -50.5916 C.3       23 UNK        -0.0205 
     16 S16         1.7496  -22.0159  -49.6192 S.3       23 UNK        -0.2404 
     17 C17         1.2668  -21.5638  -47.9178 C.3       23 UNK        -0.0398 
     18 CA          0.6607  -22.7201  -47.0900 C.3       11 UNK         0.1400 
     19 N           0.4120  -22.3004  -45.7116 N.am      11 UNK        -0.5000 
     20 C           0.0168  -23.0982  -44.7111 C.2       10 UNK         0.5000 
     21 O          -0.1236  -24.3167  -44.8165 O.2       10 UNK        -0.5000 
     22 CA         -0.3327  -22.4031  -43.3829 C.3       10 UNK         0.1400 
     23 CB          0.9375  -22.0844  -42.5806 C.3       10 UNK        -0.1800 
     24 N          -1.1120  -21.1788  -43.5827 N.am      10 UNK        -0.5000 
     25 C          -2.3390  -21.1467  -44.1237 C.2       9 UNK         0.5000 
     26 O          -2.9611  -22.1534  -44.4624 O.2       9 UNK        -0.5000 
     27 CA         -2.9614  -19.7604  -44.3662 C.3       9 UNK         0.1400 
     28 CB         -3.5372  -19.1857  -43.0636 C.3       9 UNK        -0.1800 
     29 N          -2.0179  -18.8090  -44.9555 N.am      9 UNK        -0.5000 
     30 C          -1.4638  -18.9406  -46.1694 C.2       8 UNK         0.5000 
     31 O          -1.7181  -19.8662  -46.9378 O.2       8 UNK        -0.5000 
     32 CA         -0.4110  -17.8938  -46.5767 C.3       8 UNK         0.1400 
     33 CB         -1.0791  -16.6013  -47.0605 C.3       8 UNK        -0.1800 
     34 N           0.5300  -17.5905  -45.4991 N.am      8 UNK        -0.5000 
     35 C           1.3557  -18.4876  -44.9421 C.2       7 UNK         0.5000 
     36 O           1.4541  -19.6561  -45.3141 O.2       7 UNK        -0.5000 
     37 CA          2.1595  -18.0165  -43.7210 C.3       7 UNK         0.1400 
     38 CB          3.4013  -17.2226  -44.1534 C.3       7 UNK        -0.1800 
     39 N           1.3363  -17.2152  -42.8143 N.am      7 UNK        -0.5000 
     40 C           0.3354  -17.7123  -42.0723 C.2       6 UNK         0.5000 
     41 O           0.0283  -18.9042  -42.0502 O.2       6 UNK        -0.5000 
     42 CA         -0.4844  -16.7044  -41.2454 C.3       6 UNK         0.1400 
     43 CB          0.2132  -16.4052  -39.9102 C.3       6 UNK        -0.1800 
     44 N          -0.7248  -15.4496  -41.9592 N.am      6 UNK        -0.5000 
     45 C          -1.4798  -15.3375  -43.0613 C.2       5 UNK         0.5000 
     46 O          -2.0876  -16.2776  -43.5701 O.2       5 UNK        -0.5000 
     47 CA         -1.5218  -13.9546  -43.7380 C.3       5 UNK         0.1400 
     48 CB         -2.6450  -13.0932  -43.1439 C.3       5 UNK        -0.1800 
     49 N          -0.2552  -13.2231  -43.6532 N.am      5 UNK        -0.5000 
     50 C           0.9192  -13.6501  -44.1337 C.2       4 UNK         0.5000 
     51 O           1.0599  -14.7246  -44.7215 O.2       4 UNK        -0.5000 
     52 CA          2.1160  -12.7025  -43.9263 C.3       4 UNK         0.1400 
     53 CB          3.4673  -13.4079  -44.1322 C.3       4 UNK        -0.1800 
     54 N           2.0178  -11.5459  -44.8188 N.am      4 UNK        -0.5000 
     55 C           1.2321  -10.4798  -44.5961 C.2       3 UNK         0.5000 
     56 O           0.5453  -10.3639  -43.5787 O.2       3 UNK        -0.5000 
     57 CA          1.1460   -9.3851  -45.6831 C.3       3 UNK         0.1400 
     58 CB          1.0961   -7.9619  -45.0886 C.3       3 UNK        -0.1800 
     59 N           2.1572   -9.4938  -46.7388 N.am      3 UNK        -0.5000 
     60 C           3.4802   -9.2822  -46.6502 C.2       2 UNK         0.5000 
     61 O           4.0474   -8.8877  -45.6304 O.2       2 UNK        -0.5000 
     62 CA          4.3011   -9.6006  -47.9243 C.3       2 UNK         0.1400 
     63 CB          5.7956   -9.8480  -47.6296 C.3       2 UNK        -0.1800 
     64 N           3.7348  -10.7110  -48.7064 N.am      2 UNK        -0.5000 
     65 C           3.5025  -11.9537  -48.2575 C.2       1 UNK         0.5000 
     66 O           3.8210  -12.3405  -47.1340 O.2       1 UNK        -0.5000 
     67 C          -0.6081  -23.3166  -47.7335 C.2       11 UNK         0.5000 
     68 O          -0.5444  -24.4248  -48.2614 O.2       11 UNK        -0.5000 
     69 N          -1.7426  -22.6087  -47.6315 N.am      12 UNK        -0.5000 
     70 CA         -3.0475  -23.0550  -48.1216 C.3       12 UNK         0.1400 
     71 CB         -4.0893  -21.9483  -47.9051 C.3       12 UNK        -0.1800 
     72 C          -3.5180  -24.3689  -47.4745 C.2       12 UNK         0.5000 
     73 O          -4.0235  -25.2394  -48.1816 O.2       12 UNK        -0.5000 
     74 N          -3.3168  -24.5061  -46.1567 N.am      13 UNK        -0.5000 
     75 CA         -3.6072  -25.7237  -45.4003 C.3       13 UNK         0.1400 
     76 CB         -3.4455  -25.4540  -43.8966 C.3       13 UNK        -0.1800 
     77 C          -2.7398  -26.9139  -45.8487 C.2       13 UNK         0.5000 
     78 O          -3.2789  -27.9901  -46.1099 O.2       13 UNK        -0.5000 
     79 N          -1.4239  -26.6896  -45.9775 N.am      14 UNK        -0.5000 
     80 CA         -0.4515  -27.6777  -46.4540 C.3       14 UNK         0.1400 
     81 CB          0.9690  -27.1181  -46.2843 C.3       14 UNK        -0.1800 
     82 C          -0.6937  -28.1133  -47.9124 C.2       14 UNK         0.5000 
     83 O          -0.5220  -29.2890  -48.2351 O.2       14 UNK        -0.5000 
     84 N          -1.1215  -27.1652  -48.7548 N.am      15 UNK        -0.5000 
     85 CA         -1.4747  -27.3668  -50.1599 C.3       15 UNK         0.1400 
     86 CB         -1.3066  -26.0312  -50.9010 C.3       15 UNK        -0.1800 
     87 C          -2.8915  -27.9447  -50.3699 C.2       15 UNK         0.5000 
     88 O          -3.2986  -28.1104  -51.5197 O.2       15 UNK        -0.5000 
     89 N          -3.6182  -28.2394  -49.2808 N.am      16 UNK        -0.5000 
     90 CA         -4.9605  -28.8286  -49.2411 C.3       16 UNK         0.1400 
     91 CB         -4.9467  -30.2686  -49.7962 C.3       16 UNK        -0.1800 
     92 C          -6.0270  -27.9289  -49.8995 C.2       16 UNK         0.5000 
     93 O          -6.7791  -28.3786  -50.7654 O.2       16 UNK        -0.5000 
     94 N          -6.0555  -26.6643  -49.4597 N.am      17 UNK        -0.5000 
     95 CA         -6.9685  -25.5789  -49.8352 C.3       17 UNK         0.1400 
     96 CB         -8.4509  -25.9883  -49.7097 C.3       17 UNK        -0.1800 
     97 C          -6.6479  -24.9130  -51.1869 C.2       17 UNK         0.5000 
     98 O          -7.3815  -24.0127  -51.6000 O.2       17 UNK        -0.5000 
     99 N          -5.5391  -25.3002  -51.8327 N.am      18 UNK        -0.5000 
    100 CA        -4.9811  -24.6191  -53.0010 C.3       18 UNK         0.1400 
    101 CB        -4.1228  -25.6060  -53.8081 C.3       18 UNK        -0.1800 
    102 C         -4.1965  -23.3747  -52.5411 C.2       18 UNK         0.5000 
    103 O         -2.9683  -23.3965  -52.4682 O.2       18 UNK        -0.5000 
    104 N         -4.9409  -22.3202  -52.1895 N.am      19 UNK        -0.5000 
    105 CA        -4.4599  -21.0955  -51.5452 C.3       19 UNK         0.1400 
    106 CB        -5.6486  -20.4403  -50.8204 C.3       19 UNK        -0.1800 
    107 C         -3.7582  -20.0899  -52.4829 C.2       19 UNK         0.5000 
    108 O         -3.5629  -18.9429  -52.0804 O.2       19 UNK        -0.5000 
    109 N         -3.4189  -20.5069  -53.7124 N.am      20 UNK        -0.5000 
    110 CA        -2.6888  -19.7454  -54.7374 C.3       20 UNK         0.1400 
    111 CB        -1.2256  -19.5307  -54.2957 C.3       20 UNK        -0.1800 
    112 C         -3.3830  -18.4266  -55.1482 C.2       20 UNK         0.5000 
    113 O         -2.7103  -17.4554  -55.4950 O.2       20 UNK        -0.5000 
    114 N         -4.7217  -18.4128  -55.0656 N.am      21 UNK        -0.5000 
    115 CA        -5.6577  -17.2989  -55.2754 C.3       21 UNK         0.1400 
    116 CB        -5.5266  -16.7010  -56.6897 C.3       21 UNK        -0.1800 
    117 C         -5.6098  -16.1975  -54.1940 C.2       21 UNK         0.5000 
    118 O         -6.6489  -15.5971  -53.9155 O.2       21 UNK        -0.5000 
    119 N         -4.4385  -15.9509  -53.5966 N.am      22 UNK        -0.5000 
    120 CA        -4.2369  -15.0092  -52.4850 C.3       22 UNK         0.1400 
    121 C         -4.8164  -15.4780  -51.1200 C.2       22 UNK         0.5000 
    122 N         -4.9576  -16.7724  -50.8664 N.am      22 UNK        -0.7600 
    123 O         -5.1567  -14.6481  -50.2814 O.2       22 UNK        -0.5000 
    124 C124       -2.7600  -14.5487  -52.3584 C.3       23 UNK        -0.0398 
    125 S125       -1.5179  -15.8891  -52.4124 S.3       23 UNK        -0.2404 
    126 C126       -1.3411  -16.3021  -50.6519 C.3       23 UNK        -0.0205 
    127 H127       -0.4864  -13.7183  -46.8755 H         1 UNK         0.0600 
    128 H128       -1.1537  -12.0914  -46.8426 H         1 UNK         0.0600 
    129 H129       -1.5557  -13.1789  -48.1787 H         1 UNK         0.0600 
    130 H130        1.3642  -14.1631  -48.1784 H         1 UNK         0.3000 
    131 H131        2.4625  -12.3302  -50.0915 H         1 UNK         0.0600 
    132 H132        3.0816  -14.5158  -50.5477 H         1 UNK         0.0800 
    133 H133        4.5321  -13.8659  -49.8686 H         1 UNK         0.0800 
    134 H134        4.1393  -17.7403  -48.9759 H         1 UNK         0.0800 
    135 H135        4.1267  -16.7394  -50.4027 H         1 UNK         0.0800 
    136 H136        1.1769  -15.6163  -49.9703 H         1 UNK         0.1150 
    137 H137       -1.2506  -19.0165  -50.8423 H         1 UNK         0.1150 
    138 H138        2.9047  -19.5344  -49.9136 H         1 UNK         0.1150 
    139 H139       -0.4072  -21.2440  -50.3518 H         1 UNK         0.0800 
    140 H140        0.7603  -21.1799  -51.6501 H         1 UNK         0.0800 
    141 H141        0.5802  -20.7179  -47.9401 H         1 UNK         0.0800 
    142 H142        2.1659  -21.1962  -47.4218 H         1 UNK         0.0800 
    143 H143        1.4041  -23.5189  -47.0460 H         1 UNK         0.0600 
    144 H144        0.5492  -21.3119  -45.5166 H         1 UNK         0.3000 
    145 H145       -0.9408  -23.0947  -42.7962 H         1 UNK         0.0600 
    146 H146        0.6913  -21.6668  -41.6043 H         1 UNK         0.0600 
    147 H147        1.5283  -22.9852  -42.4102 H         1 UNK         0.0600 
    148 H148        1.5732  -21.3665  -43.0996 H         1 UNK         0.0600 
    149 H149       -0.6802  -20.3093  -43.2853 H         1 UNK         0.3000 
    150 H150       -3.7855  -19.8878  -45.0710 H         1 UNK         0.0600 
    151 H151       -4.2496  -19.8774  -42.6123 H         1 UNK         0.0600 
    152 H152       -4.0648  -18.2494  -43.2462 H         1 UNK         0.0600 
    153 H153       -2.7561  -18.9913  -42.3284 H         1 UNK         0.0600 
    154 H154       -1.8050  -17.9819  -44.4049 H         1 UNK         0.3000 
    155 H155        0.1602  -18.3085  -47.4098 H         1 UNK         0.0600 
    156 H156       -1.8369  -16.8120  -47.8153 H         1 UNK         0.0600 
    157 H157       -0.3439  -15.9366  -47.5119 H         1 UNK         0.0600 
    158 H158       -1.5687  -16.0674  -46.2471 H         1 UNK         0.0600 
    159 H159        0.5448  -16.6372  -45.1506 H         1 UNK         0.3000 
    160 H160        2.4979  -18.9019  -43.1785 H         1 UNK         0.0600 
    161 H161        3.1396  -16.3547  -44.7583 H         1 UNK         0.0600 
    162 H162        4.0662  -17.8444  -44.7541 H         1 UNK         0.0600 
    163 H163        3.9709  -16.8752  -43.2915 H         1 UNK         0.0600 
    164 H164        1.4815  -16.2167  -42.8332 H         1 UNK         0.3000 
    165 H165       -1.4523  -17.1615  -41.0292 H         1 UNK         0.0600 
    166 H166       -0.3971  -15.7544  -39.2838 H         1 UNK         0.0600 
    167 H167        0.3890  -17.3235  -39.3482 H         1 UNK         0.0600 
    168 H168        1.1791  -15.9206  -40.0581 H         1 UNK         0.0600 
    169 H169       -0.2620  -14.6248  -41.6071 H         1 UNK         0.3000 
    170 H170       -1.7414  -14.1142  -44.7947 H         1 UNK         0.0600 
    171 H171       -3.6068  -13.6033  -43.2130 H         1 UNK         0.0600 
    172 H172       -2.4666  -12.8681  -42.0917 H         1 UNK         0.0600 
    173 H173       -2.7406  -12.1476  -43.6781 H         1 UNK         0.0600 
    174 H174       -0.2863  -12.2973  -43.2413 H         1 UNK         0.3000 
    175 H175        2.0912  -12.3542  -42.8916 H         1 UNK         0.0600 
    176 H176        3.5367  -13.8830  -45.1109 H         1 UNK         0.0600 
    177 H177        4.2979  -12.7081  -44.0403 H         1 UNK         0.0600 
    178 H178        3.6134  -14.1871  -43.3837 H         1 UNK         0.0600 
    179 H179        2.5570  -11.6022  -45.6762 H         1 UNK         0.3000 
    180 H180        0.1919   -9.5541  -46.1842 H         1 UNK         0.0600 
    181 H181        1.9734   -7.7430  -44.4797 H         1 UNK         0.0600 
    182 H182        0.2210   -7.8362  -44.4499 H         1 UNK         0.0600 
    183 H183        1.0330   -7.2077  -45.8729 H         1 UNK         0.0600 
    184 H184        1.8000   -9.8570  -47.6164 H         1 UNK         0.3000 
    185 H185        4.2327   -8.7136  -48.5556 H         1 UNK         0.0600 
    186 H186        6.2556   -8.9695  -47.1757 H         1 UNK         0.0600 
    187 H187        5.9415  -10.6833  -46.9441 H         1 UNK         0.0600 
    188 H188        6.3472  -10.0647  -48.5443 H         1 UNK         0.0600 
    189 H189        3.4068  -10.4646  -49.6304 H         1 UNK         0.3000 
    190 H190       -1.7126  -21.6829  -47.2090 H         1 UNK         0.3000 
    191 H191       -2.9520  -23.2309  -49.1951 H         1 UNK         0.0600 
    192 H192       -4.2232  -21.7224  -46.8472 H         1 UNK         0.0600 
    193 H193       -5.0606  -22.2457  -48.3015 H         1 UNK         0.0600 
    194 H194       -3.7977  -21.0247  -48.4046 H         1 UNK         0.0600 
    195 H195       -2.9459  -23.7185  -45.6326 H         1 UNK         0.3000 
    196 H196       -4.6509  -25.9870  -45.5839 H         1 UNK         0.0600 
    197 H197       -3.6755  -26.3461  -43.3129 H         1 UNK         0.0600 
    198 H198       -4.1200  -24.6646  -43.5646 H         1 UNK         0.0600 
    199 H199       -2.4292  -25.1499  -43.6461 H         1 UNK         0.0600 
    200 H200       -1.0544  -25.7767  -45.7252 H         1 UNK         0.3000 
    201 H201       -0.5446  -28.5652  -45.8249 H         1 UNK         0.0600 
    202 H202        1.1782  -26.8852  -45.2400 H         1 UNK         0.0600 
    203 H203        1.1135  -26.2061  -46.8646 H         1 UNK         0.0600 
    204 H204        1.7168  -27.8405  -46.6134 H         1 UNK         0.0600 
    205 H205       -1.1613  -26.2049  -48.4206 H         1 UNK         0.3000 
    206 H206       -0.7707  -28.0799  -50.5932 H         1 UNK         0.0600 
    207 H207       -0.3174  -25.6055  -50.7319 H         1 UNK         0.0600 
    208 H208       -1.4123  -26.1623  -51.9771 H         1 UNK         0.0600 
    209 H209       -2.0463  -25.2973  -50.5785 H         1 UNK         0.0600 
    210 H210       -3.2117  -28.0327  -48.3768 H         1 UNK         0.3000 
    211 H211       -5.2293  -28.8925  -48.1856 H         1 UNK         0.0600 
    212 H212       -4.7231  -30.2935  -50.8631 H         1 UNK         0.0600 
    213 H213       -5.9156  -30.7489  -49.6555 H         1 UNK         0.0600 
    214 H214       -4.2043  -30.8805  -49.2837 H         1 UNK         0.0600 
    215 H215       -5.3158  -26.3705  -48.8229 H         1 UNK         0.3000 
    216 H216       -6.7941  -24.8013  -49.0901 H         1 UNK         0.0600 
    217 H217       -9.1026  -25.1179  -49.7929 H         1 UNK         0.0600 
    218 H218       -8.6535  -26.4518  -48.7442 H         1 UNK         0.0600 
    219 H219       -8.7493  -26.6878  -50.4906 H         1 UNK         0.0600 
    220 H220       -4.9812  -26.0394  -51.4286 H         1 UNK         0.3000 
    221 H221       -5.7928  -24.2868  -53.6519 H         1 UNK         0.0600 
    222 H222       -3.2991  -26.0037  -53.2190 H         1 UNK         0.0600 
    223 H223       -4.7181  -26.4502  -54.1565 H         1 UNK         0.0600 
    224 H224       -3.6948  -25.1229  -54.6872 H         1 UNK         0.0600 
    225 H225       -5.9468  -22.4209  -52.2525 H         1 UNK         0.3000 
    226 H226       -3.7203  -21.3802  -50.7955 H         1 UNK         0.0600 
    227 H227       -6.1677  -21.1534  -50.1801 H         1 UNK         0.0600 
    228 H228       -5.3170  -19.6209  -50.1820 H         1 UNK         0.0600 
    229 H229       -6.3755  -20.0363  -51.5261 H         1 UNK         0.0600 
    230 H230       -3.6230  -21.4686  -53.9433 H         1 UNK         0.3000 
    231 H231       -2.6751  -20.3699  -55.6315 H         1 UNK         0.0600 
    232 H232       -0.7557  -20.4722  -54.0115 H         1 UNK         0.0600 
    233 H233       -1.1570  -18.8527  -53.4446 H         1 UNK         0.0600 
    234 H234       -0.6300  -19.1017  -55.1022 H         1 UNK         0.0600 
    235 H235       -5.1536  -19.2653  -54.7387 H         1 UNK         0.3000 
    236 H236       -6.6508  -17.7456  -55.2069 H         1 UNK         0.0600 
    237 H237       -6.3208  -15.9777  -56.8784 H         1 UNK         0.0600 
    238 H238       -4.5786  -16.1811  -56.8287 H         1 UNK         0.0600 
    239 H239       -5.6027  -17.4739  -57.4544 H         1 UNK         0.0600 
    240 H240       -3.6233  -16.4743  -53.8940 H         1 UNK         0.3000 
    241 H241       -4.8079  -14.1130  -52.7361 H         1 UNK         0.0600 
    242 H242       -5.3488  -17.0580  -49.9845 H         1 UNK         0.3800 
    243 H243       -4.5673  -17.4708  -51.4944 H         1 UNK         0.3800 
    244 H244       -2.6094  -13.9386  -51.4659 H         1 UNK         0.0800 
    245 H245       -2.5336  -13.8860  -53.1945 H         1 UNK         0.0800 
    246 H246       -2.2502  -16.7886  -50.2984 H         1 UNK         0.0800 
    247 H247       -1.2263  -15.3885  -50.0668 H         1 UNK         0.0800 
@<TRIPOS>BOND
     1    1    2 1    
     2    1  127 1    
     3    1  128 1    
     4    1  129 1    
     5    2    3 2    
     6    2    4 am   BACKBONE|DICT|INTERRES
     7    4    5 1    
     8    4  130 1    
     9    5    6 1    
    10    5   65 1    
    11    5  131 1    
    12    6    7 1    
    13    6  132 1    
    14    6  133 1    
    15    7    8 1    
    16    8    9 1    
    17    8  134 1    
    18    8  135 1    
    19    9   10 ar   
    20    9   14 ar   
    21   10   11 ar   
    22   10  136 1    
    23   11   12 ar   
    24   11  126 1    
    25   12   13 ar   
    26   12  137 1    
    27   13   14 ar   
    28   13   15 1    
    29   14  138 1    
    30   15   16 1    
    31   15  139 1    
    32   15  140 1    
    33   16   17 1    
    34   17   18 1    
    35   17  141 1    
    36   17  142 1    
    37   18   19 1    
    38   18   67 1    
    39   18  143 1    
    40   19   20 am   BACKBONE|DICT|INTERRES
    41   19  144 1    
    42   20   21 2    
    43   20   22 1    
    44   22   23 1    
    45   22   24 1    
    46   22  145 1    
    47   23  146 1    
    48   23  147 1    
    49   23  148 1    
    50   24   25 am   BACKBONE|DICT|INTERRES
    51   24  149 1    
    52   25   26 2    
    53   25   27 1    
    54   27   28 1    
    55   27   29 1    
    56   27  150 1    
    57   28  151 1    
    58   28  152 1    
    59   28  153 1    
    60   29   30 am   BACKBONE|DICT|INTERRES
    61   29  154 1    
    62   30   31 2    
    63   30   32 1    
    64   32   33 1    
    65   32   34 1    
    66   32  155 1    
    67   33  156 1    
    68   33  157 1    
    69   33  158 1    
    70   34   35 am   BACKBONE|DICT|INTERRES
    71   34  159 1    
    72   35   36 2    
    73   35   37 1    
    74   37   38 1    
    75   37   39 1    
    76   37  160 1    
    77   38  161 1    
    78   38  162 1    
    79   38  163 1    
    80   39   40 am   BACKBONE|DICT|INTERRES
    81   39  164 1    
    82   40   41 2    
    83   40   42 1    
    84   42   43 1    
    85   42   44 1    
    86   42  165 1    
    87   43  166 1    
    88   43  167 1    
    89   43  168 1    
    90   44   45 am   BACKBONE|DICT|INTERRES
    91   44  169 1    
    92   45   46 2    
    93   45   47 1    
    94   47   48 1    
    95   47   49 1    
    96   47  170 1    
    97   48  171 1    
    98   48  172 1    
    99   48  173 1    
   100   49   50 am   BACKBONE|DICT|INTERRES
   101   49  174 1    
   102   50   51 2    
   103   50   52 1    
   104   52   53 1    
   105   52   54 1    
   106   52  175 1    
   107   53  176 1    
   108   53  177 1    
   109   53  178 1    
   110   54   55 am   BACKBONE|DICT|INTERRES
   111   54  179 1    
   112   55   56 2    
   113   55   57 1    
   114   57   58 1    
   115   57   59 1    
   116   57  180 1    
   117   58  181 1    
   118   58  182 1    
   119   58  183 1    
   120   59   60 am   BACKBONE|DICT|INTERRES
   121   59  184 1    
   122   60   61 2    
   123   60   62 1    
   124   62   63 1    
   125   62   64 1    
   126   62  185 1    
   127   63  186 1    
   128   63  187 1    
   129   63  188 1    
   130   64   65 am   BACKBONE|DICT|INTERRES
   131   64  189 1    
   132   65   66 2    
   133   67   68 2    
   134   67   69 am   BACKBONE|DICT|INTERRES
   135   69   70 1    
   136   69  190 1    
   137   70   71 1    
   138   70   72 1    
   139   70  191 1    
   140   71  192 1    
   141   71  193 1    
   142   71  194 1    
   143   72   73 2    
   144   72   74 am   BACKBONE|DICT|INTERRES
   145   74   75 1    
   146   74  195 1    
   147   75   76 1    
   148   75   77 1    
   149   75  196 1    
   150   76  197 1    
   151   76  198 1    
   152   76  199 1    
   153   77   78 2    
   154   77   79 am   BACKBONE|DICT|INTERRES
   155   79   80 1    
   156   79  200 1    
   157   80   81 1    
   158   80   82 1    
   159   80  201 1    
   160   81  202 1    
   161   81  203 1    
   162   81  204 1    
   163   82   83 2    
   164   82   84 am   BACKBONE|DICT|INTERRES
   165   84   85 1    
   166   84  205 1    
   167   85   86 1    
   168   85   87 1    
   169   85  206 1    
   170   86  207 1    
   171   86  208 1    
   172   86  209 1    
   173   87   88 2    
   174   87   89 am   BACKBONE|DICT|INTERRES
   175   89   90 1    
   176   89  210 1    
   177   90   91 1    
   178   90   92 1    
   179   90  211 1    
   180   91  212 1    
   181   91  213 1    
   182   91  214 1    
   183   92   93 2    
   184   92   94 am   BACKBONE|DICT|INTERRES
   185   94   95 1    
   186   94  215 1    
   187   95   96 1    
   188   95   97 1    
   189   95  216 1    
   190   96  217 1    
   191   96  218 1    
   192   96  219 1    
   193   97   98 2    
   194   97   99 am   BACKBONE|DICT|INTERRES
   195   99  100 1    
   196   99  220 1    
   197  100  101 1    
   198  100  102 1    
   199  100  221 1    
   200  101  222 1    
   201  101  223 1    
   202  101  224 1    
   203  102  103 2    
   204  102  104 am   BACKBONE|DICT|INTERRES
   205  104  105 1    
   206  104  225 1    
   207  105  106 1    
   208  105  107 1    
   209  105  226 1    
   210  106  227 1    
   211  106  228 1    
   212  106  229 1    
   213  107  108 2    
   214  107  109 am   BACKBONE|DICT|INTERRES
   215  109  110 1    
   216  109  230 1    
   217  110  111 1    
   218  110  112 1    
   219  110  231 1    
   220  111  232 1    
   221  111  233 1    
   222  111  234 1    
   223  112  113 2    
   224  112  114 am   BACKBONE|DICT|INTERRES
   225  114  115 1    
   226  114  235 1    
   227  115  116 1    
   228  115  117 1    
   229  115  236 1    
   230  116  237 1    
   231  116  238 1    
   232  116  239 1    
   233  117  118 2    
   234  117  119 am   BACKBONE|DICT|INTERRES
   235  119  120 1    
   236  119  240 1    
   237  120  121 1    
   238  120  124 1    
   239  120  241 1    
   240  121  122 am   BACKBONE|DICT|INTERRES
   241  121  123 2    
   242  122  242 1    
   243  122  243 1    
   244  124  125 1    
   245  124  244 1    
   246  124  245 1    
   247  125  126 1    
   248  126  246 1    
   249  126  247 1    
@<TRIPOS>SUBSTRUCTURE
     1 UNK         1 GROUP             0       ****    0 ROOT    
