@<TRIPOS>MOLECULE
3R540
247   249    1
SMALL
USER_CHARGES


@<TRIPOS>ATOM
      1 CA          1.6201   -9.1345  -48.2467 C.3       0 UNK        -0.1800 
      2 C           1.3857  -10.1754  -47.1628 C.2       0 UNK         0.5000 
      3 O           2.2860  -10.4485  -46.3701 O.2       0 UNK        -0.5000 
      4 N           0.1748  -10.7443  -47.1055 N.am      1 UNK        -0.5000 
      5 CA         -0.2269  -11.8092  -46.1729 C.3       1 UNK         0.1400 
      6 C6         -1.6259  -12.3742  -46.5119 C.3       23 UNK        -0.0398 
      7 S7         -1.6644  -13.1375  -48.1695 S.3       23 UNK        -0.2404 
      8 C8         -1.4918  -14.8910  -47.7150 C.3       23 UNK        -0.0205 
      9 C9         -1.3691  -15.8080  -48.9226 C.ar      23 UNK        -0.0193 
     10 C10        -2.3680  -15.8295  -49.9028 C.ar      23 UNK        -0.1150 
     11 C11        -2.2677  -16.6926  -50.9971 C.ar      23 UNK        -0.0193 
     12 C12        -1.1739  -17.5554  -51.0911 C.ar      23 UNK        -0.1150 
     13 C13        -0.1836  -17.5646  -50.1084 C.ar      23 UNK        -0.0193 
     14 C14        -0.2738  -16.6719  -49.0369 C.ar      23 UNK        -0.1150 
     15 C15         0.9665  -18.5577  -50.2080 C.3       23 UNK        -0.0205 
     16 S16         1.0080  -19.7692  -48.8421 S.3       23 UNK        -0.2404 
     17 C17        -0.7539  -20.1179  -48.4989 C.3       23 UNK        -0.0398 
     18 CA         -0.9747  -21.4689  -47.7755 C.3       11 UNK         0.1400 
     19 N          -0.2218  -21.5835  -46.5175 N.am      11 UNK        -0.5000 
     20 C          -0.0903  -22.7213  -45.8193 C.2       10 UNK         0.5000 
     21 O          -0.5594  -23.7987  -46.1842 O.2       10 UNK        -0.5000 
     22 CA          0.6330  -22.6411  -44.4617 C.3       10 UNK         0.1400 
     23 CB          2.1584  -22.6762  -44.6383 C.3       10 UNK        -0.1800 
     24 N           0.2420  -21.4646  -43.6840 N.am      10 UNK        -0.5000 
     25 C          -0.9898  -21.2579  -43.1975 C.2       9 UNK         0.5000 
     26 O          -1.9099  -22.0638  -43.3168 O.2       9 UNK        -0.5000 
     27 CA         -1.2617  -19.9128  -42.5022 C.3       9 UNK         0.1400 
     28 CB         -0.8643  -19.9646  -41.0196 C.3       9 UNK        -0.1800 
     29 N          -0.5838  -18.7983  -43.1613 N.am      9 UNK        -0.5000 
     30 C          -0.8910  -18.3423  -44.3842 C.2       8 UNK         0.5000 
     31 O          -1.8048  -18.7925  -45.0767 O.2       8 UNK        -0.5000 
     32 CA          0.0138  -17.2271  -44.9411 C.3       8 UNK         0.1400 
     33 CB         -0.4204  -15.8596  -44.3905 C.3       8 UNK        -0.1800 
     34 N           1.4333  -17.4385  -44.6452 N.am      8 UNK        -0.5000 
     35 C           2.1369  -18.5163  -45.0232 C.2       7 UNK         0.5000 
     36 O           1.6666  -19.4349  -45.6906 O.2       7 UNK        -0.5000 
     37 CA          3.5792  -18.6294  -44.4997 C.3       7 UNK         0.1400 
     38 CB          4.5352  -17.7325  -45.2983 C.3       7 UNK        -0.1800 
     39 N           3.6769  -18.3117  -43.0751 N.am      7 UNK        -0.5000 
     40 C           3.0871  -19.0002  -42.0897 C.2       6 UNK         0.5000 
     41 O           2.4306  -20.0226  -42.2842 O.2       6 UNK        -0.5000 
     42 CA          3.1931  -18.4399  -40.6558 C.3       6 UNK         0.1400 
     43 CB          4.4659  -18.9426  -39.9485 C.3       6 UNK        -0.1800 
     44 N           3.0529  -16.9776  -40.5714 N.am      6 UNK        -0.5000 
     45 C           3.8909  -16.0323  -41.0168 C.2       5 UNK         0.5000 
     46 O           4.9959  -16.2659  -41.5132 O.2       5 UNK        -0.5000 
     47 CA          3.3836  -14.5805  -40.9335 C.3       5 UNK         0.1400 
     48 CB          3.9234  -13.8869  -39.6743 C.3       5 UNK        -0.1800 
     49 N           3.7711  -13.8023  -42.1095 N.am      5 UNK        -0.5000 
     50 C           3.4456  -14.0845  -43.3774 C.2       4 UNK         0.5000 
     51 O           2.7053  -15.0186  -43.6942 O.2       4 UNK        -0.5000 
     52 CA          4.0614  -13.1718  -44.4609 C.3       4 UNK         0.1400 
     53 CB          3.6301  -13.5687  -45.8844 C.3       4 UNK        -0.1800 
     54 N           3.7438  -11.7576  -44.2542 N.am      4 UNK        -0.5000 
     55 C           4.2950  -10.9450  -43.3421 C.2       3 UNK         0.5000 
     56 O           5.1582  -11.3057  -42.5405 O.2       3 UNK        -0.5000 
     57 CA          3.7802   -9.4968  -43.3026 C.3       3 UNK         0.1400 
     58 CB          4.5163   -8.6304  -44.3366 C.3       3 UNK        -0.1800 
     59 N           2.3408   -9.4369  -43.5558 N.am      3 UNK        -0.5000 
     60 C           1.3988   -9.5272  -42.6063 C.2       2 UNK         0.5000 
     61 O           1.6475   -9.6168  -41.4034 O.2       2 UNK        -0.5000 
     62 CA         -0.0714   -9.5133  -43.0723 C.3       2 UNK         0.1400 
     63 CB         -0.6227   -8.0793  -43.0685 C.3       2 UNK        -0.1800 
     64 N          -0.2539  -10.0906  -44.4048 N.am      2 UNK        -0.5000 
     65 C          -0.1488  -11.3972  -44.6859 C.2       1 UNK         0.5000 
     66 O           0.0298  -12.2632  -43.8301 O.2       1 UNK        -0.5000 
     67 C          -2.4830  -21.7296  -47.5622 C.2       11 UNK         0.5000 
     68 O          -3.1117  -22.3890  -48.3927 O.2       11 UNK        -0.5000 
     69 N          -3.0289  -21.2456  -46.4359 N.am      12 UNK        -0.5000 
     70 CA         -4.4046  -21.5035  -46.0098 C.3       12 UNK         0.1400 
     71 CB         -4.7740  -20.5713  -44.8466 C.3       12 UNK        -0.1800 
     72 C          -4.6385  -22.9795  -45.6357 C.2       12 UNK         0.5000 
     73 O          -5.6414  -23.5545  -46.0569 O.2       12 UNK        -0.5000 
     74 N          -3.6962  -23.5842  -44.8971 N.am      13 UNK        -0.5000 
     75 CA         -3.7047  -25.0009  -44.5144 C.3       13 UNK         0.1400 
     76 CB         -2.5792  -25.2703  -43.5048 C.3       13 UNK        -0.1800 
     77 C          -3.5935  -25.9570  -45.7176 C.2       13 UNK         0.5000 
     78 O          -4.1833  -27.0374  -45.6917 O.2       13 UNK        -0.5000 
     79 N          -2.8866  -25.5211  -46.7693 N.am      14 UNK        -0.5000 
     80 CA         -2.8083  -26.1821  -48.0745 C.3       14 UNK         0.1400 
     81 CB         -1.5931  -25.6290  -48.8372 C.3       14 UNK        -0.1800 
     82 C          -4.0971  -26.0443  -48.9173 C.2       14 UNK         0.5000 
     83 O          -4.1698  -26.6289  -49.9974 O.2       14 UNK        -0.5000 
     84 N          -5.0849  -25.2867  -48.4187 N.am      15 UNK        -0.5000 
     85 CA         -6.3890  -25.0053  -49.0190 C.3       15 UNK         0.1400 
     86 CB         -7.2230  -26.2905  -49.2080 C.3       15 UNK        -0.1800 
     87 C          -6.3066  -24.1049  -50.2666 C.2       15 UNK         0.5000 
     88 O          -7.1433  -24.2201  -51.1651 O.2       15 UNK        -0.5000 
     89 N          -5.3356  -23.1765  -50.2628 N.am      16 UNK        -0.5000 
     90 CA         -5.2092  -22.0307  -51.1655 C.3       16 UNK         0.1400 
     91 CB         -6.3037  -20.9959  -50.8132 C.3       16 UNK        -0.1800 
     92 C          -5.1903  -22.4342  -52.6549 C.2       16 UNK         0.5000 
     93 O          -4.1997  -22.9961  -53.1281 O.2       16 UNK        -0.5000 
     94 N          -6.2896  -22.1566  -53.3672 N.am      17 UNK        -0.5000 
     95 CA         -6.4946  -22.4710  -54.7799 C.3       17 UNK         0.1400 
     96 CB         -7.8048  -21.8238  -55.2504 C.3       17 UNK        -0.1800 
     97 C          -6.4832  -23.9779  -55.1008 C.2       17 UNK         0.5000 
     98 O          -6.1690  -24.3372  -56.2350 O.2       17 UNK        -0.5000 
     99 N          -6.7662  -24.8387  -54.1106 N.am      18 UNK        -0.5000 
    100 CA        -6.6856  -26.2974  -54.2467 C.3       18 UNK         0.1400 
    101 CB        -7.3328  -26.9624  -53.0258 C.3       18 UNK        -0.1800 
    102 C         -5.2406  -26.8051  -54.4301 C.2       18 UNK         0.5000 
    103 O         -5.0353  -27.8198  -55.0966 O.2       18 UNK        -0.5000 
    104 N         -4.2695  -26.0721  -53.8690 N.am      19 UNK        -0.5000 
    105 CA        -2.8334  -26.2932  -54.0525 C.3       19 UNK         0.1400 
    106 CB        -2.1211  -26.0016  -52.7217 C.3       19 UNK        -0.1800 
    107 C         -2.2517  -25.4188  -55.1814 C.2       19 UNK         0.5000 
    108 O         -1.0453  -25.4733  -55.4226 O.2       19 UNK        -0.5000 
    109 N         -3.1056  -24.6082  -55.8268 N.am      20 UNK        -0.5000 
    110 CA        -2.7907  -23.5784  -56.8216 C.3       20 UNK         0.1400 
    111 CB        -2.2219  -24.2080  -58.1102 C.3       20 UNK        -0.1800 
    112 C         -1.9062  -22.4429  -56.2613 C.2       20 UNK         0.5000 
    113 O         -1.1891  -21.7926  -57.0237 O.2       20 UNK        -0.5000 
    114 N         -1.9753  -22.2127  -54.9409 N.am      21 UNK        -0.5000 
    115 CA        -1.2421  -21.1503  -54.2518 C.3       21 UNK         0.1400 
    116 CB        -1.1596  -21.4778  -52.7515 C.3       21 UNK        -0.1800 
    117 C         -1.8884  -19.7713  -54.4699 C.2       21 UNK         0.5000 
    118 O         -1.1802  -18.7641  -54.4640 O.2       21 UNK        -0.5000 
    119 N         -3.2121  -19.7594  -54.6634 N.am      22 UNK        -0.5000 
    120 CA        -4.0327  -18.5670  -54.9067 C.3       22 UNK         0.1400 
    121 C         -4.8076  -18.7014  -56.2441 C.2       22 UNK         0.5000 
    122 N         -5.2079  -17.5917  -56.8491 N.am      22 UNK        -0.7600 
    123 O         -5.0754  -19.7995  -56.7277 O.2       22 UNK        -0.5000 
    124 C124       -5.0116  -18.2757  -53.7347 C.3       23 UNK        -0.0398 
    125 S125       -4.2311  -18.2847  -52.0832 S.3       23 UNK        -0.2404 
    126 C126       -3.3291  -16.7069  -52.0849 C.3       23 UNK        -0.0205 
    127 H127        0.7330   -8.9827  -48.8619 H         1 UNK         0.0600 
    128 H128        1.8911   -8.1797  -47.7963 H         1 UNK         0.0600 
    129 H129        2.4361   -9.4499  -48.8966 H         1 UNK         0.0600 
    130 H130       -0.5223  -10.4851  -47.7893 H         1 UNK         0.3000 
    131 H131        0.4899  -12.6218  -46.2967 H         1 UNK         0.0600 
    132 H132       -1.9379  -13.1151  -45.7730 H         1 UNK         0.0800 
    133 H133       -2.3762  -11.5824  -46.4786 H         1 UNK         0.0800 
    134 H134       -2.3503  -15.2025  -47.1182 H         1 UNK         0.0800 
    135 H135       -0.6106  -14.9902  -47.0820 H         1 UNK         0.0800 
    136 H136       -3.2192  -15.1691  -49.8139 H         1 UNK         0.1150 
    137 H137       -1.1073  -18.2357  -51.9270 H         1 UNK         0.1150 
    138 H138        0.4975  -16.6767  -48.2797 H         1 UNK         0.1150 
    139 H139        1.9098  -18.0103  -50.2204 H         1 UNK         0.0800 
    140 H140        0.9221  -19.1033  -51.1513 H         1 UNK         0.0800 
    141 H141       -1.2981  -20.1096  -49.4454 H         1 UNK         0.0800 
    142 H142       -1.1532  -19.2958  -47.9018 H         1 UNK         0.0800 
    143 H143       -0.6097  -22.2565  -48.4384 H         1 UNK         0.0600 
    144 H144        0.2503  -20.7466  -46.1859 H         1 UNK         0.3000 
    145 H145        0.3483  -23.5229  -43.8844 H         1 UNK         0.0600 
    146 H146        2.6680  -22.6437  -43.6750 H         1 UNK         0.0600 
    147 H147        2.4684  -23.5932  -45.1406 H         1 UNK         0.0600 
    148 H148        2.5201  -21.8406  -45.2361 H         1 UNK         0.0600 
    149 H149        0.9620  -20.7725  -43.5075 H         1 UNK         0.3000 
    150 H150       -2.3364  -19.7258  -42.5533 H         1 UNK         0.0600 
    151 H151        0.1979  -20.1685  -40.8885 H         1 UNK         0.0600 
    152 H152       -1.4122  -20.7518  -40.5002 H         1 UNK         0.0600 
    153 H153       -1.0917  -19.0250  -40.5160 H         1 UNK         0.0600 
    154 H154        0.2092  -18.3977  -42.6845 H         1 UNK         0.3000 
    155 H155       -0.1026  -17.2211  -46.0256 H         1 UNK         0.0600 
    156 H156       -1.4691  -15.6600  -44.6139 H         1 UNK         0.0600 
    157 H157        0.1666  -15.0514  -44.8271 H         1 UNK         0.0600 
    158 H158       -0.2983  -15.8039  -43.3081 H         1 UNK         0.0600 
    159 H159        1.9081  -16.6932  -44.1408 H         1 UNK         0.3000 
    160 H160        3.8976  -19.6654  -44.6331 H         1 UNK         0.0600 
    161 H161        4.3169  -16.6768  -45.1449 H         1 UNK         0.0600 
    162 H162        4.4603  -17.9341  -46.3677 H         1 UNK         0.0600 
    163 H163        5.5710  -17.9042  -45.0055 H         1 UNK         0.0600 
    164 H164        4.2057  -17.4845  -42.8171 H         1 UNK         0.3000 
    165 H165        2.3414  -18.8431  -40.1056 H         1 UNK         0.0600 
    166 H166        4.5206  -18.5728  -38.9247 H         1 UNK         0.0600 
    167 H167        5.3743  -18.6350  -40.4666 H         1 UNK         0.0600 
    168 H168        4.4756  -20.0323  -39.9017 H         1 UNK         0.0600 
    169 H169        2.1689  -16.6680  -40.1917 H         1 UNK         0.3000 
    170 H170        2.2926  -14.5879  -40.8898 H         1 UNK         0.0600 
    171 H171        3.6297  -14.4268  -38.7732 H         1 UNK         0.0600 
    172 H172        5.0128  -13.8300  -39.6836 H         1 UNK         0.0600 
    173 H173        3.5354  -12.8717  -39.5861 H         1 UNK         0.0600 
    174 H174        4.3901  -13.0134  -41.9544 H         1 UNK         0.3000 
    175 H175        5.1449  -13.2915  -44.4008 H         1 UNK         0.0600 
    176 H176        2.5477  -13.5354  -45.9993 H         1 UNK         0.0600 
    177 H177        4.0663  -12.9040  -46.6304 H         1 UNK         0.0600 
    178 H178        3.9529  -14.5808  -46.1264 H         1 UNK         0.0600 
    179 H179        3.0716  -11.3563  -44.9018 H         1 UNK         0.3000 
    180 H180        3.9960   -9.0901  -42.3122 H         1 UNK         0.0600 
    181 H181        4.3538   -8.9857  -45.3547 H         1 UNK         0.0600 
    182 H182        5.5917   -8.6375  -44.1550 H         1 UNK         0.0600 
    183 H183        4.1852   -7.5930  -44.2873 H         1 UNK         0.0600 
    184 H184        2.0582   -9.4315  -44.5278 H         1 UNK         0.3000 
    185 H185       -0.6511  -10.1029  -42.3587 H         1 UNK         0.0600 
    186 H186       -1.6811   -8.0626  -43.3290 H         1 UNK         0.0600 
    187 H187       -0.5251   -7.6264  -42.0809 H         1 UNK         0.0600 
    188 H188       -0.0916   -7.4413  -43.7760 H         1 UNK         0.0600 
    189 H189       -0.4038   -9.4453  -45.1667 H         1 UNK         0.3000 
    190 H190       -2.4611  -20.6721  -45.8221 H         1 UNK         0.3000 
    191 H191       -5.0625  -21.2672  -46.8490 H         1 UNK         0.0600 
    192 H192       -5.8130  -20.7149  -44.5478 H         1 UNK         0.0600 
    193 H193       -4.6576  -19.5247  -45.1287 H         1 UNK         0.0600 
    194 H194       -4.1536  -20.7511  -43.9693 H         1 UNK         0.0600 
    195 H195       -2.9305  -23.0244  -44.5286 H         1 UNK         0.3000 
    196 H196       -4.6576  -25.2038  -44.0216 H         1 UNK         0.0600 
    197 H197       -1.5984  -25.0620  -43.9321 H         1 UNK         0.0600 
    198 H198       -2.6941  -24.6552  -42.6122 H         1 UNK         0.0600 
    199 H199       -2.5831  -26.3126  -43.1836 H         1 UNK         0.0600 
    200 H200       -2.3625  -24.6579  -46.6701 H         1 UNK         0.3000 
    201 H201       -2.6455  -27.2486  -47.9072 H         1 UNK         0.0600 
    202 H202       -1.7152  -24.5737  -49.0803 H         1 UNK         0.0600 
    203 H203       -1.4406  -26.1654  -49.7736 H         1 UNK         0.0600 
    204 H204       -0.6784  -25.7350  -48.2537 H         1 UNK         0.0600 
    205 H205       -4.9302  -24.8338  -47.5254 H         1 UNK         0.3000 
    206 H206       -6.9224  -24.4018  -48.2839 H         1 UNK         0.0600 
    207 H207       -7.3749  -26.7960  -48.2544 H         1 UNK         0.0600 
    208 H208       -8.2106  -26.0665  -49.6129 H         1 UNK         0.0600 
    209 H209       -6.7457  -26.9998  -49.8815 H         1 UNK         0.0600 
    210 H210       -4.6605  -23.1905  -49.5048 H         1 UNK         0.3000 
    211 H211       -4.2408  -21.5719  -50.9617 H         1 UNK         0.0600 
    212 H212       -6.2929  -20.1452  -51.4923 H         1 UNK         0.0600 
    213 H213       -6.1501  -20.6023  -49.8082 H         1 UNK         0.0600 
    214 H214       -7.3062  -21.4235  -50.8467 H         1 UNK         0.0600 
    215 H215       -7.0711  -21.7374  -52.8846 H         1 UNK         0.3000 
    216 H216       -5.6721  -22.0214  -55.3386 H         1 UNK         0.0600 
    217 H217       -8.6645  -22.2105  -54.7019 H         1 UNK         0.0600 
    218 H218       -7.9763  -22.0153  -56.3105 H         1 UNK         0.0600 
    219 H219       -7.7782  -20.7417  -55.1195 H         1 UNK         0.0600 
    220 H220       -6.9929  -24.4788  -53.1879 H         1 UNK         0.3000 
    221 H221       -7.2558  -26.5852  -55.1325 H         1 UNK         0.0600 
    222 H222       -6.7574  -26.7628  -52.1234 H         1 UNK         0.0600 
    223 H223       -7.3816  -28.0448  -53.1501 H         1 UNK         0.0600 
    224 H224       -8.3496  -26.6034  -52.8659 H         1 UNK         0.0600 
    225 H225       -4.5247  -25.2411  -53.3497 H         1 UNK         0.3000 
    226 H226       -2.6425  -27.3347  -54.3186 H         1 UNK         0.0600 
    227 H227       -2.3235  -24.9906  -52.3652 H         1 UNK         0.0600 
    228 H228       -2.4439  -26.7019  -51.9531 H         1 UNK         0.0600 
    229 H229       -1.0398  -26.1088  -52.8147 H         1 UNK         0.0600 
    230 H230       -4.0838  -24.6743  -55.5789 H         1 UNK         0.3000 
    231 H231       -3.7417  -23.1109  -57.0807 H         1 UNK         0.0600 
    232 H232       -2.8684  -25.0050  -58.4775 H         1 UNK         0.0600 
    233 H233       -1.2273  -24.6264  -57.9541 H         1 UNK         0.0600 
    234 H234       -2.1415  -23.4658  -58.9053 H         1 UNK         0.0600 
    235 H235       -2.6122  -22.7637  -54.3745 H         1 UNK         0.3000 
    236 H236       -0.2247  -21.1134  -54.6471 H         1 UNK         0.0600 
    237 H237       -0.7215  -22.4619  -52.5838 H         1 UNK         0.0600 
    238 H238       -0.5374  -20.7514  -52.2288 H         1 UNK         0.0600 
    239 H239       -2.1411  -21.4625  -52.2784 H         1 UNK         0.0600 
    240 H240       -3.6980  -20.6414  -54.7229 H         1 UNK         0.3000 
    241 H241       -3.3776  -17.7024  -55.0227 H         1 UNK         0.0600 
    242 H242       -5.7208  -17.6679  -57.7139 H         1 UNK         0.3800 
    243 H243       -5.0043  -16.6767  -56.4771 H         1 UNK         0.3800 
    244 H244       -5.8065  -19.0234  -53.7171 H         1 UNK         0.0800 
    245 H245       -5.5062  -17.3139  -53.8792 H         1 UNK         0.0800 
    246 H246       -4.0353  -15.8849  -51.9589 H         1 UNK         0.0800 
    247 H247       -2.8391  -16.5567  -53.0473 H         1 UNK         0.0800 
@<TRIPOS>BOND
     1    1    2 1    
     2    1  127 1    
     3    1  128 1    
     4    1  129 1    
     5    2    3 2    
     6    2    4 am   BACKBONE|DICT|INTERRES
     7    4    5 1    
     8    4  130 1    
     9    5    6 1    
    10    5   65 1    
    11    5  131 1    
    12    6    7 1    
    13    6  132 1    
    14    6  133 1    
    15    7    8 1    
    16    8    9 1    
    17    8  134 1    
    18    8  135 1    
    19    9   10 ar   
    20    9   14 ar   
    21   10   11 ar   
    22   10  136 1    
    23   11   12 ar   
    24   11  126 1    
    25   12   13 ar   
    26   12  137 1    
    27   13   14 ar   
    28   13   15 1    
    29   14  138 1    
    30   15   16 1    
    31   15  139 1    
    32   15  140 1    
    33   16   17 1    
    34   17   18 1    
    35   17  141 1    
    36   17  142 1    
    37   18   19 1    
    38   18   67 1    
    39   18  143 1    
    40   19   20 am   BACKBONE|DICT|INTERRES
    41   19  144 1    
    42   20   21 2    
    43   20   22 1    
    44   22   23 1    
    45   22   24 1    
    46   22  145 1    
    47   23  146 1    
    48   23  147 1    
    49   23  148 1    
    50   24   25 am   BACKBONE|DICT|INTERRES
    51   24  149 1    
    52   25   26 2    
    53   25   27 1    
    54   27   28 1    
    55   27   29 1    
    56   27  150 1    
    57   28  151 1    
    58   28  152 1    
    59   28  153 1    
    60   29   30 am   BACKBONE|DICT|INTERRES
    61   29  154 1    
    62   30   31 2    
    63   30   32 1    
    64   32   33 1    
    65   32   34 1    
    66   32  155 1    
    67   33  156 1    
    68   33  157 1    
    69   33  158 1    
    70   34   35 am   BACKBONE|DICT|INTERRES
    71   34  159 1    
    72   35   36 2    
    73   35   37 1    
    74   37   38 1    
    75   37   39 1    
    76   37  160 1    
    77   38  161 1    
    78   38  162 1    
    79   38  163 1    
    80   39   40 am   BACKBONE|DICT|INTERRES
    81   39  164 1    
    82   40   41 2    
    83   40   42 1    
    84   42   43 1    
    85   42   44 1    
    86   42  165 1    
    87   43  166 1    
    88   43  167 1    
    89   43  168 1    
    90   44   45 am   BACKBONE|DICT|INTERRES
    91   44  169 1    
    92   45   46 2    
    93   45   47 1    
    94   47   48 1    
    95   47   49 1    
    96   47  170 1    
    97   48  171 1    
    98   48  172 1    
    99   48  173 1    
   100   49   50 am   BACKBONE|DICT|INTERRES
   101   49  174 1    
   102   50   51 2    
   103   50   52 1    
   104   52   53 1    
   105   52   54 1    
   106   52  175 1    
   107   53  176 1    
   108   53  177 1    
   109   53  178 1    
   110   54   55 am   BACKBONE|DICT|INTERRES
   111   54  179 1    
   112   55   56 2    
   113   55   57 1    
   114   57   58 1    
   115   57   59 1    
   116   57  180 1    
   117   58  181 1    
   118   58  182 1    
   119   58  183 1    
   120   59   60 am   BACKBONE|DICT|INTERRES
   121   59  184 1    
   122   60   61 2    
   123   60   62 1    
   124   62   63 1    
   125   62   64 1    
   126   62  185 1    
   127   63  186 1    
   128   63  187 1    
   129   63  188 1    
   130   64   65 am   BACKBONE|DICT|INTERRES
   131   64  189 1    
   132   65   66 2    
   133   67   68 2    
   134   67   69 am   BACKBONE|DICT|INTERRES
   135   69   70 1    
   136   69  190 1    
   137   70   71 1    
   138   70   72 1    
   139   70  191 1    
   140   71  192 1    
   141   71  193 1    
   142   71  194 1    
   143   72   73 2    
   144   72   74 am   BACKBONE|DICT|INTERRES
   145   74   75 1    
   146   74  195 1    
   147   75   76 1    
   148   75   77 1    
   149   75  196 1    
   150   76  197 1    
   151   76  198 1    
   152   76  199 1    
   153   77   78 2    
   154   77   79 am   BACKBONE|DICT|INTERRES
   155   79   80 1    
   156   79  200 1    
   157   80   81 1    
   158   80   82 1    
   159   80  201 1    
   160   81  202 1    
   161   81  203 1    
   162   81  204 1    
   163   82   83 2    
   164   82   84 am   BACKBONE|DICT|INTERRES
   165   84   85 1    
   166   84  205 1    
   167   85   86 1    
   168   85   87 1    
   169   85  206 1    
   170   86  207 1    
   171   86  208 1    
   172   86  209 1    
   173   87   88 2    
   174   87   89 am   BACKBONE|DICT|INTERRES
   175   89   90 1    
   176   89  210 1    
   177   90   91 1    
   178   90   92 1    
   179   90  211 1    
   180   91  212 1    
   181   91  213 1    
   182   91  214 1    
   183   92   93 2    
   184   92   94 am   BACKBONE|DICT|INTERRES
   185   94   95 1    
   186   94  215 1    
   187   95   96 1    
   188   95   97 1    
   189   95  216 1    
   190   96  217 1    
   191   96  218 1    
   192   96  219 1    
   193   97   98 2    
   194   97   99 am   BACKBONE|DICT|INTERRES
   195   99  100 1    
   196   99  220 1    
   197  100  101 1    
   198  100  102 1    
   199  100  221 1    
   200  101  222 1    
   201  101  223 1    
   202  101  224 1    
   203  102  103 2    
   204  102  104 am   BACKBONE|DICT|INTERRES
   205  104  105 1    
   206  104  225 1    
   207  105  106 1    
   208  105  107 1    
   209  105  226 1    
   210  106  227 1    
   211  106  228 1    
   212  106  229 1    
   213  107  108 2    
   214  107  109 am   BACKBONE|DICT|INTERRES
   215  109  110 1    
   216  109  230 1    
   217  110  111 1    
   218  110  112 1    
   219  110  231 1    
   220  111  232 1    
   221  111  233 1    
   222  111  234 1    
   223  112  113 2    
   224  112  114 am   BACKBONE|DICT|INTERRES
   225  114  115 1    
   226  114  235 1    
   227  115  116 1    
   228  115  117 1    
   229  115  236 1    
   230  116  237 1    
   231  116  238 1    
   232  116  239 1    
   233  117  118 2    
   234  117  119 am   BACKBONE|DICT|INTERRES
   235  119  120 1    
   236  119  240 1    
   237  120  121 1    
   238  120  124 1    
   239  120  241 1    
   240  121  122 am   BACKBONE|DICT|INTERRES
   241  121  123 2    
   242  122  242 1    
   243  122  243 1    
   244  124  125 1    
   245  124  244 1    
   246  124  245 1    
   247  125  126 1    
   248  126  246 1    
   249  126  247 1    
@<TRIPOS>SUBSTRUCTURE
     1 UNK         1 GROUP             0       ****    0 ROOT    
