@<TRIPOS>MOLECULE
3R540
247   249    1
SMALL
USER_CHARGES


@<TRIPOS>ATOM
      1 CA         -0.6925   -9.5720  -45.5866 C.3       0 UNK        -0.1800 
      2 C          -0.4612  -10.2736  -46.9177 C.2       0 UNK         0.5000 
      3 O           0.3805   -9.8358  -47.7030 O.2       0 UNK        -0.5000 
      4 N          -1.2095  -11.3536  -47.1754 N.am      1 UNK        -0.5000 
      5 CA         -1.0658  -12.2132  -48.3553 C.3       1 UNK         0.1400 
      6 C6         -2.3205  -13.1063  -48.5465 C.3       23 UNK        -0.0398 
      7 S7         -2.7147  -13.3804  -50.3073 S.3       23 UNK        -0.2404 
      8 C8         -2.6739  -15.1925  -50.4486 C.3       23 UNK        -0.0205 
      9 C9         -3.8603  -15.8604  -49.7664 C.ar      23 UNK        -0.0193 
     10 C10        -5.1070  -15.8981  -50.3960 C.ar      23 UNK        -0.1150 
     11 C11        -6.1826  -16.5667  -49.8049 C.ar      23 UNK        -0.0193 
     12 C12        -6.0009  -17.2001  -48.5713 C.ar      23 UNK        -0.1150 
     13 C13        -4.7648  -17.1640  -47.9171 C.ar      23 UNK        -0.0193 
     14 C14        -3.7026  -16.4769  -48.5228 C.ar      23 UNK        -0.1150 
     15 C15        -4.6344  -17.8881  -46.5728 C.3       23 UNK        -0.0205 
     16 S16        -2.9387  -17.9847  -45.8995 S.3       23 UNK        -0.2404 
     17 C17        -3.0436  -19.3288  -44.6722 C.3       23 UNK        -0.0398 
     18 CA         -1.9548  -20.4129  -44.9154 C.3       11 UNK         0.1400 
     19 N          -1.6942  -21.2059  -43.7132 N.am      11 UNK        -0.5000 
     20 C          -2.4782  -22.1690  -43.2084 C.2       10 UNK         0.5000 
     21 O          -3.5818  -22.4633  -43.6702 O.2       10 UNK        -0.5000 
     22 CA         -1.9289  -22.9534  -42.0052 C.3       10 UNK         0.1400 
     23 CB         -1.0250  -24.0971  -42.4885 C.3       10 UNK        -0.1800 
     24 N          -1.1676  -22.1189  -41.0758 N.am      10 UNK        -0.5000 
     25 C          -1.7117  -21.3802  -40.0994 C.2       9 UNK         0.5000 
     26 O          -2.9232  -21.2766  -39.9061 O.2       9 UNK        -0.5000 
     27 CA         -0.7270  -20.6245  -39.1972 C.3       9 UNK         0.1400 
     28 CB          0.0758  -21.5980  -38.3111 C.3       9 UNK        -0.1800 
     29 N           0.1515  -19.8139  -40.0326 N.am      9 UNK        -0.5000 
     30 C           0.9688  -18.8368  -39.6363 C.2       8 UNK         0.5000 
     31 O           1.1547  -18.5451  -38.4533 O.2       8 UNK        -0.5000 
     32 CA          1.6725  -18.0382  -40.7595 C.3       8 UNK         0.1400 
     33 CB          2.6570  -16.9891  -40.2100 C.3       8 UNK        -0.1800 
     34 N           2.3786  -18.8519  -41.7566 N.am      8 UNK        -0.5000 
     35 C           1.8369  -19.6717  -42.6666 C.2       7 UNK         0.5000 
     36 O           0.6322  -19.9246  -42.7338 O.2       7 UNK        -0.5000 
     37 CA          2.8135  -20.2849  -43.6785 C.3       7 UNK         0.1400 
     38 CB          2.1396  -21.3100  -44.6118 C.3       7 UNK        -0.1800 
     39 N           3.3773  -19.2050  -44.4823 N.am      7 UNK        -0.5000 
     40 C           4.6785  -18.9199  -44.6005 C.2       6 UNK         0.5000 
     41 O           5.5696  -19.5311  -44.0094 O.2       6 UNK        -0.5000 
     42 CA          5.0550  -17.7618  -45.5428 C.3       6 UNK         0.1400 
     43 CB          5.0148  -18.2267  -47.0065 C.3       6 UNK        -0.1800 
     44 N           4.2163  -16.5714  -45.3864 N.am      6 UNK        -0.5000 
     45 C           4.2478  -15.7559  -44.3216 C.2       5 UNK         0.5000 
     46 O           4.9402  -15.9593  -43.3239 O.2       5 UNK        -0.5000 
     47 CA          3.3663  -14.4945  -44.3857 C.3       5 UNK         0.1400 
     48 CB          3.9966  -13.4221  -45.2881 C.3       5 UNK        -0.1800 
     49 N           2.0247  -14.8041  -44.8676 N.am      5 UNK        -0.5000 
     50 C           1.0673  -15.3659  -44.1189 C.2       4 UNK         0.5000 
     51 O           1.1669  -15.5462  -42.9071 O.2       4 UNK        -0.5000 
     52 CA         -0.2071  -15.8254  -44.8472 C.3       4 UNK         0.1400 
     53 CB         -1.2972  -14.7427  -44.7933 C.3       4 UNK        -0.1800 
     54 N           0.0591  -16.1945  -46.2387 N.am      4 UNK        -0.5000 
     55 C           0.6968  -17.3148  -46.6047 C.2       3 UNK         0.5000 
     56 O           1.1068  -18.1565  -45.8086 O.2       3 UNK        -0.5000 
     57 CA          0.9481  -17.5259  -48.1070 C.3       3 UNK         0.1400 
     58 CB         -0.1761  -18.3619  -48.7236 C.3       3 UNK        -0.1800 
     59 N           1.0985  -16.2772  -48.8545 N.am      3 UNK        -0.5000 
     60 C           2.1453  -15.4522  -48.7265 C.2       2 UNK         0.5000 
     61 O           3.0941  -15.6655  -47.9712 O.2       2 UNK        -0.5000 
     62 CA          2.0810  -14.1387  -49.5285 C.3       2 UNK         0.1400 
     63 CB          2.4003  -14.3908  -51.0100 C.3       2 UNK        -0.1800 
     64 N           0.7956  -13.4356  -49.4182 N.am      2 UNK        -0.5000 
     65 C           0.2333  -13.0465  -48.2651 C.2       1 UNK         0.5000 
     66 O           0.6935  -13.3377  -47.1587 O.2       1 UNK        -0.5000 
     67 C          -2.1931  -21.3353  -46.1370 C.2       11 UNK         0.5000 
     68 O          -1.3358  -22.1683  -46.4449 O.2       11 UNK        -0.5000 
     69 N          -3.3637  -21.2156  -46.7764 N.am      12 UNK        -0.5000 
     70 CA         -3.8121  -21.9975  -47.9273 C.3       12 UNK         0.1400 
     71 CB         -5.1752  -21.4622  -48.3898 C.3       12 UNK        -0.1800 
     72 C          -3.8794  -23.5171  -47.6911 C.2       12 UNK         0.5000 
     73 O          -3.7757  -24.2665  -48.6604 O.2       12 UNK        -0.5000 
     74 N          -4.0033  -23.9592  -46.4303 N.am      13 UNK        -0.5000 
     75 CA         -3.9719  -25.3789  -46.0670 C.3       13 UNK         0.1400 
     76 CB         -4.4557  -25.5549  -44.6199 C.3       13 UNK        -0.1800 
     77 C          -2.5862  -26.0281  -46.2671 C.2       13 UNK         0.5000 
     78 O          -2.5186  -27.2451  -46.4437 O.2       13 UNK        -0.5000 
     79 N          -1.5194  -25.2161  -46.2530 N.am      14 UNK        -0.5000 
     80 CA         -0.1522  -25.6398  -46.5508 C.3       14 UNK         0.1400 
     81 CB          0.8007  -25.0716  -45.4878 C.3       14 UNK        -0.1800 
     82 C           0.2759  -25.1800  -47.9532 C.2       14 UNK         0.5000 
     83 O           0.8652  -25.9661  -48.6955 O.2       14 UNK        -0.5000 
     84 N          -0.0083  -23.9132  -48.2842 N.am      15 UNK        -0.5000 
     85 CA          0.4457  -23.2574  -49.5107 C.3       15 UNK         0.1400 
     86 CB          0.3457  -21.7408  -49.3123 C.3       15 UNK        -0.1800 
     87 C          -0.3074  -23.6921  -50.7816 C.2       15 UNK         0.5000 
     88 O           0.2781  -23.6403  -51.8646 O.2       15 UNK        -0.5000 
     89 N          -1.5759  -24.1065  -50.6380 N.am      16 UNK        -0.5000 
     90 CA         -2.4766  -24.5776  -51.6946 C.3       16 UNK         0.1400 
     91 CB         -2.0618  -25.9958  -52.1455 C.3       16 UNK        -0.1800 
     92 C          -2.6079  -23.5629  -52.8504 C.2       16 UNK         0.5000 
     93 O          -3.2173  -22.5067  -52.6664 O.2       16 UNK        -0.5000 
     94 N          -2.0209  -23.8863  -54.0102 N.am      17 UNK        -0.5000 
     95 CA         -1.9983  -23.0501  -55.2090 C.3       17 UNK         0.1400 
     96 CB         -1.3656  -23.8405  -56.3634 C.3       17 UNK        -0.1800 
     97 C          -1.2694  -21.7074  -55.0132 C.2       17 UNK         0.5000 
     98 O          -1.6756  -20.7103  -55.6119 O.2       17 UNK        -0.5000 
     99 N          -0.2308  -21.6936  -54.1631 N.am      18 UNK        -0.5000 
    100 CA         0.5857  -20.5109  -53.8767 C.3       18 UNK         0.1400 
    101 CB         1.8872  -20.9358  -53.1807 C.3       18 UNK        -0.1800 
    102 C         -0.1548  -19.4328  -53.0626 C.2       18 UNK         0.5000 
    103 O          0.2444  -18.2689  -53.1028 O.2       18 UNK        -0.5000 
    104 N         -1.2495  -19.8080  -52.3871 N.am      19 UNK        -0.5000 
    105 CA        -2.1679  -18.8942  -51.7097 C.3       19 UNK         0.1400 
    106 CB        -2.8516  -19.6376  -50.5490 C.3       19 UNK        -0.1800 
    107 C         -3.1927  -18.3057  -52.6951 C.2       19 UNK         0.5000 
    108 O         -4.3883  -18.3862  -52.4366 O.2       19 UNK        -0.5000 
    109 N         -2.7247  -17.7660  -53.8305 N.am      20 UNK        -0.5000 
    110 CA        -3.5236  -17.1554  -54.9051 C.3       20 UNK         0.1400 
    111 CB        -4.0376  -15.7736  -54.4510 C.3       20 UNK        -0.1800 
    112 C         -4.6609  -18.0653  -55.4317 C.2       20 UNK         0.5000 
    113 O         -5.7419  -17.5764  -55.7645 O.2       20 UNK        -0.5000 
    114 N         -4.3922  -19.3789  -55.4664 N.am      21 UNK        -0.5000 
    115 CA        -5.3118  -20.4739  -55.7888 C.3       21 UNK         0.1400 
    116 CB        -5.8161  -20.3691  -57.2437 C.3       21 UNK        -0.1800 
    117 C         -6.4565  -20.6937  -54.7709 C.2       21 UNK         0.5000 
    118 O         -7.4104  -21.4030  -55.0973 O.2       21 UNK        -0.5000 
    119 N         -6.3527  -20.1326  -53.5565 N.am      22 UNK        -0.5000 
    120 CA        -7.3136  -20.3536  -52.4592 C.3       22 UNK         0.1400 
    121 C         -7.2225  -21.7634  -51.8055 C.2       22 UNK         0.5000 
    122 N         -6.1322  -22.5080  -51.9517 N.am      22 UNK        -0.7600 
    123 O         -8.1703  -22.1967  -51.1562 O.2       22 UNK        -0.5000 
    124 C124       -7.2445  -19.2539  -51.3663 C.3       23 UNK        -0.0398 
    125 S125       -7.5698  -17.5788  -52.0147 S.3       23 UNK        -0.2404 
    126 C126       -7.5461  -16.5856  -50.4863 C.3       23 UNK        -0.0205 
    127 H127       -1.4706  -10.0610  -44.9999 H         1 UNK         0.0600 
    128 H128       -0.9922   -8.5375  -45.7541 H         1 UNK         0.0600 
    129 H129        0.2258   -9.5717  -44.9993 H         1 UNK         0.0600 
    130 H130       -1.8627  -11.6733  -46.4755 H         1 UNK         0.3000 
    131 H131       -0.9738  -11.5463  -49.2157 H         1 UNK         0.0600 
    132 H132       -2.2308  -14.0510  -48.0089 H         1 UNK         0.0800 
    133 H133       -3.1995  -12.6183  -48.1224 H         1 UNK         0.0800 
    134 H134       -2.6789  -15.4553  -51.5073 H         1 UNK         0.0800 
    135 H135       -1.7326  -15.5693  -50.0487 H         1 UNK         0.0800 
    136 H136       -5.2382  -15.4197  -51.3558 H         1 UNK         0.1150 
    137 H137       -6.8295  -17.7223  -48.1137 H         1 UNK         0.1150 
    138 H138       -2.7395  -16.4248  -48.0412 H         1 UNK         0.1150 
    139 H139       -5.2669  -17.3847  -45.8405 H         1 UNK         0.0800 
    140 H140       -5.0344  -18.8949  -46.6867 H         1 UNK         0.0800 
    141 H141       -2.8798  -18.8675  -43.6972 H         1 UNK         0.0800 
    142 H142       -4.0468  -19.7548  -44.6248 H         1 UNK         0.0800 
    143 H143       -1.0148  -19.8969  -45.1178 H         1 UNK         0.0600 
    144 H144       -0.8073  -21.0011  -43.2622 H         1 UNK         0.3000 
    145 H145       -2.7791  -23.3940  -41.4797 H         1 UNK         0.0600 
    146 H146       -0.7139  -24.7308  -41.6579 H         1 UNK         0.0600 
    147 H147       -1.5402  -24.7352  -43.2067 H         1 UNK         0.0600 
    148 H148       -0.1259  -23.7163  -42.9736 H         1 UNK         0.0600 
    149 H149       -0.1622  -22.1507  -41.1589 H         1 UNK         0.3000 
    150 H150       -1.3053  -19.9577  -38.5545 H         1 UNK         0.0600 
    151 H151       -0.5906  -22.2590  -37.7556 H         1 UNK         0.0600 
    152 H152        0.6804  -21.0644  -37.5781 H         1 UNK         0.0600 
    153 H153        0.7453  -22.2248  -38.9009 H         1 UNK         0.0600 
    154 H154        0.0665  -19.9524  -41.0382 H         1 UNK         0.3000 
    155 H155        0.8764  -17.5046  -41.2799 H         1 UNK         0.0600 
    156 H156        2.1577  -16.2997  -39.5280 H         1 UNK         0.0600 
    157 H157        3.0834  -16.3890  -41.0144 H         1 UNK         0.0600 
    158 H158        3.4797  -17.4556  -39.6669 H         1 UNK         0.0600 
    159 H159        3.3788  -18.7185  -41.7906 H         1 UNK         0.3000 
    160 H160        3.5883  -20.8017  -43.1090 H         1 UNK         0.0600 
    161 H161        1.3483  -20.8575  -45.2109 H         1 UNK         0.0600 
    162 H162        1.6943  -22.1247  -44.0402 H         1 UNK         0.0600 
    163 H163        2.8624  -21.7516  -45.2976 H         1 UNK         0.0600 
    164 H164        2.6903  -18.6440  -44.9826 H         1 UNK         0.3000 
    165 H165        6.0836  -17.4744  -45.3147 H         1 UNK         0.0600 
    166 H166        4.0098  -18.5223  -47.3067 H         1 UNK         0.0600 
    167 H167        5.3478  -17.4377  -47.6811 H         1 UNK         0.0600 
    168 H168        5.6692  -19.0853  -47.1619 H         1 UNK         0.0600 
    169 H169        3.6585  -16.3021  -46.1910 H         1 UNK         0.3000 
    170 H170        3.2932  -14.0821  -43.3770 H         1 UNK         0.0600 
    171 H171        3.3953  -12.5127  -45.2955 H         1 UNK         0.0600 
    172 H172        4.9927  -13.1524  -44.9353 H         1 UNK         0.0600 
    173 H173        4.0945  -13.7635  -46.3189 H         1 UNK         0.0600 
    174 H174        1.8289  -14.6208  -45.8446 H         1 UNK         0.3000 
    175 H175       -0.5833  -16.7087  -44.3260 H         1 UNK         0.0600 
    176 H176       -2.1947  -15.0541  -45.3276 H         1 UNK         0.0600 
    177 H177       -1.5876  -14.5415  -43.7616 H         1 UNK         0.0600 
    178 H178       -0.9596  -13.8005  -45.2230 H         1 UNK         0.0600 
    179 H179       -0.1727  -15.5092  -46.9413 H         1 UNK         0.3000 
    180 H180        1.8742  -18.0952  -48.2030 H         1 UNK         0.0600 
    181 H181       -1.1034  -17.7986  -48.8060 H         1 UNK         0.0600 
    182 H182       -0.3868  -19.2415  -48.1146 H         1 UNK         0.0600 
    183 H183        0.1020  -18.7091  -49.7183 H         1 UNK         0.0600 
    184 H184        0.3658  -16.0312  -49.5011 H         1 UNK         0.3000 
    185 H185        2.8492  -13.4760  -49.1246 H         1 UNK         0.0600 
    186 H186        2.4718  -13.4539  -51.5628 H         1 UNK         0.0600 
    187 H187        3.3559  -14.9052  -51.1217 H         1 UNK         0.0600 
    188 H188        1.6383  -15.0062  -51.4901 H         1 UNK         0.0600 
    189 H189        0.3551  -13.1698  -50.2875 H         1 UNK         0.3000 
    190 H190       -4.0124  -20.5216  -46.4405 H         1 UNK         0.3000 
    191 H191       -3.0921  -21.8425  -48.7310 H         1 UNK         0.0600 
    192 H192       -5.5436  -22.0256  -49.2468 H         1 UNK         0.0600 
    193 H193       -5.1112  -20.4182  -48.6959 H         1 UNK         0.0600 
    194 H194       -5.9261  -21.5379  -47.6026 H         1 UNK         0.0600 
    195 H195       -4.0542  -23.2926  -45.6686 H         1 UNK         0.3000 
    196 H196       -4.6733  -25.9054  -46.7179 H         1 UNK         0.0600 
    197 H197       -4.5283  -26.6119  -44.3607 H         1 UNK         0.0600 
    198 H198       -5.4435  -25.1167  -44.4765 H         1 UNK         0.0600 
    199 H199       -3.7766  -25.0921  -43.9057 H         1 UNK         0.0600 
    200 H200       -1.6673  -24.2213  -46.1318 H         1 UNK         0.3000 
    201 H201       -0.0698  -26.7283  -46.5217 H         1 UNK         0.0600 
    202 H202        0.5934  -25.5034  -44.5093 H         1 UNK         0.0600 
    203 H203        0.7146  -23.9875  -45.4057 H         1 UNK         0.0600 
    204 H204        1.8396  -25.3024  -45.7273 H         1 UNK         0.0600 
    205 H205       -0.4733  -23.3169  -47.6041 H         1 UNK         0.3000 
    206 H206        1.4984  -23.5053  -49.6627 H         1 UNK         0.0600 
    207 H207        1.0202  -21.4025  -48.5253 H         1 UNK         0.0600 
    208 H208        0.6011  -21.1941  -50.2192 H         1 UNK         0.0600 
    209 H209       -0.6642  -21.4550  -49.0275 H         1 UNK         0.0600 
    210 H210       -1.9849  -24.1058  -49.7114 H         1 UNK         0.3000 
    211 H211       -3.4703  -24.6538  -51.2524 H         1 UNK         0.0600 
    212 H212       -1.0472  -26.0249  -52.5444 H         1 UNK         0.0600 
    213 H213       -2.7361  -26.3802  -52.9120 H         1 UNK         0.0600 
    214 H214       -2.1017  -26.6921  -51.3076 H         1 UNK         0.0600 
    215 H215       -1.5161  -24.7591  -54.0596 H         1 UNK         0.3000 
    216 H216       -3.0321  -22.8342  -55.4768 H         1 UNK         0.0600 
    217 H217       -0.3340  -24.1185  -56.1433 H         1 UNK         0.0600 
    218 H218       -1.9236  -24.7541  -56.5694 H         1 UNK         0.0600 
    219 H219       -1.3584  -23.2519  -57.2819 H         1 UNK         0.0600 
    220 H220        0.0005  -22.5396  -53.6526 H         1 UNK         0.3000 
    221 H221        0.8560  -20.0551  -54.8317 H         1 UNK         0.0600 
    222 H222        2.4549  -21.6306  -53.7997 H         1 UNK         0.0600 
    223 H223        2.5279  -20.0739  -52.9898 H         1 UNK         0.0600 
    224 H224        1.6990  -21.4205  -52.2245 H         1 UNK         0.0600 
    225 H225       -1.5532  -20.7701  -52.4599 H         1 UNK         0.3000 
    226 H226       -1.6116  -18.0540  -51.2918 H         1 UNK         0.0600 
    227 H227       -3.4367  -20.4876  -50.9009 H         1 UNK         0.0600 
    228 H228       -2.1237  -20.0035  -49.8321 H         1 UNK         0.0600 
    229 H229       -3.5284  -18.9784  -50.0052 H         1 UNK         0.0600 
    230 H230       -1.7212  -17.7656  -53.9667 H         1 UNK         0.3000 
    231 H231       -2.8443  -16.9998  -55.7442 H         1 UNK         0.0600 
    232 H232       -4.5104  -15.2397  -55.2759 H         1 UNK         0.0600 
    233 H233       -3.2239  -15.1478  -54.0847 H         1 UNK         0.0600 
    234 H234       -4.7766  -15.8652  -53.6544 H         1 UNK         0.0600 
    235 H235       -3.4541  -19.6699  -55.2130 H         1 UNK         0.3000 
    236 H236       -4.7097  -21.3783  -55.7304 H         1 UNK         0.0600 
    237 H237       -4.9881  -20.2330  -57.9395 H         1 UNK         0.0600 
    238 H238       -6.3413  -21.2768  -57.5429 H         1 UNK         0.0600 
    239 H239       -6.5075  -19.5367  -57.3755 H         1 UNK         0.0600 
    240 H240       -5.5694  -19.5219  -53.3362 H         1 UNK         0.3000 
    241 H241       -8.3128  -20.2974  -52.8956 H         1 UNK         0.0600 
    242 H242       -5.3115  -22.1664  -52.4351 H         1 UNK         0.3800 
    243 H243       -6.1106  -23.4193  -51.5253 H         1 UNK         0.3800 
    244 H244       -7.9773  -19.4506  -50.5817 H         1 UNK         0.0800 
    245 H245       -6.2685  -19.2637  -50.8788 H         1 UNK         0.0800 
    246 H246       -8.3143  -16.9581  -49.8070 H         1 UNK         0.0800 
    247 H247       -7.8302  -15.5616  -50.7322 H         1 UNK         0.0800 
@<TRIPOS>BOND
     1    1    2 1    
     2    1  127 1    
     3    1  128 1    
     4    1  129 1    
     5    2    3 2    
     6    2    4 am   BACKBONE|DICT|INTERRES
     7    4    5 1    
     8    4  130 1    
     9    5    6 1    
    10    5   65 1    
    11    5  131 1    
    12    6    7 1    
    13    6  132 1    
    14    6  133 1    
    15    7    8 1    
    16    8    9 1    
    17    8  134 1    
    18    8  135 1    
    19    9   10 ar   
    20    9   14 ar   
    21   10   11 ar   
    22   10  136 1    
    23   11   12 ar   
    24   11  126 1    
    25   12   13 ar   
    26   12  137 1    
    27   13   14 ar   
    28   13   15 1    
    29   14  138 1    
    30   15   16 1    
    31   15  139 1    
    32   15  140 1    
    33   16   17 1    
    34   17   18 1    
    35   17  141 1    
    36   17  142 1    
    37   18   19 1    
    38   18   67 1    
    39   18  143 1    
    40   19   20 am   BACKBONE|DICT|INTERRES
    41   19  144 1    
    42   20   21 2    
    43   20   22 1    
    44   22   23 1    
    45   22   24 1    
    46   22  145 1    
    47   23  146 1    
    48   23  147 1    
    49   23  148 1    
    50   24   25 am   BACKBONE|DICT|INTERRES
    51   24  149 1    
    52   25   26 2    
    53   25   27 1    
    54   27   28 1    
    55   27   29 1    
    56   27  150 1    
    57   28  151 1    
    58   28  152 1    
    59   28  153 1    
    60   29   30 am   BACKBONE|DICT|INTERRES
    61   29  154 1    
    62   30   31 2    
    63   30   32 1    
    64   32   33 1    
    65   32   34 1    
    66   32  155 1    
    67   33  156 1    
    68   33  157 1    
    69   33  158 1    
    70   34   35 am   BACKBONE|DICT|INTERRES
    71   34  159 1    
    72   35   36 2    
    73   35   37 1    
    74   37   38 1    
    75   37   39 1    
    76   37  160 1    
    77   38  161 1    
    78   38  162 1    
    79   38  163 1    
    80   39   40 am   BACKBONE|DICT|INTERRES
    81   39  164 1    
    82   40   41 2    
    83   40   42 1    
    84   42   43 1    
    85   42   44 1    
    86   42  165 1    
    87   43  166 1    
    88   43  167 1    
    89   43  168 1    
    90   44   45 am   BACKBONE|DICT|INTERRES
    91   44  169 1    
    92   45   46 2    
    93   45   47 1    
    94   47   48 1    
    95   47   49 1    
    96   47  170 1    
    97   48  171 1    
    98   48  172 1    
    99   48  173 1    
   100   49   50 am   BACKBONE|DICT|INTERRES
   101   49  174 1    
   102   50   51 2    
   103   50   52 1    
   104   52   53 1    
   105   52   54 1    
   106   52  175 1    
   107   53  176 1    
   108   53  177 1    
   109   53  178 1    
   110   54   55 am   BACKBONE|DICT|INTERRES
   111   54  179 1    
   112   55   56 2    
   113   55   57 1    
   114   57   58 1    
   115   57   59 1    
   116   57  180 1    
   117   58  181 1    
   118   58  182 1    
   119   58  183 1    
   120   59   60 am   BACKBONE|DICT|INTERRES
   121   59  184 1    
   122   60   61 2    
   123   60   62 1    
   124   62   63 1    
   125   62   64 1    
   126   62  185 1    
   127   63  186 1    
   128   63  187 1    
   129   63  188 1    
   130   64   65 am   BACKBONE|DICT|INTERRES
   131   64  189 1    
   132   65   66 2    
   133   67   68 2    
   134   67   69 am   BACKBONE|DICT|INTERRES
   135   69   70 1    
   136   69  190 1    
   137   70   71 1    
   138   70   72 1    
   139   70  191 1    
   140   71  192 1    
   141   71  193 1    
   142   71  194 1    
   143   72   73 2    
   144   72   74 am   BACKBONE|DICT|INTERRES
   145   74   75 1    
   146   74  195 1    
   147   75   76 1    
   148   75   77 1    
   149   75  196 1    
   150   76  197 1    
   151   76  198 1    
   152   76  199 1    
   153   77   78 2    
   154   77   79 am   BACKBONE|DICT|INTERRES
   155   79   80 1    
   156   79  200 1    
   157   80   81 1    
   158   80   82 1    
   159   80  201 1    
   160   81  202 1    
   161   81  203 1    
   162   81  204 1    
   163   82   83 2    
   164   82   84 am   BACKBONE|DICT|INTERRES
   165   84   85 1    
   166   84  205 1    
   167   85   86 1    
   168   85   87 1    
   169   85  206 1    
   170   86  207 1    
   171   86  208 1    
   172   86  209 1    
   173   87   88 2    
   174   87   89 am   BACKBONE|DICT|INTERRES
   175   89   90 1    
   176   89  210 1    
   177   90   91 1    
   178   90   92 1    
   179   90  211 1    
   180   91  212 1    
   181   91  213 1    
   182   91  214 1    
   183   92   93 2    
   184   92   94 am   BACKBONE|DICT|INTERRES
   185   94   95 1    
   186   94  215 1    
   187   95   96 1    
   188   95   97 1    
   189   95  216 1    
   190   96  217 1    
   191   96  218 1    
   192   96  219 1    
   193   97   98 2    
   194   97   99 am   BACKBONE|DICT|INTERRES
   195   99  100 1    
   196   99  220 1    
   197  100  101 1    
   198  100  102 1    
   199  100  221 1    
   200  101  222 1    
   201  101  223 1    
   202  101  224 1    
   203  102  103 2    
   204  102  104 am   BACKBONE|DICT|INTERRES
   205  104  105 1    
   206  104  225 1    
   207  105  106 1    
   208  105  107 1    
   209  105  226 1    
   210  106  227 1    
   211  106  228 1    
   212  106  229 1    
   213  107  108 2    
   214  107  109 am   BACKBONE|DICT|INTERRES
   215  109  110 1    
   216  109  230 1    
   217  110  111 1    
   218  110  112 1    
   219  110  231 1    
   220  111  232 1    
   221  111  233 1    
   222  111  234 1    
   223  112  113 2    
   224  112  114 am   BACKBONE|DICT|INTERRES
   225  114  115 1    
   226  114  235 1    
   227  115  116 1    
   228  115  117 1    
   229  115  236 1    
   230  116  237 1    
   231  116  238 1    
   232  116  239 1    
   233  117  118 2    
   234  117  119 am   BACKBONE|DICT|INTERRES
   235  119  120 1    
   236  119  240 1    
   237  120  121 1    
   238  120  124 1    
   239  120  241 1    
   240  121  122 am   BACKBONE|DICT|INTERRES
   241  121  123 2    
   242  122  242 1    
   243  122  243 1    
   244  124  125 1    
   245  124  244 1    
   246  124  245 1    
   247  125  126 1    
   248  126  246 1    
   249  126  247 1    
@<TRIPOS>SUBSTRUCTURE
     1 UNK         1 GROUP             0       ****    0 ROOT    
