@<TRIPOS>MOLECULE
3R540
247   249    1
SMALL
USER_CHARGES


@<TRIPOS>ATOM
      1 CA          1.2197  -14.9735  -50.6642 C.3       0 UNK        -0.1800 
      2 C           1.2018  -14.8716  -49.1466 C.2       0 UNK         0.5000 
      3 O           2.2315  -15.0730  -48.5029 O.2       0 UNK        -0.5000 
      4 N           0.0400  -14.5441  -48.5678 N.am      1 UNK        -0.5000 
      5 CA         -0.1959  -14.4361  -47.1222 C.3       1 UNK         0.1400 
      6 C6         -1.6632  -14.7665  -46.7422 C.3       23 UNK        -0.0398 
      7 S7         -2.0342  -16.5373  -46.9801 S.3       23 UNK        -0.2404 
      8 C8         -2.6997  -16.5624  -48.6743 C.3       23 UNK        -0.0205 
      9 C9         -2.3558  -17.8665  -49.3755 C.ar      23 UNK        -0.0193 
     10 C10        -3.3623  -18.7588  -49.7507 C.ar      23 UNK        -0.1150 
     11 C11        -3.0425  -19.9618  -50.3859 C.ar      23 UNK        -0.0193 
     12 C12        -1.7051  -20.2564  -50.6736 C.ar      23 UNK        -0.1150 
     13 C13        -0.6902  -19.3605  -50.3207 C.ar      23 UNK        -0.0193 
     14 C14        -1.0229  -18.1756  -49.6604 C.ar      23 UNK        -0.1150 
     15 C15         0.7605  -19.6381  -50.6914 C.3       23 UNK        -0.0205 
     16 S16         1.4268  -21.1401  -49.9133 S.3       23 UNK        -0.2404 
     17 C17         1.5523  -20.6538  -48.1565 C.3       23 UNK        -0.0398 
     18 CA          1.4368  -21.8865  -47.2220 C.3       11 UNK         0.1400 
     19 N           1.9084  -21.6055  -45.8678 N.am      11 UNK        -0.5000 
     20 C           2.6304  -22.4520  -45.1204 C.2       10 UNK         0.5000 
     21 O           2.9435  -23.5888  -45.4756 O.2       10 UNK        -0.5000 
     22 CA          3.1042  -21.9371  -43.7496 C.3       10 UNK         0.1400 
     23 CB          4.1790  -20.8484  -43.9033 C.3       10 UNK        -0.1800 
     24 N           1.9969  -21.4232  -42.9493 N.am      10 UNK        -0.5000 
     25 C           1.1442  -22.1913  -42.2580 C.2       9 UNK         0.5000 
     26 O           1.2396  -23.4160  -42.1753 O.2       9 UNK        -0.5000 
     27 CA         -0.0145  -21.4741  -41.5367 C.3       9 UNK         0.1400 
     28 CB          0.3809  -21.1289  -40.0931 C.3       9 UNK        -0.1800 
     29 N          -0.4559  -20.2582  -42.2225 N.am      9 UNK        -0.5000 
     30 C          -1.0260  -20.2429  -43.4351 C.2       8 UNK         0.5000 
     31 O          -1.2949  -21.2623  -44.0663 O.2       8 UNK        -0.5000 
     32 CA         -1.2862  -18.8648  -44.0716 C.3       8 UNK         0.1400 
     33 CB         -2.6096  -18.2721  -43.5692 C.3       8 UNK        -0.1800 
     34 N          -0.1923  -17.9238  -43.8243 N.am      8 UNK        -0.5000 
     35 C           1.0520  -18.0760  -44.2985 C.2       7 UNK         0.5000 
     36 O           1.3795  -18.9858  -45.0592 O.2       7 UNK        -0.5000 
     37 CA          2.1259  -17.0947  -43.7998 C.3       7 UNK         0.1400 
     38 CB          2.2283  -15.8620  -44.7034 C.3       7 UNK        -0.1800 
     39 N           1.8854  -16.6771  -42.4202 N.am      7 UNK        -0.5000 
     40 C           2.2024  -17.4195  -41.3514 C.2       6 UNK         0.5000 
     41 O           2.7724  -18.5085  -41.4208 O.2       6 UNK        -0.5000 
     42 CA          1.7789  -16.8670  -39.9785 C.3       6 UNK         0.1400 
     43 CB          2.8427  -15.9077  -39.4256 C.3       6 UNK        -0.1800 
     44 N           0.4819  -16.1882  -40.0217 N.am      6 UNK        -0.5000 
     45 C          -0.6835  -16.8221  -40.2159 C.2       5 UNK         0.5000 
     46 O          -0.7760  -18.0385  -40.3736 O.2       5 UNK        -0.5000 
     47 CA         -1.9578  -15.9597  -40.2833 C.3       5 UNK         0.1400 
     48 CB         -2.5616  -15.7879  -38.8818 C.3       5 UNK        -0.1800 
     49 N          -1.7621  -14.6406  -40.8863 N.am      5 UNK        -0.5000 
     50 C          -1.2871  -14.4030  -42.1163 C.2       4 UNK         0.5000 
     51 O          -0.9094  -15.2878  -42.8870 O.2       4 UNK        -0.5000 
     52 CA         -1.1819  -12.9311  -42.5617 C.3       4 UNK         0.1400 
     53 CB         -1.7377  -11.9104  -41.5427 C.3       4 UNK        -0.1800 
     54 N           0.1909  -12.5849  -42.9328 N.am      4 UNK        -0.5000 
     55 C           1.2891  -12.6771  -42.1655 C.2       3 UNK         0.5000 
     56 O           1.2730  -13.0858  -41.0030 O.2       3 UNK        -0.5000 
     57 CA          2.6324  -12.2679  -42.8063 C.3       3 UNK         0.1400 
     58 CB          3.7851  -13.1798  -42.3491 C.3       3 UNK        -0.1800 
     59 N           2.5634  -12.2734  -44.2708 N.am      3 UNK        -0.5000 
     60 C           2.3416  -11.1963  -45.0356 C.2       2 UNK         0.5000 
     61 O           2.2257  -10.0526  -44.5951 O.2       2 UNK        -0.5000 
     62 CA          2.1865  -11.4469  -46.5473 C.3       2 UNK         0.1400 
     63 CB          3.5515  -11.3778  -47.2481 C.3       2 UNK        -0.1800 
     64 N           1.5478  -12.7257  -46.8725 N.am      2 UNK        -0.5000 
     65 C           0.2844  -13.0678  -46.5836 C.2       1 UNK         0.5000 
     66 O          -0.4769  -12.3483  -45.9357 O.2       1 UNK        -0.5000 
     67 C           0.0255  -22.4996  -47.1816 C.2       11 UNK         0.5000 
     68 O          -0.0885  -23.7213  -47.2634 O.2       11 UNK        -0.5000 
     69 N          -1.0082  -21.6511  -47.0722 N.am      12 UNK        -0.5000 
     70 CA         -2.4336  -21.9478  -47.2814 C.3       12 UNK         0.1400 
     71 CB         -3.2588  -20.7201  -46.8627 C.3       12 UNK        -0.1800 
     72 C          -2.9889  -23.2041  -46.5812 C.2       12 UNK         0.5000 
     73 O          -3.8868  -23.8548  -47.1167 O.2       12 UNK        -0.5000 
     74 N          -2.4537  -23.5171  -45.3967 N.am      13 UNK        -0.5000 
     75 CA         -2.7985  -24.6891  -44.5961 C.3       13 UNK         0.1400 
     76 CB         -2.1986  -24.5119  -43.1930 C.3       13 UNK        -0.1800 
     77 C          -2.3533  -26.0367  -45.2049 C.2       13 UNK         0.5000 
     78 O          -2.8943  -27.0678  -44.8014 O.2       13 UNK        -0.5000 
     79 N          -1.3817  -26.0258  -46.1291 N.am      14 UNK        -0.5000 
     80 CA         -0.7847  -27.2291  -46.7161 C.3       14 UNK         0.1400 
     81 CB          0.5905  -27.4666  -46.0706 C.3       14 UNK        -0.1800 
     82 C          -0.6542  -27.1649  -48.2483 C.2       14 UNK         0.5000 
     83 O          -0.7805  -28.2021  -48.9012 O.2       14 UNK        -0.5000 
     84 N          -0.3905  -25.9756  -48.7974 N.am      15 UNK        -0.5000 
     85 CA         -0.1772  -25.7154  -50.2185 C.3       15 UNK         0.1400 
     86 CB          1.2127  -25.0791  -50.3863 C.3       15 UNK        -0.1800 
     87 C          -1.2680  -24.7806  -50.7647 C.2       15 UNK         0.5000 
     88 O          -1.9820  -24.1355  -49.9949 O.2       15 UNK        -0.5000 
     89 N          -1.3661  -24.7197  -52.0956 N.am      16 UNK        -0.5000 
     90 CA         -2.3123  -23.8908  -52.8319 C.3       16 UNK         0.1400 
     91 CB         -3.4371  -24.7837  -53.3773 C.3       16 UNK        -0.1800 
     92 C          -1.5718  -23.1869  -53.9747 C.2       16 UNK         0.5000 
     93 O          -0.8018  -23.8464  -54.6771 O.2       16 UNK        -0.5000 
     94 N          -1.8255  -21.8835  -54.1515 N.am      17 UNK        -0.5000 
     95 CA         -1.2551  -21.0535  -55.2105 C.3       17 UNK         0.1400 
     96 CB          0.2848  -20.9573  -55.0988 C.3       17 UNK        -0.1800 
     97 C          -1.8896  -19.6546  -55.2087 C.2       17 UNK         0.5000 
     98 O          -2.6424  -19.3249  -56.1262 O.2       17 UNK        -0.5000 
     99 N          -1.5261  -18.8451  -54.2035 N.am      18 UNK        -0.5000 
    100 CA        -1.6396  -17.3839  -54.2305 C.3       18 UNK         0.1400 
    101 CB        -0.9210  -16.7923  -53.0110 C.3       18 UNK        -0.1800 
    102 C         -3.0702  -16.8311  -54.3214 C.2       18 UNK         0.5000 
    103 O         -3.2928  -15.8574  -55.0428 O.2       18 UNK        -0.5000 
    104 N         -4.0202  -17.4560  -53.6150 N.am      19 UNK        -0.5000 
    105 CA        -5.4247  -17.0403  -53.5751 C.3       19 UNK         0.1400 
    106 CB        -6.0399  -17.4524  -52.2252 C.3       19 UNK        -0.1800 
    107 C         -6.2111  -17.5738  -54.7909 C.2       19 UNK         0.5000 
    108 O         -7.2278  -18.2468  -54.6205 O.2       19 UNK        -0.5000 
    109 N         -5.7049  -17.2861  -55.9996 N.am      20 UNK        -0.5000 
    110 CA        -6.2348  -17.6783  -57.3120 C.3       20 UNK         0.1400 
    111 CB        -7.5322  -16.9018  -57.6182 C.3       20 UNK        -0.1800 
    112 C         -6.3994  -19.2070  -57.4467 C.2       20 UNK         0.5000 
    113 O         -7.4833  -19.6912  -57.7765 O.2       20 UNK        -0.5000 
    114 N         -5.3202  -19.9346  -57.1234 N.am      21 UNK        -0.5000 
    115 CA        -5.2138  -21.3964  -57.0215 C.3       21 UNK         0.1400 
    116 CB        -5.6034  -22.0994  -58.3384 C.3       21 UNK        -0.1800 
    117 C         -5.9320  -21.9992  -55.7947 C.2       21 UNK         0.5000 
    118 O         -5.9148  -23.2194  -55.6345 O.2       21 UNK        -0.5000 
    119 N         -6.5011  -21.1481  -54.9298 N.am      22 UNK        -0.5000 
    120 CA        -7.0578  -21.4721  -53.6043 C.3       22 UNK         0.1400 
    121 C         -8.3416  -22.3566  -53.6238 C.2       22 UNK         0.5000 
    122 N         -9.0435  -22.4744  -54.7443 N.am      22 UNK        -0.7600 
    123 O         -8.7299  -22.9203  -52.6041 O.2       22 UNK        -0.5000 
    124 C124       -5.9783  -21.9901  -52.6122 C.3       23 UNK        -0.0398 
    125 S125       -4.5251  -20.8828  -52.5163 S.3       23 UNK        -0.2404 
    126 C126       -4.1451  -20.9444  -50.7425 C.3       23 UNK        -0.0205 
    127 H127        1.9854  -14.3165  -51.0765 H         1 UNK         0.0600 
    128 H128        0.2605  -14.6916  -51.0981 H         1 UNK         0.0600 
    129 H129        1.4453  -15.9957  -50.9678 H         1 UNK         0.0600 
    130 H130       -0.7539  -14.3310  -49.1530 H         1 UNK         0.3000 
    131 H131        0.4207  -15.1868  -46.6332 H         1 UNK         0.0600 
    132 H132       -1.8411  -14.5583  -45.6854 H         1 UNK         0.0800 
    133 H133       -2.3695  -14.1491  -47.2991 H         1 UNK         0.0800 
    134 H134       -3.7793  -16.4116  -48.6322 H         1 UNK         0.0800 
    135 H135       -2.2987  -15.7382  -49.2624 H         1 UNK         0.0800 
    136 H136       -4.3946  -18.5263  -49.5305 H         1 UNK         0.1150 
    137 H137       -1.4522  -21.1831  -51.1687 H         1 UNK         0.1150 
    138 H138       -0.2460  -17.4805  -49.3774 H         1 UNK         0.1150 
    139 H139        0.8283  -19.7499  -51.7736 H         1 UNK         0.0800 
    140 H140        1.4002  -18.7924  -50.4339 H         1 UNK         0.0800 
    141 H141        0.8189  -19.8840  -47.9129 H         1 UNK         0.0800 
    142 H142        2.5273  -20.1832  -48.0228 H         1 UNK         0.0800 
    143 H143        2.0893  -22.6516  -47.6497 H         1 UNK         0.0600 
    144 H144        1.6876  -20.6824  -45.4972 H         1 UNK         0.3000 
    145 H145        3.5607  -22.7743  -43.2170 H         1 UNK         0.0600 
    146 H146        4.5427  -20.5153  -42.9310 H         1 UNK         0.0600 
    147 H147        3.8044  -19.9741  -44.4349 H         1 UNK         0.0600 
    148 H148        5.0372  -21.2262  -44.4602 H         1 UNK         0.0600 
    149 H149        1.8519  -20.4238  -42.9541 H         1 UNK         0.3000 
    150 H150       -0.8586  -22.1654  -41.5015 H         1 UNK         0.0600 
    151 H151        0.7079  -22.0182  -39.5529 H         1 UNK         0.0600 
    152 H152       -0.4614  -20.7074  -39.5444 H         1 UNK         0.0600 
    153 H153        1.1965  -20.4057  -40.0619 H         1 UNK         0.0600 
    154 H154       -0.3375  -19.3832  -41.7207 H         1 UNK         0.3000 
    155 H155       -1.3648  -19.0037  -45.1515 H         1 UNK         0.0600 
    156 H156       -3.4502  -18.9066  -43.8518 H         1 UNK         0.0600 
    157 H157       -2.7891  -17.2842  -43.9940 H         1 UNK         0.0600 
    158 H158       -2.6213  -18.1803  -42.4842 H         1 UNK         0.0600 
    159 H159       -0.4097  -17.1008  -43.2701 H         1 UNK         0.3000 
    160 H160        3.0847  -17.6153  -43.8505 H         1 UNK         0.0600 
    161 H161        1.3754  -15.1977  -44.5670 H         1 UNK         0.0600 
    162 H162        2.2791  -16.1535  -45.7533 H         1 UNK         0.0600 
    163 H163        3.1364  -15.2997  -44.4934 H         1 UNK         0.0600 
    164 H164        1.3496  -15.8320  -42.2803 H         1 UNK         0.3000 
    165 H165        1.6977  -17.7131  -39.2927 H         1 UNK         0.0600 
    166 H166        2.5826  -15.5656  -38.4239 H         1 UNK         0.0600 
    167 H167        3.8145  -16.3987  -39.3596 H         1 UNK         0.0600 
    168 H168        2.9619  -15.0289  -40.0589 H         1 UNK         0.0600 
    169 H169        0.4864  -15.1794  -39.9428 H         1 UNK         0.3000 
    170 H170       -2.6839  -16.4919  -40.8990 H         1 UNK         0.0600 
    171 H171       -1.8987  -15.2240  -38.2243 H         1 UNK         0.0600 
    172 H172       -3.5176  -15.2656  -38.9244 H         1 UNK         0.0600 
    173 H173       -2.7431  -16.7562  -38.4132 H         1 UNK         0.0600 
    174 H174       -2.0166  -13.8473  -40.3163 H         1 UNK         0.3000 
    175 H175       -1.7789  -12.8485  -43.4708 H         1 UNK         0.0600 
    176 H176       -1.1903  -11.9258  -40.5996 H         1 UNK         0.0600 
    177 H177       -1.6755  -10.8970  -41.9394 H         1 UNK         0.0600 
    178 H178       -2.7894  -12.1008  -41.3250 H         1 UNK         0.0600 
    179 H179        0.3027  -12.2729  -43.8893 H         1 UNK         0.3000 
    180 H180        2.8546  -11.2594  -42.4520 H         1 UNK         0.0600 
    181 H181        4.7121  -12.9392  -42.8697 H         1 UNK         0.0600 
    182 H182        3.5664  -14.2333  -42.5175 H         1 UNK         0.0600 
    183 H183        3.9758  -13.0566  -41.2824 H         1 UNK         0.0600 
    184 H184        2.6391  -13.1707  -44.7257 H         1 UNK         0.3000 
    185 H185        1.5565  -10.6503  -46.9484 H         1 UNK         0.0600 
    186 H186        3.4442  -11.4648  -48.3296 H         1 UNK         0.0600 
    187 H187        4.0473  -10.4272  -47.0470 H         1 UNK         0.0600 
    188 H188        4.2173  -12.1738  -46.9122 H         1 UNK         0.0600 
    189 H189        2.0937  -13.3863  -47.4171 H         1 UNK         0.3000 
    190 H190       -0.7950  -20.6737  -46.9506 H         1 UNK         0.3000 
    191 H191       -2.5576  -22.0932  -48.3546 H         1 UNK         0.0600 
    192 H192       -2.8401  -19.7975  -47.2608 H         1 UNK         0.0600 
    193 H193       -3.3055  -20.6170  -45.7787 H         1 UNK         0.0600 
    194 H194       -4.2836  -20.7996  -47.2269 H         1 UNK         0.0600 
    195 H195       -1.7793  -22.8681  -44.9988 H         1 UNK         0.3000 
    196 H196       -3.8855  -24.7203  -44.4995 H         1 UNK         0.0600 
    197 H197       -2.5709  -23.6046  -42.7171 H         1 UNK         0.0600 
    198 H198       -1.1105  -24.4491  -43.2309 H         1 UNK         0.0600 
    199 H199       -2.4581  -25.3494  -42.5443 H         1 UNK         0.0600 
    200 H200       -0.9982  -25.1318  -46.4257 H         1 UNK         0.3000 
    201 H201       -1.4088  -28.0995  -46.5035 H         1 UNK         0.0600 
    202 H202        0.4987  -27.6237  -44.9958 H         1 UNK         0.0600 
    203 H203        1.2583  -26.6184  -46.2290 H         1 UNK         0.0600 
    204 H204        1.0740  -28.3505  -46.4886 H         1 UNK         0.0600 
    205 H205       -0.3455  -25.1470  -48.2060 H         1 UNK         0.3000 
    206 H206       -0.2102  -26.6440  -50.7917 H         1 UNK         0.0600 
    207 H207        1.2961  -24.1484  -49.8250 H         1 UNK         0.0600 
    208 H208        1.9960  -25.7502  -50.0338 H         1 UNK         0.0600 
    209 H209        1.4252  -24.8533  -51.4318 H         1 UNK         0.0600 
    210 H210       -0.7061  -25.2246  -52.6723 H         1 UNK         0.3000 
    211 H211       -2.7429  -23.1337  -52.1784 H         1 UNK         0.0600 
    212 H212       -3.0422  -25.6287  -53.9426 H         1 UNK         0.0600 
    213 H213       -4.0894  -24.2265  -54.0477 H         1 UNK         0.0600 
    214 H214       -4.0527  -25.1784  -52.5690 H         1 UNK         0.0600 
    215 H215       -2.5156  -21.4296  -53.5644 H         1 UNK         0.3000 
    216 H216       -1.4997  -21.5144  -56.1698 H         1 UNK         0.0600 
    217 H217        0.6820  -20.1926  -55.7679 H         1 UNK         0.0600 
    218 H218        0.7669  -21.8939  -55.3771 H         1 UNK         0.0600 
    219 H219        0.6061  -20.7098  -54.0869 H         1 UNK         0.0600 
    220 H220       -0.9407  -19.2254  -53.4757 H         1 UNK         0.3000 
    221 H221       -1.1085  -17.0441  -55.1223 H         1 UNK         0.0600 
    222 H222        0.1038  -17.1553  -52.9320 H         1 UNK         0.0600 
    223 H223       -0.8771  -15.7048  -53.0790 H         1 UNK         0.0600 
    224 H224       -1.4427  -17.0381  -52.0878 H         1 UNK         0.0600 
    225 H225       -3.7723  -18.2803  -53.0857 H         1 UNK         0.3000 
    226 H226       -5.4727  -15.9504  -53.6242 H         1 UNK         0.0600 
    227 H227       -5.4658  -17.0487  -51.3912 H         1 UNK         0.0600 
    228 H228       -7.0579  -17.0728  -52.1307 H         1 UNK         0.0600 
    229 H229       -6.0861  -18.5336  -52.1083 H         1 UNK         0.0600 
    230 H230       -4.8461  -16.7451  -56.0128 H         1 UNK         0.3000 
    231 H231       -5.4893  -17.3819  -58.0513 H         1 UNK         0.0600 
    232 H232       -7.8872  -17.1166  -58.6268 H         1 UNK         0.0600 
    233 H233       -7.3714  -15.8257  -57.5538 H         1 UNK         0.0600 
    234 H234       -8.3340  -17.1624  -56.9264 H         1 UNK         0.0600 
    235 H235       -4.4790  -19.4413  -56.8347 H         1 UNK         0.3000 
    236 H236       -4.1536  -21.5941  -56.8585 H         1 UNK         0.0600 
    237 H237       -6.6756  -22.0501  -58.5280 H         1 UNK         0.0600 
    238 H238       -5.0883  -21.6564  -59.1908 H         1 UNK         0.0600 
    239 H239       -5.3311  -23.1551  -58.3095 H         1 UNK         0.0600 
    240 H240       -6.5211  -20.1630  -55.1618 H         1 UNK         0.3000 
    241 H241       -7.4071  -20.5192  -53.2071 H         1 UNK         0.0600 
    242 H242       -8.7394  -22.0086  -55.5850 H         1 UNK         0.3800 
    243 H243       -9.8787  -23.0385  -54.7537 H         1 UNK         0.3800 
    244 H244       -5.6467  -22.9879  -52.8946 H         1 UNK         0.0800 
    245 H245       -6.4092  -22.0901  -51.6149 H         1 UNK         0.0800 
    246 H246       -5.0470  -20.7205  -50.1706 H         1 UNK         0.0800 
    247 H247       -3.8468  -21.9552  -50.4615 H         1 UNK         0.0800 
@<TRIPOS>BOND
     1    1    2 1    
     2    1  127 1    
     3    1  128 1    
     4    1  129 1    
     5    2    3 2    
     6    2    4 am   BACKBONE|DICT|INTERRES
     7    4    5 1    
     8    4  130 1    
     9    5    6 1    
    10    5   65 1    
    11    5  131 1    
    12    6    7 1    
    13    6  132 1    
    14    6  133 1    
    15    7    8 1    
    16    8    9 1    
    17    8  134 1    
    18    8  135 1    
    19    9   10 ar   
    20    9   14 ar   
    21   10   11 ar   
    22   10  136 1    
    23   11   12 ar   
    24   11  126 1    
    25   12   13 ar   
    26   12  137 1    
    27   13   14 ar   
    28   13   15 1    
    29   14  138 1    
    30   15   16 1    
    31   15  139 1    
    32   15  140 1    
    33   16   17 1    
    34   17   18 1    
    35   17  141 1    
    36   17  142 1    
    37   18   19 1    
    38   18   67 1    
    39   18  143 1    
    40   19   20 am   BACKBONE|DICT|INTERRES
    41   19  144 1    
    42   20   21 2    
    43   20   22 1    
    44   22   23 1    
    45   22   24 1    
    46   22  145 1    
    47   23  146 1    
    48   23  147 1    
    49   23  148 1    
    50   24   25 am   BACKBONE|DICT|INTERRES
    51   24  149 1    
    52   25   26 2    
    53   25   27 1    
    54   27   28 1    
    55   27   29 1    
    56   27  150 1    
    57   28  151 1    
    58   28  152 1    
    59   28  153 1    
    60   29   30 am   BACKBONE|DICT|INTERRES
    61   29  154 1    
    62   30   31 2    
    63   30   32 1    
    64   32   33 1    
    65   32   34 1    
    66   32  155 1    
    67   33  156 1    
    68   33  157 1    
    69   33  158 1    
    70   34   35 am   BACKBONE|DICT|INTERRES
    71   34  159 1    
    72   35   36 2    
    73   35   37 1    
    74   37   38 1    
    75   37   39 1    
    76   37  160 1    
    77   38  161 1    
    78   38  162 1    
    79   38  163 1    
    80   39   40 am   BACKBONE|DICT|INTERRES
    81   39  164 1    
    82   40   41 2    
    83   40   42 1    
    84   42   43 1    
    85   42   44 1    
    86   42  165 1    
    87   43  166 1    
    88   43  167 1    
    89   43  168 1    
    90   44   45 am   BACKBONE|DICT|INTERRES
    91   44  169 1    
    92   45   46 2    
    93   45   47 1    
    94   47   48 1    
    95   47   49 1    
    96   47  170 1    
    97   48  171 1    
    98   48  172 1    
    99   48  173 1    
   100   49   50 am   BACKBONE|DICT|INTERRES
   101   49  174 1    
   102   50   51 2    
   103   50   52 1    
   104   52   53 1    
   105   52   54 1    
   106   52  175 1    
   107   53  176 1    
   108   53  177 1    
   109   53  178 1    
   110   54   55 am   BACKBONE|DICT|INTERRES
   111   54  179 1    
   112   55   56 2    
   113   55   57 1    
   114   57   58 1    
   115   57   59 1    
   116   57  180 1    
   117   58  181 1    
   118   58  182 1    
   119   58  183 1    
   120   59   60 am   BACKBONE|DICT|INTERRES
   121   59  184 1    
   122   60   61 2    
   123   60   62 1    
   124   62   63 1    
   125   62   64 1    
   126   62  185 1    
   127   63  186 1    
   128   63  187 1    
   129   63  188 1    
   130   64   65 am   BACKBONE|DICT|INTERRES
   131   64  189 1    
   132   65   66 2    
   133   67   68 2    
   134   67   69 am   BACKBONE|DICT|INTERRES
   135   69   70 1    
   136   69  190 1    
   137   70   71 1    
   138   70   72 1    
   139   70  191 1    
   140   71  192 1    
   141   71  193 1    
   142   71  194 1    
   143   72   73 2    
   144   72   74 am   BACKBONE|DICT|INTERRES
   145   74   75 1    
   146   74  195 1    
   147   75   76 1    
   148   75   77 1    
   149   75  196 1    
   150   76  197 1    
   151   76  198 1    
   152   76  199 1    
   153   77   78 2    
   154   77   79 am   BACKBONE|DICT|INTERRES
   155   79   80 1    
   156   79  200 1    
   157   80   81 1    
   158   80   82 1    
   159   80  201 1    
   160   81  202 1    
   161   81  203 1    
   162   81  204 1    
   163   82   83 2    
   164   82   84 am   BACKBONE|DICT|INTERRES
   165   84   85 1    
   166   84  205 1    
   167   85   86 1    
   168   85   87 1    
   169   85  206 1    
   170   86  207 1    
   171   86  208 1    
   172   86  209 1    
   173   87   88 2    
   174   87   89 am   BACKBONE|DICT|INTERRES
   175   89   90 1    
   176   89  210 1    
   177   90   91 1    
   178   90   92 1    
   179   90  211 1    
   180   91  212 1    
   181   91  213 1    
   182   91  214 1    
   183   92   93 2    
   184   92   94 am   BACKBONE|DICT|INTERRES
   185   94   95 1    
   186   94  215 1    
   187   95   96 1    
   188   95   97 1    
   189   95  216 1    
   190   96  217 1    
   191   96  218 1    
   192   96  219 1    
   193   97   98 2    
   194   97   99 am   BACKBONE|DICT|INTERRES
   195   99  100 1    
   196   99  220 1    
   197  100  101 1    
   198  100  102 1    
   199  100  221 1    
   200  101  222 1    
   201  101  223 1    
   202  101  224 1    
   203  102  103 2    
   204  102  104 am   BACKBONE|DICT|INTERRES
   205  104  105 1    
   206  104  225 1    
   207  105  106 1    
   208  105  107 1    
   209  105  226 1    
   210  106  227 1    
   211  106  228 1    
   212  106  229 1    
   213  107  108 2    
   214  107  109 am   BACKBONE|DICT|INTERRES
   215  109  110 1    
   216  109  230 1    
   217  110  111 1    
   218  110  112 1    
   219  110  231 1    
   220  111  232 1    
   221  111  233 1    
   222  111  234 1    
   223  112  113 2    
   224  112  114 am   BACKBONE|DICT|INTERRES
   225  114  115 1    
   226  114  235 1    
   227  115  116 1    
   228  115  117 1    
   229  115  236 1    
   230  116  237 1    
   231  116  238 1    
   232  116  239 1    
   233  117  118 2    
   234  117  119 am   BACKBONE|DICT|INTERRES
   235  119  120 1    
   236  119  240 1    
   237  120  121 1    
   238  120  124 1    
   239  120  241 1    
   240  121  122 am   BACKBONE|DICT|INTERRES
   241  121  123 2    
   242  122  242 1    
   243  122  243 1    
   244  124  125 1    
   245  124  244 1    
   246  124  245 1    
   247  125  126 1    
   248  126  246 1    
   249  126  247 1    
@<TRIPOS>SUBSTRUCTURE
     1 UNK         1 GROUP             0       ****    0 ROOT    
