@<TRIPOS>MOLECULE
3R540
247   249    1
SMALL
USER_CHARGES


@<TRIPOS>ATOM
      1 CA         -3.2659  -19.5372  -45.6893 C.3       0 UNK        -0.1800 
      2 C          -3.0688  -18.4526  -46.7392 C.2       0 UNK         0.5000 
      3 O          -3.7601  -18.4493  -47.7553 O.2       0 UNK        -0.5000 
      4 N          -2.1201  -17.5434  -46.5041 N.am      1 UNK        -0.5000 
      5 CA         -1.7777  -16.4371  -47.3915 C.3       1 UNK         0.1400 
      6 C6         -0.5161  -16.7672  -48.2213 C.3       23 UNK        -0.0398 
      7 S7         -0.0433  -15.4591  -49.4038 S.3       23 UNK        -0.2404 
      8 C8          1.6096  -16.0387  -49.9035 C.3       23 UNK        -0.0205 
      9 C9          1.5183  -17.2604  -50.8053 C.ar      23 UNK        -0.0193 
     10 C10         1.4328  -17.1042  -52.1913 C.ar      23 UNK        -0.1150 
     11 C11         1.3010  -18.2179  -53.0263 C.ar      23 UNK        -0.0193 
     12 C12         1.2578  -19.4953  -52.4596 C.ar      23 UNK        -0.1150 
     13 C13         1.3511  -19.6672  -51.0754 C.ar      23 UNK        -0.0193 
     14 C14         1.5013  -18.5456  -50.2558 C.ar      23 UNK        -0.1150 
     15 C15         1.2914  -21.0639  -50.4737 C.3       23 UNK        -0.0205 
     16 S16        -0.3906  -21.4865  -49.9083 S.3       23 UNK        -0.2404 
     17 C17        -0.3096  -21.0234  -48.1449 C.3       23 UNK        -0.0398 
     18 CA         -0.0597  -22.2614  -47.2421 C.3       11 UNK         0.1400 
     19 N           0.9386  -21.9972  -46.1916 N.am      11 UNK        -0.5000 
     20 C           1.5077  -22.9432  -45.4253 C.2       10 UNK         0.5000 
     21 O           1.1395  -24.1171  -45.4089 O.2       10 UNK        -0.5000 
     22 CA          2.6594  -22.5041  -44.5138 C.3       10 UNK         0.1400 
     23 CB          3.9664  -22.3885  -45.3224 C.3       10 UNK        -0.1800 
     24 N           2.3422  -21.2453  -43.8403 N.am      10 UNK        -0.5000 
     25 C           3.0003  -20.7531  -42.7827 C.2       9 UNK         0.5000 
     26 O           3.9624  -21.3071  -42.2495 O.2       9 UNK        -0.5000 
     27 CA          2.4959  -19.4100  -42.2262 C.3       9 UNK         0.1400 
     28 CB          3.1694  -18.2488  -42.9692 C.3       9 UNK        -0.1800 
     29 N           1.0433  -19.2594  -42.3241 N.am      9 UNK        -0.5000 
     30 C           0.1535  -19.9183  -41.5713 C.2       8 UNK         0.5000 
     31 O           0.4711  -20.7537  -40.7233 O.2       8 UNK        -0.5000 
     32 CA         -1.3328  -19.5699  -41.8015 C.3       8 UNK         0.1400 
     33 CB         -2.2667  -20.2198  -40.7651 C.3       8 UNK        -0.1800 
     34 N          -1.5686  -18.1266  -41.7978 N.am      8 UNK        -0.5000 
     35 C          -1.3526  -17.2842  -42.8118 C.2       7 UNK         0.5000 
     36 O          -0.9059  -17.6481  -43.9005 O.2       7 UNK        -0.5000 
     37 CA         -1.6652  -15.7953  -42.5675 C.3       7 UNK         0.1400 
     38 CB         -3.1827  -15.5345  -42.5600 C.3       7 UNK        -0.1800 
     39 N          -1.0051  -15.2217  -41.3903 N.am      7 UNK        -0.5000 
     40 C          -1.1698  -15.5156  -40.0914 C.2       6 UNK         0.5000 
     41 O          -1.9926  -16.3353  -39.6787 O.2       6 UNK        -0.5000 
     42 CA         -0.2714  -14.7667  -39.0801 C.3       6 UNK         0.1400 
     43 CB          0.1252  -15.6539  -37.8810 C.3       6 UNK        -0.1800 
     44 N           0.9137  -14.1339  -39.6773 N.am      6 UNK        -0.5000 
     45 C           1.9406  -14.7420  -40.2888 C.2       5 UNK         0.5000 
     46 O           2.0509  -15.9623  -40.4162 O.2       5 UNK        -0.5000 
     47 CA          3.0163  -13.8139  -40.8842 C.3       5 UNK         0.1400 
     48 CB          4.3801  -14.0629  -40.2209 C.3       5 UNK        -0.1800 
     49 N           3.1537  -13.9667  -42.3344 N.am      5 UNK        -0.5000 
     50 C           2.1789  -13.7883  -43.2364 C.2       4 UNK         0.5000 
     51 O           1.0149  -13.5014  -42.9410 O.2       4 UNK        -0.5000 
     52 CA          2.5885  -13.9750  -44.7091 C.3       4 UNK         0.1400 
     53 CB          2.6486  -15.4651  -45.0765 C.3       4 UNK        -0.1800 
     54 N           1.6424  -13.3153  -45.6039 N.am      4 UNK        -0.5000 
     55 C           1.7561  -12.0563  -46.0481 C.2       3 UNK         0.5000 
     56 O           2.7037  -11.3199  -45.7691 O.2       3 UNK        -0.5000 
     57 CA          0.6411  -11.5228  -46.9731 C.3       3 UNK         0.1400 
     58 CB          1.0777  -11.6148  -48.4437 C.3       3 UNK        -0.1800 
     59 N          -0.6281  -12.2319  -46.8150 N.am      3 UNK        -0.5000 
     60 C          -1.4361  -12.1205  -45.7525 C.2       2 UNK         0.5000 
     61 O          -1.2619  -11.3007  -44.8503 O.2       2 UNK        -0.5000 
     62 CA         -2.6367  -13.0883  -45.6691 C.3       2 UNK         0.1400 
     63 CB         -3.9478  -12.3471  -45.9730 C.3       2 UNK        -0.1800 
     64 N          -2.5591  -14.2778  -46.5287 N.am      2 UNK        -0.5000 
     65 C          -1.5952  -15.2077  -46.4942 C.2       1 UNK         0.5000 
     66 O          -0.5952  -15.1283  -45.7838 O.2       1 UNK        -0.5000 
     67 C          -1.3843  -22.8718  -46.7312 C.2       11 UNK         0.5000 
     68 O          -2.1054  -23.4935  -47.5111 O.2       11 UNK        -0.5000 
     69 N          -1.6627  -22.7438  -45.4264 N.am      12 UNK        -0.5000 
     70 CA         -2.7764  -23.4055  -44.7440 C.3       12 UNK         0.1400 
     71 CB         -2.8635  -22.8901  -43.3009 C.3       12 UNK        -0.1800 
     72 C          -2.6850  -24.9460  -44.7736 C.2       12 UNK         0.5000 
     73 O          -3.7236  -25.6059  -44.7939 O.2       12 UNK        -0.5000 
     74 N          -1.4621  -25.4972  -44.8436 N.am      13 UNK        -0.5000 
     75 CA         -1.2135  -26.9326  -45.0208 C.3       13 UNK         0.1400 
     76 CB          0.2535  -27.2429  -44.6876 C.3       13 UNK        -0.1800 
     77 C          -1.5627  -27.4287  -46.4395 C.2       13 UNK         0.5000 
     78 O          -1.8468  -28.6135  -46.6149 O.2       13 UNK        -0.5000 
     79 N          -1.5707  -26.5089  -47.4137 N.am      14 UNK        -0.5000 
     80 CA         -2.0275  -26.7199  -48.7879 C.3       14 UNK         0.1400 
     81 CB         -1.0917  -25.9522  -49.7400 C.3       14 UNK        -0.1800 
     82 C          -3.4951  -26.2777  -48.9723 C.2       14 UNK         0.5000 
     83 O          -3.9464  -26.1472  -50.1103 O.2       14 UNK        -0.5000 
     84 N          -4.2051  -26.0090  -47.8632 N.am      15 UNK        -0.5000 
     85 CA         -5.5905  -25.5305  -47.7799 C.3       15 UNK         0.1400 
     86 CB         -6.5664  -26.6291  -48.2502 C.3       15 UNK        -0.1800 
     87 C          -5.8229  -24.1820  -48.4968 C.2       15 UNK         0.5000 
     88 O          -6.9358  -23.9172  -48.9538 O.2       15 UNK        -0.5000 
     89 N          -4.7592  -23.3688  -48.6018 N.am      16 UNK        -0.5000 
     90 CA         -4.6677  -22.0972  -49.3254 C.3       16 UNK         0.1400 
     91 CB         -5.6133  -21.0457  -48.7099 C.3       16 UNK        -0.1800 
     92 C          -4.8582  -22.2255  -50.8530 C.2       16 UNK         0.5000 
     93 O          -5.0758  -21.2109  -51.5148 O.2       16 UNK        -0.5000 
     94 N          -4.7641  -23.4456  -51.4062 N.am      17 UNK        -0.5000 
     95 CA         -5.0251  -23.7288  -52.8200 C.3       17 UNK         0.1400 
     96 CB         -5.0406  -25.2467  -53.0506 C.3       17 UNK        -0.1800 
     97 C          -4.0268  -23.0451  -53.7687 C.2       17 UNK         0.5000 
     98 O          -4.4347  -22.5157  -54.8019 O.2       17 UNK        -0.5000 
     99 N          -2.7437  -23.0337  -53.3836 N.am      18 UNK        -0.5000 
    100 CA        -1.6814  -22.3584  -54.1277 C.3       18 UNK         0.1400 
    101 CB        -0.3152  -22.8662  -53.6486 C.3       18 UNK        -0.1800 
    102 C         -1.7835  -20.8250  -54.0292 C.2       18 UNK         0.5000 
    103 O         -1.5325  -20.1426  -55.0218 O.2       18 UNK        -0.5000 
    104 N         -2.1961  -20.3167  -52.8581 N.am      19 UNK        -0.5000 
    105 CA        -2.4510  -18.8947  -52.6169 C.3       19 UNK         0.1400 
    106 CB        -2.6449  -18.6403  -51.1146 C.3       19 UNK        -0.1800 
    107 C         -3.6481  -18.3766  -53.4340 C.2       19 UNK         0.5000 
    108 O         -3.5718  -17.2974  -54.0222 O.2       19 UNK        -0.5000 
    109 N         -4.7169  -19.1818  -53.5008 N.am      20 UNK        -0.5000 
    110 CA        -5.8924  -18.9361  -54.3348 C.3       20 UNK         0.1400 
    111 CB        -6.9880  -19.9531  -53.9809 C.3       20 UNK        -0.1800 
    112 C         -5.5776  -18.9750  -55.8428 C.2       20 UNK         0.5000 
    113 O         -6.1896  -18.2243  -56.6035 O.2       20 UNK        -0.5000 
    114 N         -4.6297  -19.8336  -56.2461 N.am      21 UNK        -0.5000 
    115 CA        -4.1563  -19.9523  -57.6233 C.3       21 UNK         0.1400 
    116 CB        -3.3713  -21.2609  -57.8039 C.3       21 UNK        -0.1800 
    117 C         -3.3244  -18.7374  -58.0719 C.2       21 UNK         0.5000 
    118 O         -3.5738  -18.2191  -59.1619 O.2       21 UNK        -0.5000 
    119 N         -2.3608  -18.3010  -57.2456 N.am      22 UNK        -0.5000 
    120 CA        -1.5348  -17.1148  -57.5361 C.3       22 UNK         0.1400 
    121 C         -2.2651  -15.7551  -57.3317 C.2       22 UNK         0.5000 
    122 N         -3.2372  -15.6539  -56.4334 N.am      22 UNK        -0.7600 
    123 O         -1.9550  -14.7816  -58.0135 O.2       22 UNK        -0.5000 
    124 C124       -0.1487  -17.1517  -56.8413 C.3       23 UNK        -0.0398 
    125 S125       -0.2039  -17.0085  -55.0231 S.3       23 UNK        -0.2404 
    126 C126        1.2108  -18.0456  -54.5372 C.3       23 UNK        -0.0205 
    127 H127       -3.4845  -20.4916  -46.1678 H         1 UNK         0.0600 
    128 H128       -4.1001  -19.2827  -45.0359 H         1 UNK         0.0600 
    129 H129       -2.3739  -19.6662  -45.0774 H         1 UNK         0.0600 
    130 H130       -1.6027  -17.5625  -45.6258 H         1 UNK         0.3000 
    131 H131       -2.5995  -16.2370  -48.0826 H         1 UNK         0.0600 
    132 H132       -0.6977  -17.6802  -48.7876 H         1 UNK         0.0800 
    133 H133        0.3296  -16.9778  -47.5638 H         1 UNK         0.0800 
    134 H134        2.2107  -16.2574  -49.0196 H         1 UNK         0.0800 
    135 H135        2.1221  -15.2298  -50.4263 H         1 UNK         0.0800 
    136 H136        1.4507  -16.1128  -52.6218 H         1 UNK         0.1150 
    137 H137        1.1490  -20.3591  -53.0980 H         1 UNK         0.1150 
    138 H138        1.5833  -18.6679  -49.1863 H         1 UNK         0.1150 
    139 H139        1.6057  -21.7991  -51.2154 H         1 UNK         0.0800 
    140 H140        2.0036  -21.1532  -49.6522 H         1 UNK         0.0800 
    141 H141       -1.2314  -20.5031  -47.8811 H         1 UNK         0.0800 
    142 H142        0.4786  -20.2831  -48.0158 H         1 UNK         0.0800 
    143 H143        0.3926  -23.0435  -47.8567 H         1 UNK         0.0600 
    144 H144        1.3255  -21.0657  -46.1717 H         1 UNK         0.3000 
    145 H145        2.7849  -23.2793  -43.7546 H         1 UNK         0.0600 
    146 H146        4.8243  -22.2109  -44.6743 H         1 UNK         0.0600 
    147 H147        4.1681  -23.3083  -45.8732 H         1 UNK         0.0600 
    148 H148        3.9217  -21.5743  -46.0465 H         1 UNK         0.0600 
    149 H149        1.5308  -20.7441  -44.1685 H         1 UNK         0.3000 
    150 H150        2.7769  -19.3515  -41.1724 H         1 UNK         0.0600 
    151 H151        4.2544  -18.2958  -42.8677 H         1 UNK         0.0600 
    152 H152        2.8480  -17.2866  -42.5719 H         1 UNK         0.0600 
    153 H153        2.9371  -18.2686  -44.0345 H         1 UNK         0.0600 
    154 H154        0.6894  -18.5791  -42.9872 H         1 UNK         0.3000 
    155 H155       -1.5998  -19.9650  -42.7825 H         1 UNK         0.0600 
    156 H156       -2.0600  -19.8576  -39.7572 H         1 UNK         0.0600 
    157 H157       -2.1543  -21.3046  -40.7554 H         1 UNK         0.0600 
    158 H158       -3.3119  -20.0065  -40.9898 H         1 UNK         0.0600 
    159 H159       -1.8711  -17.7153  -40.9178 H         1 UNK         0.3000 
    160 H160       -1.2469  -15.2431  -43.4052 H         1 UNK         0.0600 
    161 H161       -3.6877  -16.0704  -41.7560 H         1 UNK         0.0600 
    162 H162       -3.6342  -15.8556  -43.4997 H         1 UNK         0.0600 
    163 H163       -3.3993  -14.4730  -42.4412 H         1 UNK         0.0600 
    164 H164       -0.2790  -14.5511  -41.6205 H         1 UNK         0.3000 
    165 H165       -0.8823  -13.9503  -38.6927 H         1 UNK         0.0600 
    166 H166        0.7558  -15.1094  -37.1782 H         1 UNK         0.0600 
    167 H167       -0.7558  -15.9871  -37.3313 H         1 UNK         0.0600 
    168 H168        0.6667  -16.5459  -38.1972 H         1 UNK         0.0600 
    169 H169        0.9119  -13.1232  -39.6528 H         1 UNK         0.3000 
    170 H170        2.7335  -12.7770  -40.6916 H         1 UNK         0.0600 
    171 H171        4.3149  -13.9444  -39.1385 H         1 UNK         0.0600 
    172 H172        4.7458  -15.0715  -40.4188 H         1 UNK         0.0600 
    173 H173        5.1296  -13.3571  -40.5795 H         1 UNK         0.0600 
    174 H174        4.0705  -14.2331  -42.6618 H         1 UNK         0.3000 
    175 H175        3.5828  -13.5474  -44.8540 H         1 UNK         0.0600 
    176 H176        1.7389  -15.9932  -44.7866 H         1 UNK         0.0600 
    177 H177        2.7895  -15.6059  -46.1483 H         1 UNK         0.0600 
    178 H178        3.4884  -15.9466  -44.5770 H         1 UNK         0.0600 
    179 H179        0.7933  -13.8392  -45.7987 H         1 UNK         0.3000 
    180 H180        0.4824  -10.4704  -46.7285 H         1 UNK         0.0600 
    181 H181        0.3228  -11.1934  -49.1078 H         1 UNK         0.0600 
    182 H182        1.2539  -12.6477  -48.7469 H         1 UNK         0.0600 
    183 H183        2.0026  -11.0617  -48.6118 H         1 UNK         0.0600 
    184 H184       -0.8458  -12.9318  -47.5088 H         1 UNK         0.3000 
    185 H185       -2.6789  -13.4394  -44.6369 H         1 UNK         0.0600 
    186 H186       -4.8131  -12.9883  -45.8034 H         1 UNK         0.0600 
    187 H187       -4.0638  -11.4737  -45.3297 H         1 UNK         0.0600 
    188 H188       -3.9818  -12.0003  -47.0065 H         1 UNK         0.0600 
    189 H189       -3.3428  -14.4198  -47.1498 H         1 UNK         0.3000 
    190 H190       -1.0094  -22.2411  -44.8466 H         1 UNK         0.3000 
    191 H191       -3.6975  -23.1266  -45.2607 H         1 UNK         0.0600 
    192 H192       -3.6658  -23.3879  -42.7544 H         1 UNK         0.0600 
    193 H193       -3.0783  -21.8221  -43.2812 H         1 UNK         0.0600 
    194 H194       -1.9363  -23.0623  -42.7530 H         1 UNK         0.0600 
    195 H195       -0.6436  -24.8969  -44.8655 H         1 UNK         0.3000 
    196 H196       -1.8435  -27.4779  -44.3149 H         1 UNK         0.0600 
    197 H197        0.9361  -26.7738  -45.3968 H         1 UNK         0.0600 
    198 H198        0.5152  -26.8954  -43.6881 H         1 UNK         0.0600 
    199 H199        0.4400  -28.3171  -44.7182 H         1 UNK         0.0600 
    200 H200       -1.3636  -25.5493  -47.1700 H         1 UNK         0.3000 
    201 H201       -1.9741  -27.7804  -49.0410 H         1 UNK         0.0600 
    202 H202       -1.1532  -24.8740  -49.5892 H         1 UNK         0.0600 
    203 H203       -1.3433  -26.1504  -50.7826 H         1 UNK         0.0600 
    204 H204       -0.0531  -26.2509  -49.5974 H         1 UNK         0.0600 
    205 H205       -3.7424  -26.1209  -46.9705 H         1 UNK         0.3000 
    206 H206       -5.7858  -25.3458  -46.7228 H         1 UNK         0.0600 
    207 H207       -6.3856  -27.5674  -47.7257 H         1 UNK         0.0600 
    208 H208       -7.6011  -26.3453  -48.0552 H         1 UNK         0.0600 
    209 H209       -6.4757  -26.8196  -49.3201 H         1 UNK         0.0600 
    210 H210       -3.8806  -23.6775  -48.1930 H         1 UNK         0.3000 
    211 H211       -3.6461  -21.7426  -49.1813 H         1 UNK         0.0600 
    212 H212       -5.4381  -20.0611  -49.1445 H         1 UNK         0.0600 
    213 H213       -5.4589  -20.9553  -47.6351 H         1 UNK         0.0600 
    214 H214       -6.6619  -21.2893  -48.8804 H         1 UNK         0.0600 
    215 H215       -4.5687  -24.2447  -50.8132 H         1 UNK         0.3000 
    216 H216       -6.0191  -23.3424  -53.0549 H         1 UNK         0.0600 
    217 H217       -4.0716  -25.6974  -52.8324 H         1 UNK         0.0600 
    218 H218       -5.2865  -25.4818  -54.0869 H         1 UNK         0.0600 
    219 H219       -5.7851  -25.7336  -52.4203 H         1 UNK         0.0600 
    220 H220       -2.4906  -23.4870  -52.5181 H         1 UNK         0.3000 
    221 H221       -1.7812  -22.6259  -55.1818 H         1 UNK         0.0600 
    222 H222       -0.2180  -23.9402  -53.8079 H         1 UNK         0.0600 
    223 H223       -0.1636  -22.6727  -52.5884 H         1 UNK         0.0600 
    224 H224        0.4953  -22.3839  -54.1960 H         1 UNK         0.0600 
    225 H225       -2.3968  -20.9483  -52.0982 H         1 UNK         0.3000 
    226 H226       -1.5684  -18.3384  -52.9285 H         1 UNK         0.0600 
    227 H227       -3.4902  -19.1954  -50.7088 H         1 UNK         0.0600 
    228 H228       -1.7559  -18.9242  -50.5535 H         1 UNK         0.0600 
    229 H229       -2.8224  -17.5824  -50.9180 H         1 UNK         0.0600 
    230 H230       -4.7315  -20.0239  -52.9302 H         1 UNK         0.3000 
    231 H231       -6.2658  -17.9373  -54.0998 H         1 UNK         0.0600 
    232 H232       -6.6640  -20.9762  -54.1732 H         1 UNK         0.0600 
    233 H233       -7.8898  -19.7770  -54.5684 H         1 UNK         0.0600 
    234 H234       -7.2653  -19.8834  -52.9288 H         1 UNK         0.0600 
    235 H235       -4.2156  -20.4570  -55.5646 H         1 UNK         0.3000 
    236 H236       -5.0339  -20.0073  -58.2710 H         1 UNK         0.0600 
    237 H237       -3.9799  -22.1258  -57.5399 H         1 UNK         0.0600 
    238 H238       -3.0617  -21.3868  -58.8420 H         1 UNK         0.0600 
    239 H239       -2.4711  -21.2848  -57.1915 H         1 UNK         0.0600 
    240 H240       -2.1827  -18.7843  -56.3700 H         1 UNK         0.3000 
    241 H241       -1.3106  -17.1534  -58.6043 H         1 UNK         0.0600 
    242 H242       -3.7096  -14.7727  -56.3147 H         1 UNK         0.3800 
    243 H243       -3.4194  -16.4097  -55.7802 H         1 UNK         0.3800 
    244 H244        0.4832  -16.3483  -57.2235 H         1 UNK         0.0800 
    245 H245        0.3585  -18.0785  -57.1120 H         1 UNK         0.0800 
    246 H246        2.1336  -17.5941  -54.9033 H         1 UNK         0.0800 
    247 H247        1.1202  -19.0175  -55.0248 H         1 UNK         0.0800 
@<TRIPOS>BOND
     1    1    2 1    
     2    1  127 1    
     3    1  128 1    
     4    1  129 1    
     5    2    3 2    
     6    2    4 am   BACKBONE|DICT|INTERRES
     7    4    5 1    
     8    4  130 1    
     9    5    6 1    
    10    5   65 1    
    11    5  131 1    
    12    6    7 1    
    13    6  132 1    
    14    6  133 1    
    15    7    8 1    
    16    8    9 1    
    17    8  134 1    
    18    8  135 1    
    19    9   10 ar   
    20    9   14 ar   
    21   10   11 ar   
    22   10  136 1    
    23   11   12 ar   
    24   11  126 1    
    25   12   13 ar   
    26   12  137 1    
    27   13   14 ar   
    28   13   15 1    
    29   14  138 1    
    30   15   16 1    
    31   15  139 1    
    32   15  140 1    
    33   16   17 1    
    34   17   18 1    
    35   17  141 1    
    36   17  142 1    
    37   18   19 1    
    38   18   67 1    
    39   18  143 1    
    40   19   20 am   BACKBONE|DICT|INTERRES
    41   19  144 1    
    42   20   21 2    
    43   20   22 1    
    44   22   23 1    
    45   22   24 1    
    46   22  145 1    
    47   23  146 1    
    48   23  147 1    
    49   23  148 1    
    50   24   25 am   BACKBONE|DICT|INTERRES
    51   24  149 1    
    52   25   26 2    
    53   25   27 1    
    54   27   28 1    
    55   27   29 1    
    56   27  150 1    
    57   28  151 1    
    58   28  152 1    
    59   28  153 1    
    60   29   30 am   BACKBONE|DICT|INTERRES
    61   29  154 1    
    62   30   31 2    
    63   30   32 1    
    64   32   33 1    
    65   32   34 1    
    66   32  155 1    
    67   33  156 1    
    68   33  157 1    
    69   33  158 1    
    70   34   35 am   BACKBONE|DICT|INTERRES
    71   34  159 1    
    72   35   36 2    
    73   35   37 1    
    74   37   38 1    
    75   37   39 1    
    76   37  160 1    
    77   38  161 1    
    78   38  162 1    
    79   38  163 1    
    80   39   40 am   BACKBONE|DICT|INTERRES
    81   39  164 1    
    82   40   41 2    
    83   40   42 1    
    84   42   43 1    
    85   42   44 1    
    86   42  165 1    
    87   43  166 1    
    88   43  167 1    
    89   43  168 1    
    90   44   45 am   BACKBONE|DICT|INTERRES
    91   44  169 1    
    92   45   46 2    
    93   45   47 1    
    94   47   48 1    
    95   47   49 1    
    96   47  170 1    
    97   48  171 1    
    98   48  172 1    
    99   48  173 1    
   100   49   50 am   BACKBONE|DICT|INTERRES
   101   49  174 1    
   102   50   51 2    
   103   50   52 1    
   104   52   53 1    
   105   52   54 1    
   106   52  175 1    
   107   53  176 1    
   108   53  177 1    
   109   53  178 1    
   110   54   55 am   BACKBONE|DICT|INTERRES
   111   54  179 1    
   112   55   56 2    
   113   55   57 1    
   114   57   58 1    
   115   57   59 1    
   116   57  180 1    
   117   58  181 1    
   118   58  182 1    
   119   58  183 1    
   120   59   60 am   BACKBONE|DICT|INTERRES
   121   59  184 1    
   122   60   61 2    
   123   60   62 1    
   124   62   63 1    
   125   62   64 1    
   126   62  185 1    
   127   63  186 1    
   128   63  187 1    
   129   63  188 1    
   130   64   65 am   BACKBONE|DICT|INTERRES
   131   64  189 1    
   132   65   66 2    
   133   67   68 2    
   134   67   69 am   BACKBONE|DICT|INTERRES
   135   69   70 1    
   136   69  190 1    
   137   70   71 1    
   138   70   72 1    
   139   70  191 1    
   140   71  192 1    
   141   71  193 1    
   142   71  194 1    
   143   72   73 2    
   144   72   74 am   BACKBONE|DICT|INTERRES
   145   74   75 1    
   146   74  195 1    
   147   75   76 1    
   148   75   77 1    
   149   75  196 1    
   150   76  197 1    
   151   76  198 1    
   152   76  199 1    
   153   77   78 2    
   154   77   79 am   BACKBONE|DICT|INTERRES
   155   79   80 1    
   156   79  200 1    
   157   80   81 1    
   158   80   82 1    
   159   80  201 1    
   160   81  202 1    
   161   81  203 1    
   162   81  204 1    
   163   82   83 2    
   164   82   84 am   BACKBONE|DICT|INTERRES
   165   84   85 1    
   166   84  205 1    
   167   85   86 1    
   168   85   87 1    
   169   85  206 1    
   170   86  207 1    
   171   86  208 1    
   172   86  209 1    
   173   87   88 2    
   174   87   89 am   BACKBONE|DICT|INTERRES
   175   89   90 1    
   176   89  210 1    
   177   90   91 1    
   178   90   92 1    
   179   90  211 1    
   180   91  212 1    
   181   91  213 1    
   182   91  214 1    
   183   92   93 2    
   184   92   94 am   BACKBONE|DICT|INTERRES
   185   94   95 1    
   186   94  215 1    
   187   95   96 1    
   188   95   97 1    
   189   95  216 1    
   190   96  217 1    
   191   96  218 1    
   192   96  219 1    
   193   97   98 2    
   194   97   99 am   BACKBONE|DICT|INTERRES
   195   99  100 1    
   196   99  220 1    
   197  100  101 1    
   198  100  102 1    
   199  100  221 1    
   200  101  222 1    
   201  101  223 1    
   202  101  224 1    
   203  102  103 2    
   204  102  104 am   BACKBONE|DICT|INTERRES
   205  104  105 1    
   206  104  225 1    
   207  105  106 1    
   208  105  107 1    
   209  105  226 1    
   210  106  227 1    
   211  106  228 1    
   212  106  229 1    
   213  107  108 2    
   214  107  109 am   BACKBONE|DICT|INTERRES
   215  109  110 1    
   216  109  230 1    
   217  110  111 1    
   218  110  112 1    
   219  110  231 1    
   220  111  232 1    
   221  111  233 1    
   222  111  234 1    
   223  112  113 2    
   224  112  114 am   BACKBONE|DICT|INTERRES
   225  114  115 1    
   226  114  235 1    
   227  115  116 1    
   228  115  117 1    
   229  115  236 1    
   230  116  237 1    
   231  116  238 1    
   232  116  239 1    
   233  117  118 2    
   234  117  119 am   BACKBONE|DICT|INTERRES
   235  119  120 1    
   236  119  240 1    
   237  120  121 1    
   238  120  124 1    
   239  120  241 1    
   240  121  122 am   BACKBONE|DICT|INTERRES
   241  121  123 2    
   242  122  242 1    
   243  122  243 1    
   244  124  125 1    
   245  124  244 1    
   246  124  245 1    
   247  125  126 1    
   248  126  246 1    
   249  126  247 1    
@<TRIPOS>SUBSTRUCTURE
     1 UNK         1 GROUP             0       ****    0 ROOT    
