@<TRIPOS>MOLECULE
3R540
247   249    1
SMALL
USER_CHARGES


@<TRIPOS>ATOM
      1 CA          4.5136  -11.3896  -51.9882 C.3       0 UNK        -0.1800 
      2 C           3.4191  -12.4473  -51.9800 C.2       0 UNK         0.5000 
      3 O           2.4345  -12.3125  -52.7061 O.2       0 UNK        -0.5000 
      4 N           3.5902  -13.4954  -51.1614 N.am      1 UNK        -0.5000 
      5 CA          2.6554  -14.6169  -50.9834 C.3       1 UNK         0.1400 
      6 C6          2.4573  -15.4496  -52.2850 C.3       23 UNK        -0.0398 
      7 S7          2.2782  -17.2327  -51.9441 S.3       23 UNK        -0.2404 
      8 C8          3.9147  -17.8559  -52.4368 C.3       23 UNK        -0.0205 
      9 C9          4.1767  -19.2291  -51.8406 C.ar      23 UNK        -0.0193 
     10 C10         3.8872  -20.3921  -52.5608 C.ar      23 UNK        -0.1150 
     11 C11         4.1234  -21.6522  -51.9991 C.ar      23 UNK        -0.0193 
     12 C12         4.6591  -21.7402  -50.7106 C.ar      23 UNK        -0.1150 
     13 C13         4.9227  -20.5848  -49.9718 C.ar      23 UNK        -0.0193 
     14 C14         4.6994  -19.3327  -50.5501 C.ar      23 UNK        -0.1150 
     15 C15         5.4139  -20.6849  -48.5351 C.3       23 UNK        -0.0205 
     16 S16         4.1151  -21.2780  -47.3968 S.3       23 UNK        -0.2404 
     17 C17         2.7304  -20.1363  -47.7360 C.3       23 UNK        -0.0398 
     18 CA          1.4796  -20.8894  -48.2655 C.3       11 UNK         0.1400 
     19 N           0.5339  -21.1757  -47.1805 N.am      11 UNK        -0.5000 
     20 C          -0.5742  -21.9229  -47.2875 C.2       10 UNK         0.5000 
     21 O          -0.8774  -22.5547  -48.2966 O.2       10 UNK        -0.5000 
     22 CA         -1.5228  -21.9220  -46.0760 C.3       10 UNK         0.1400 
     23 CB         -1.0755  -22.9327  -45.0097 C.3       10 UNK        -0.1800 
     24 N          -1.6198  -20.5870  -45.4855 N.am      10 UNK        -0.5000 
     25 C          -2.4107  -19.6168  -45.9626 C.2       9 UNK         0.5000 
     26 O          -3.2405  -19.7954  -46.8559 O.2       9 UNK        -0.5000 
     27 CA         -2.2714  -18.2136  -45.3401 C.3       9 UNK         0.1400 
     28 CB         -3.3449  -17.9762  -44.2686 C.3       9 UNK        -0.1800 
     29 N          -0.9602  -17.9465  -44.7511 N.am      9 UNK        -0.5000 
     30 C           0.1960  -17.8572  -45.4193 C.2       8 UNK         0.5000 
     31 O           0.2858  -17.9560  -46.6385 O.2       8 UNK        -0.5000 
     32 CA          1.4733  -17.7066  -44.5739 C.3       8 UNK         0.1400 
     33 CB          1.7180  -16.2417  -44.1881 C.3       8 UNK        -0.1800 
     34 N           1.4281  -18.5380  -43.3708 N.am      8 UNK        -0.5000 
     35 C           1.4213  -19.8788  -43.3772 C.2       7 UNK         0.5000 
     36 O           1.4770  -20.5546  -44.4047 O.2       7 UNK        -0.5000 
     37 CA          1.2747  -20.5728  -42.0110 C.3       7 UNK         0.1400 
     38 CB          2.6319  -20.6585  -41.2974 C.3       7 UNK        -0.1800 
     39 N           0.3118  -19.8874  -41.1467 N.am      7 UNK        -0.5000 
     40 C          -1.0124  -19.8732  -41.3580 C.2       6 UNK         0.5000 
     41 O          -1.5644  -20.4931  -42.2667 O.2       6 UNK        -0.5000 
     42 CA         -1.8526  -18.9752  -40.4262 C.3       6 UNK         0.1400 
     43 CB         -2.2392  -19.7351  -39.1489 C.3       6 UNK        -0.1800 
     44 N          -1.1877  -17.7162  -40.0636 N.am      6 UNK        -0.5000 
     45 C          -0.8055  -16.7831  -40.9459 C.2       5 UNK         0.5000 
     46 O          -0.9656  -16.9039  -42.1609 O.2       5 UNK        -0.5000 
     47 CA         -0.0692  -15.5493  -40.3873 C.3       5 UNK         0.1400 
     48 CB          1.3309  -15.9432  -39.8875 C.3       5 UNK        -0.1800 
     49 N           0.0860  -14.5061  -41.4036 N.am      5 UNK        -0.5000 
     50 C          -0.8958  -13.7165  -41.8578 C.2       4 UNK         0.5000 
     51 O          -2.0271  -13.6904  -41.3710 O.2       4 UNK        -0.5000 
     52 CA         -0.5511  -12.8027  -43.0536 C.3       4 UNK         0.1400 
     53 CB          0.9091  -12.3102  -43.0409 C.3       4 UNK        -0.1800 
     54 N          -0.8093  -13.4730  -44.3283 N.am      4 UNK        -0.5000 
     55 C          -2.0184  -13.6970  -44.8570 C.2       3 UNK         0.5000 
     56 O          -3.0699  -13.2970  -44.3553 O.2       3 UNK        -0.5000 
     57 CA         -2.0416  -14.4508  -46.2026 C.3       3 UNK         0.1400 
     58 CB         -3.4638  -14.8481  -46.6363 C.3       3 UNK        -0.1800 
     59 N          -1.4382  -13.6546  -47.2696 N.am      3 UNK        -0.5000 
     60 C          -0.1274  -13.5675  -47.5174 C.2       2 UNK         0.5000 
     61 O           0.7338  -14.1458  -46.8511 O.2       2 UNK        -0.5000 
     62 CA          0.2897  -12.6330  -48.6655 C.3       2 UNK         0.1400 
     63 CB          0.6821  -11.2535  -48.1143 C.3       2 UNK        -0.1800 
     64 N           1.4161  -13.1798  -49.4189 N.am      2 UNK        -0.5000 
     65 C           1.3287  -14.1764  -50.3117 C.2       1 UNK         0.5000 
     66 O           0.2635  -14.7151  -50.6160 O.2       1 UNK        -0.5000 
     67 C           0.8035  -20.1355  -49.4339 C.2       11 UNK         0.5000 
     68 O           1.0662  -20.4538  -50.5927 O.2       11 UNK        -0.5000 
     69 N          -0.0956  -19.1936  -49.1139 N.am      12 UNK        -0.5000 
     70 CA         -0.9373  -18.4232  -50.0322 C.3       12 UNK         0.1400 
     71 CB         -1.5393  -17.2293  -49.2690 C.3       12 UNK        -0.1800 
     72 C          -2.0239  -19.2759  -50.7252 C.2       12 UNK         0.5000 
     73 O          -3.2092  -18.9431  -50.6696 O.2       12 UNK        -0.5000 
     74 N          -1.6007  -20.3495  -51.4007 N.am      13 UNK        -0.5000 
     75 CA         -2.4348  -21.3109  -52.1222 C.3       13 UNK         0.1400 
     76 CB         -1.5336  -22.4388  -52.6424 C.3       13 UNK        -0.1800 
     77 C          -3.2453  -20.6898  -53.2756 C.2       13 UNK         0.5000 
     78 O          -4.3222  -21.1908  -53.5966 O.2       13 UNK        -0.5000 
     79 N          -2.7281  -19.5961  -53.8548 N.am      14 UNK        -0.5000 
     80 CA         -3.3965  -18.7936  -54.8800 C.3       14 UNK         0.1400 
     81 CB         -2.3804  -17.8212  -55.4981 C.3       14 UNK        -0.1800 
     82 C          -4.6194  -18.0275  -54.3379 C.2       14 UNK         0.5000 
     83 O          -5.6032  -17.8704  -55.0619 O.2       14 UNK        -0.5000 
     84 N          -4.5435  -17.5802  -53.0760 N.am      15 UNK        -0.5000 
     85 CA         -5.6626  -16.9802  -52.3467 C.3       15 UNK         0.1400 
     86 CB         -5.1169  -16.0514  -51.2493 C.3       15 UNK        -0.1800 
     87 C          -6.5720  -18.0599  -51.7326 C.2       15 UNK         0.5000 
     88 O          -7.7801  -17.8478  -51.6261 O.2       15 UNK        -0.5000 
     89 N          -5.9609  -19.1892  -51.3444 N.am      16 UNK        -0.5000 
     90 CA         -6.5474  -20.3563  -50.6846 C.3       16 UNK         0.1400 
     91 CB         -7.5641  -21.0678  -51.6010 C.3       16 UNK        -0.1800 
     92 C          -7.1071  -20.0110  -49.2902 C.2       16 UNK         0.5000 
     93 O          -8.1884  -20.4737  -48.9226 O.2       16 UNK        -0.5000 
     94 N          -6.3741  -19.1569  -48.5614 N.am      17 UNK        -0.5000 
     95 CA         -6.8190  -18.5291  -47.3190 C.3       17 UNK         0.1400 
     96 CB         -5.8835  -17.3629  -46.9729 C.3       17 UNK        -0.1800 
     97 C          -6.9818  -19.5144  -46.1473 C.2       17 UNK         0.5000 
     98 O          -8.0352  -19.5064  -45.5084 O.2       17 UNK        -0.5000 
     99 N          -5.9650  -20.3523  -45.9007 N.am      18 UNK        -0.5000 
    100 CA        -6.0179  -21.4246  -44.8974 C.3       18 UNK         0.1400 
    101 CB        -4.9614  -21.1870  -43.8073 C.3       18 UNK        -0.1800 
    102 C         -5.8532  -22.8211  -45.5198 C.2       18 UNK         0.5000 
    103 O         -6.2663  -23.8003  -44.8970 O.2       18 UNK        -0.5000 
    104 N         -5.2844  -22.9071  -46.7280 N.am      19 UNK        -0.5000 
    105 CA        -5.1506  -24.1375  -47.5002 C.3       19 UNK         0.1400 
    106 CB        -3.9189  -24.9361  -47.0378 C.3       19 UNK        -0.1800 
    107 C         -5.0381  -23.7619  -48.9804 C.2       19 UNK         0.5000 
    108 O         -4.4400  -22.7341  -49.2980 O.2       19 UNK        -0.5000 
    109 N         -5.6059  -24.6007  -49.8543 N.am      20 UNK        -0.5000 
    110 CA        -5.6108  -24.4214  -51.3107 C.3       20 UNK         0.1400 
    111 CB        -6.8941  -25.0526  -51.8751 C.3       20 UNK        -0.1800 
    112 C         -4.3600  -25.0030  -52.0027 C.2       20 UNK         0.5000 
    113 O         -4.2495  -24.9147  -53.2257 O.2       20 UNK        -0.5000 
    114 N         -3.4480  -25.5904  -51.2229 N.am      21 UNK        -0.5000 
    115 CA        -2.1495  -26.0965  -51.6459 C.3       21 UNK         0.1400 
    116 CB        -2.2255  -27.6210  -51.8249 C.3       21 UNK        -0.1800 
    117 C         -1.1311  -25.7127  -50.5654 C.2       21 UNK         0.5000 
    118 O         -1.5065  -25.5947  -49.3970 O.2       21 UNK        -0.5000 
    119 N          0.1283  -25.5316  -50.9773 N.am      22 UNK        -0.5000 
    120 CA         1.2288  -25.0126  -50.1444 C.3       22 UNK         0.1400 
    121 C          1.6506  -25.9055  -48.9382 C.2       22 UNK         0.5000 
    122 N          1.2579  -27.1718  -48.8736 N.am      22 UNK        -0.7600 
    123 O          2.3559  -25.4403  -48.0476 O.2       22 UNK        -0.5000 
    124 C124        2.4747  -24.6644  -50.9997 C.3       23 UNK        -0.0398 
    125 S125        2.1261  -23.5394  -52.3963 S.3       23 UNK        -0.2404 
    126 C126        3.7931  -22.9131  -52.7846 C.3       23 UNK        -0.0205 
    127 H127        4.1039  -10.4240  -51.6916 H         1 UNK         0.0600 
    128 H128        4.9319  -11.2905  -52.9899 H         1 UNK         0.0600 
    129 H129        5.3252  -11.6391  -51.3042 H         1 UNK         0.0600 
    130 H130        4.4277  -13.5400  -50.5971 H         1 UNK         0.3000 
    131 H131        3.1460  -15.2570  -50.2482 H         1 UNK         0.0600 
    132 H132        1.5947  -15.1030  -52.8567 H         1 UNK         0.0800 
    133 H133        3.3095  -15.3178  -52.9530 H         1 UNK         0.0800 
    134 H134        3.9774  -17.8923  -53.5254 H         1 UNK         0.0800 
    135 H135        4.6890  -17.1628  -52.1038 H         1 UNK         0.0800 
    136 H136        3.4656  -20.3164  -53.5531 H         1 UNK         0.1150 
    137 H137        4.8488  -22.7052  -50.2649 H         1 UNK         0.1150 
    138 H138        4.9035  -18.4342  -49.9848 H         1 UNK         0.1150 
    139 H139        6.2642  -21.3667  -48.4901 H         1 UNK         0.0800 
    140 H140        5.7784  -19.7185  -48.1835 H         1 UNK         0.0800 
    141 H141        3.0601  -19.3542  -48.4192 H         1 UNK         0.0800 
    142 H142        2.5026  -19.6079  -46.8124 H         1 UNK         0.0800 
    143 H143        1.7906  -21.8517  -48.6788 H         1 UNK         0.0600 
    144 H144        0.7391  -20.7474  -46.2845 H         1 UNK         0.3000 
    145 H145       -2.5111  -22.2243  -46.4260 H         1 UNK         0.0600 
    146 H146       -1.7689  -22.9480  -44.1684 H         1 UNK         0.0600 
    147 H147       -1.0408  -23.9413  -45.4232 H         1 UNK         0.0600 
    148 H148       -0.0833  -22.7035  -44.6213 H         1 UNK         0.0600 
    149 H149       -1.0053  -20.3797  -44.7101 H         1 UNK         0.3000 
    150 H150       -2.4293  -17.4978  -46.1458 H         1 UNK         0.0600 
    151 H151       -4.3454  -18.1711  -44.6522 H         1 UNK         0.0600 
    152 H152       -3.3263  -16.9456  -43.9135 H         1 UNK         0.0600 
    153 H153       -3.1958  -18.6253  -43.4067 H         1 UNK         0.0600 
    154 H154       -0.9443  -17.7804  -43.7462 H         1 UNK         0.3000 
    155 H155        2.3235  -18.0356  -45.1727 H         1 UNK         0.0600 
    156 H156        0.8441  -15.7984  -43.7154 H         1 UNK         0.0600 
    157 H157        1.9470  -15.6474  -45.0722 H         1 UNK         0.0600 
    158 H158        2.5624  -16.1427  -43.5061 H         1 UNK         0.0600 
    159 H159        1.3182  -18.0582  -42.4911 H         1 UNK         0.3000 
    160 H160        0.9173  -21.5894  -42.1892 H         1 UNK         0.0600 
    161 H161        3.0339  -19.6702  -41.0705 H         1 UNK         0.0600 
    162 H162        3.3652  -21.1772  -41.9165 H         1 UNK         0.0600 
    163 H163        2.5501  -21.2107  -40.3611 H         1 UNK         0.0600 
    164 H164        0.6829  -19.3597  -40.3708 H         1 UNK         0.3000 
    165 H165       -2.7709  -18.7211  -40.9593 H         1 UNK         0.0600 
    166 H166       -2.9130  -19.1450  -38.5274 H         1 UNK         0.0600 
    167 H167       -2.7538  -20.6664  -39.3897 H         1 UNK         0.0600 
    168 H168       -1.3640  -19.9888  -38.5496 H         1 UNK         0.0600 
    169 H169       -1.0196  -17.5622  -39.0798 H         1 UNK         0.3000 
    170 H170       -0.6481  -15.1491  -39.5525 H         1 UNK         0.0600 
    171 H171        1.2749  -16.6835  -39.0887 H         1 UNK         0.0600 
    172 H172        1.9412  -16.3668  -40.6862 H         1 UNK         0.0600 
    173 H173        1.8612  -15.0797  -39.4852 H         1 UNK         0.0600 
    174 H174        0.9823  -14.4634  -41.8632 H         1 UNK         0.3000 
    175 H175       -1.1960  -11.9240  -42.9844 H         1 UNK         0.0600 
    176 H176        1.6200  -13.1158  -43.2282 H         1 UNK         0.0600 
    177 H177        1.0676  -11.5509  -43.8070 H         1 UNK         0.0600 
    178 H178        1.1626  -11.8564  -42.0818 H         1 UNK         0.0600 
    179 H179       -0.0028  -13.7979  -44.8483 H         1 UNK         0.3000 
    180 H180       -1.4629  -15.3662  -46.0718 H         1 UNK         0.0600 
    181 H181       -4.0860  -13.9745  -46.8341 H         1 UNK         0.0600 
    182 H182       -3.9594  -15.4317  -45.8604 H         1 UNK         0.0600 
    183 H183       -3.4448  -15.4559  -47.5409 H         1 UNK         0.0600 
    184 H184       -2.0781  -13.1109  -47.8305 H         1 UNK         0.3000 
    185 H185       -0.5547  -12.5056  -49.3465 H         1 UNK         0.0600 
    186 H186        0.9506  -10.5687  -48.9190 H         1 UNK         0.0600 
    187 H187       -0.1458  -10.8015  -47.5663 H         1 UNK         0.0600 
    188 H188        1.5301  -11.3186  -47.4311 H         1 UNK         0.0600 
    189 H189        2.3274  -12.8036  -49.2044 H         1 UNK         0.3000 
    190 H190       -0.1798  -18.9426  -48.1324 H         1 UNK         0.3000 
    191 H191       -0.2979  -18.0229  -50.8192 H         1 UNK         0.0600 
    192 H192       -2.0821  -16.5669  -49.9440 H         1 UNK         0.0600 
    193 H193       -0.7641  -16.6302  -48.7908 H         1 UNK         0.0600 
    194 H194       -2.2358  -17.5582  -48.4982 H         1 UNK         0.0600 
    195 H195       -0.6039  -20.5524  -51.3561 H         1 UNK         0.3000 
    196 H196       -3.1454  -21.7344  -51.4107 H         1 UNK         0.0600 
    197 H197       -0.7616  -22.0600  -53.3133 H         1 UNK         0.0600 
    198 H198       -1.0362  -22.9493  -51.8180 H         1 UNK         0.0600 
    199 H199       -2.1094  -23.1829  -53.1925 H         1 UNK         0.0600 
    200 H200       -1.8284  -19.2698  -53.5342 H         1 UNK         0.3000 
    201 H201       -3.7468  -19.4677  -55.6646 H         1 UNK         0.0600 
    202 H202       -1.5455  -18.3573  -55.9499 H         1 UNK         0.0600 
    203 H203       -1.9755  -17.1334  -54.7545 H         1 UNK         0.0600 
    204 H204       -2.8426  -17.2210  -56.2830 H         1 UNK         0.0600 
    205 H205       -3.7155  -17.7872  -52.5348 H         1 UNK         0.3000 
    206 H206       -6.2629  -16.3792  -53.0330 H         1 UNK         0.0600 
    207 H207       -4.4761  -15.2765  -51.6701 H         1 UNK         0.0600 
    208 H208       -5.9314  -15.5508  -50.7244 H         1 UNK         0.0600 
    209 H209       -4.5380  -16.5973  -50.5040 H         1 UNK         0.0600 
    210 H210       -4.9464  -19.1993  -51.3944 H         1 UNK         0.3000 
    211 H211       -5.7180  -21.0398  -50.5279 H         1 UNK         0.0600 
    212 H212       -7.8995  -22.0048  -51.1555 H         1 UNK         0.0600 
    213 H213       -7.1197  -21.3086  -52.5669 H         1 UNK         0.0600 
    214 H214       -8.4487  -20.4565  -51.7802 H         1 UNK         0.0600 
    215 H215       -5.4836  -18.8542  -48.9310 H         1 UNK         0.3000 
    216 H216       -7.8061  -18.1017  -47.5090 H         1 UNK         0.0600 
    217 H217       -4.8424  -17.6784  -46.9359 H         1 UNK         0.0600 
    218 H218       -6.1368  -16.9254  -46.0064 H         1 UNK         0.0600 
    219 H219       -5.9591  -16.5696  -47.7169 H         1 UNK         0.0600 
    220 H220       -5.1049  -20.2518  -46.4321 H         1 UNK         0.3000 
    221 H221       -6.9909  -21.4328  -44.4024 H         1 UNK         0.0600 
    222 H222       -5.0893  -20.2120  -43.3387 H         1 UNK         0.0600 
    223 H223       -3.9486  -21.2498  -44.1991 H         1 UNK         0.0600 
    224 H224       -5.0444  -21.9350  -43.0180 H         1 UNK         0.0600 
    225 H225       -4.9828  -22.0745  -47.2172 H         1 UNK         0.3000 
    226 H226       -6.0483  -24.7442  -47.3616 H         1 UNK         0.0600 
    227 H227       -2.9919  -24.3973  -47.2355 H         1 UNK         0.0600 
    228 H228       -3.9589  -25.1558  -45.9710 H         1 UNK         0.0600 
    229 H229       -3.8548  -25.8895  -47.5630 H         1 UNK         0.0600 
    230 H230       -6.0674  -25.4309  -49.5097 H         1 UNK         0.3000 
    231 H231       -5.6303  -23.3547  -51.5424 H         1 UNK         0.0600 
    232 H232       -6.9218  -26.1294  -51.7040 H         1 UNK         0.0600 
    233 H233       -6.9725  -24.8884  -52.9506 H         1 UNK         0.0600 
    234 H234       -7.7826  -24.6163  -51.4182 H         1 UNK         0.0600 
    235 H235       -3.5694  -25.5574  -50.2192 H         1 UNK         0.3000 
    236 H236       -1.8507  -25.6325  -52.5882 H         1 UNK         0.0600 
    237 H237       -2.9587  -27.8910  -52.5852 H         1 UNK         0.0600 
    238 H238       -1.2639  -28.0265  -52.1416 H         1 UNK         0.0600 
    239 H239       -2.5058  -28.1214  -50.8970 H         1 UNK         0.0600 
    240 H240        0.3510  -25.6636  -51.9530 H         1 UNK         0.3000 
    241 H241        0.8671  -24.0801  -49.7075 H         1 UNK         0.0600 
    242 H242        1.5359  -27.7386  -48.0881 H         1 UNK         0.3800 
    243 H243        0.6646  -27.5605  -49.5885 H         1 UNK         0.3800 
    244 H244        2.9242  -25.5736  -51.4028 H         1 UNK         0.0800 
    245 H245        3.2326  -24.2055  -50.3664 H         1 UNK         0.0800 
    246 H246        3.8436  -22.7033  -53.8541 H         1 UNK         0.0800 
    247 H247        4.5393  -23.6861  -52.5947 H         1 UNK         0.0800 
@<TRIPOS>BOND
     1    1    2 1    
     2    1  127 1    
     3    1  128 1    
     4    1  129 1    
     5    2    3 2    
     6    2    4 am   BACKBONE|DICT|INTERRES
     7    4    5 1    
     8    4  130 1    
     9    5    6 1    
    10    5   65 1    
    11    5  131 1    
    12    6    7 1    
    13    6  132 1    
    14    6  133 1    
    15    7    8 1    
    16    8    9 1    
    17    8  134 1    
    18    8  135 1    
    19    9   10 ar   
    20    9   14 ar   
    21   10   11 ar   
    22   10  136 1    
    23   11   12 ar   
    24   11  126 1    
    25   12   13 ar   
    26   12  137 1    
    27   13   14 ar   
    28   13   15 1    
    29   14  138 1    
    30   15   16 1    
    31   15  139 1    
    32   15  140 1    
    33   16   17 1    
    34   17   18 1    
    35   17  141 1    
    36   17  142 1    
    37   18   19 1    
    38   18   67 1    
    39   18  143 1    
    40   19   20 am   BACKBONE|DICT|INTERRES
    41   19  144 1    
    42   20   21 2    
    43   20   22 1    
    44   22   23 1    
    45   22   24 1    
    46   22  145 1    
    47   23  146 1    
    48   23  147 1    
    49   23  148 1    
    50   24   25 am   BACKBONE|DICT|INTERRES
    51   24  149 1    
    52   25   26 2    
    53   25   27 1    
    54   27   28 1    
    55   27   29 1    
    56   27  150 1    
    57   28  151 1    
    58   28  152 1    
    59   28  153 1    
    60   29   30 am   BACKBONE|DICT|INTERRES
    61   29  154 1    
    62   30   31 2    
    63   30   32 1    
    64   32   33 1    
    65   32   34 1    
    66   32  155 1    
    67   33  156 1    
    68   33  157 1    
    69   33  158 1    
    70   34   35 am   BACKBONE|DICT|INTERRES
    71   34  159 1    
    72   35   36 2    
    73   35   37 1    
    74   37   38 1    
    75   37   39 1    
    76   37  160 1    
    77   38  161 1    
    78   38  162 1    
    79   38  163 1    
    80   39   40 am   BACKBONE|DICT|INTERRES
    81   39  164 1    
    82   40   41 2    
    83   40   42 1    
    84   42   43 1    
    85   42   44 1    
    86   42  165 1    
    87   43  166 1    
    88   43  167 1    
    89   43  168 1    
    90   44   45 am   BACKBONE|DICT|INTERRES
    91   44  169 1    
    92   45   46 2    
    93   45   47 1    
    94   47   48 1    
    95   47   49 1    
    96   47  170 1    
    97   48  171 1    
    98   48  172 1    
    99   48  173 1    
   100   49   50 am   BACKBONE|DICT|INTERRES
   101   49  174 1    
   102   50   51 2    
   103   50   52 1    
   104   52   53 1    
   105   52   54 1    
   106   52  175 1    
   107   53  176 1    
   108   53  177 1    
   109   53  178 1    
   110   54   55 am   BACKBONE|DICT|INTERRES
   111   54  179 1    
   112   55   56 2    
   113   55   57 1    
   114   57   58 1    
   115   57   59 1    
   116   57  180 1    
   117   58  181 1    
   118   58  182 1    
   119   58  183 1    
   120   59   60 am   BACKBONE|DICT|INTERRES
   121   59  184 1    
   122   60   61 2    
   123   60   62 1    
   124   62   63 1    
   125   62   64 1    
   126   62  185 1    
   127   63  186 1    
   128   63  187 1    
   129   63  188 1    
   130   64   65 am   BACKBONE|DICT|INTERRES
   131   64  189 1    
   132   65   66 2    
   133   67   68 2    
   134   67   69 am   BACKBONE|DICT|INTERRES
   135   69   70 1    
   136   69  190 1    
   137   70   71 1    
   138   70   72 1    
   139   70  191 1    
   140   71  192 1    
   141   71  193 1    
   142   71  194 1    
   143   72   73 2    
   144   72   74 am   BACKBONE|DICT|INTERRES
   145   74   75 1    
   146   74  195 1    
   147   75   76 1    
   148   75   77 1    
   149   75  196 1    
   150   76  197 1    
   151   76  198 1    
   152   76  199 1    
   153   77   78 2    
   154   77   79 am   BACKBONE|DICT|INTERRES
   155   79   80 1    
   156   79  200 1    
   157   80   81 1    
   158   80   82 1    
   159   80  201 1    
   160   81  202 1    
   161   81  203 1    
   162   81  204 1    
   163   82   83 2    
   164   82   84 am   BACKBONE|DICT|INTERRES
   165   84   85 1    
   166   84  205 1    
   167   85   86 1    
   168   85   87 1    
   169   85  206 1    
   170   86  207 1    
   171   86  208 1    
   172   86  209 1    
   173   87   88 2    
   174   87   89 am   BACKBONE|DICT|INTERRES
   175   89   90 1    
   176   89  210 1    
   177   90   91 1    
   178   90   92 1    
   179   90  211 1    
   180   91  212 1    
   181   91  213 1    
   182   91  214 1    
   183   92   93 2    
   184   92   94 am   BACKBONE|DICT|INTERRES
   185   94   95 1    
   186   94  215 1    
   187   95   96 1    
   188   95   97 1    
   189   95  216 1    
   190   96  217 1    
   191   96  218 1    
   192   96  219 1    
   193   97   98 2    
   194   97   99 am   BACKBONE|DICT|INTERRES
   195   99  100 1    
   196   99  220 1    
   197  100  101 1    
   198  100  102 1    
   199  100  221 1    
   200  101  222 1    
   201  101  223 1    
   202  101  224 1    
   203  102  103 2    
   204  102  104 am   BACKBONE|DICT|INTERRES
   205  104  105 1    
   206  104  225 1    
   207  105  106 1    
   208  105  107 1    
   209  105  226 1    
   210  106  227 1    
   211  106  228 1    
   212  106  229 1    
   213  107  108 2    
   214  107  109 am   BACKBONE|DICT|INTERRES
   215  109  110 1    
   216  109  230 1    
   217  110  111 1    
   218  110  112 1    
   219  110  231 1    
   220  111  232 1    
   221  111  233 1    
   222  111  234 1    
   223  112  113 2    
   224  112  114 am   BACKBONE|DICT|INTERRES
   225  114  115 1    
   226  114  235 1    
   227  115  116 1    
   228  115  117 1    
   229  115  236 1    
   230  116  237 1    
   231  116  238 1    
   232  116  239 1    
   233  117  118 2    
   234  117  119 am   BACKBONE|DICT|INTERRES
   235  119  120 1    
   236  119  240 1    
   237  120  121 1    
   238  120  124 1    
   239  120  241 1    
   240  121  122 am   BACKBONE|DICT|INTERRES
   241  121  123 2    
   242  122  242 1    
   243  122  243 1    
   244  124  125 1    
   245  124  244 1    
   246  124  245 1    
   247  125  126 1    
   248  126  246 1    
   249  126  247 1    
@<TRIPOS>SUBSTRUCTURE
     1 UNK         1 GROUP             0       ****    0 ROOT    
