@<TRIPOS>MOLECULE
3R540
247   249    1
SMALL
USER_CHARGES


@<TRIPOS>ATOM
      1 CA          1.2210   -8.6240  -46.1429 C.3       0 UNK        -0.1800 
      2 C           2.0069   -9.8298  -46.6368 C.2       0 UNK         0.5000 
      3 O           3.1566   -9.6839  -47.0540 O.2       0 UNK        -0.5000 
      4 N           1.4053  -11.0242  -46.5773 N.am      1 UNK        -0.5000 
      5 CA          2.0258  -12.3030  -46.9369 C.3       1 UNK         0.1400 
      6 C6          0.9687  -13.3279  -47.4220 C.3       23 UNK        -0.0398 
      7 S7          1.7320  -14.7239  -48.3223 S.3       23 UNK        -0.2404 
      8 C8          0.7964  -14.8010  -49.8825 C.3       23 UNK        -0.0205 
      9 C9          0.0815  -16.1358  -50.0303 C.ar      23 UNK        -0.0193 
     10 C10        -1.2956  -16.2332  -49.8162 C.ar      23 UNK        -0.1150 
     11 C11        -1.9551  -17.4545  -49.9834 C.ar      23 UNK        -0.0193 
     12 C12        -1.2251  -18.5849  -50.3616 C.ar      23 UNK        -0.1150 
     13 C13         0.1562  -18.5044  -50.5746 C.ar      23 UNK        -0.0193 
     14 C14         0.7993  -17.2745  -50.4070 C.ar      23 UNK        -0.1150 
     15 C15         0.9698  -19.7169  -51.0231 C.3       23 UNK        -0.0205 
     16 S16         0.4853  -21.2866  -50.2322 S.3       23 UNK        -0.2404 
     17 C17         0.7089  -20.8723  -48.4702 C.3       23 UNK        -0.0398 
     18 CA          0.7673  -22.1011  -47.5304 C.3       11 UNK         0.1400 
     19 N           1.2297  -21.7075  -46.1976 N.am      11 UNK        -0.5000 
     20 C           1.5971  -22.5382  -45.2129 C.2       10 UNK         0.5000 
     21 O           1.6191  -23.7643  -45.3223 O.2       10 UNK        -0.5000 
     22 CA          1.9832  -21.8819  -43.8729 C.3       10 UNK         0.1400 
     23 CB          3.4468  -21.4150  -43.8887 C.3       10 UNK        -0.1800 
     24 N           1.1119  -20.7510  -43.5470 N.am      10 UNK        -0.5000 
     25 C          -0.1602  -20.8774  -43.1433 C.2       9 UNK         0.5000 
     26 O          -0.6955  -21.9611  -42.9111 O.2       9 UNK        -0.5000 
     27 CA         -0.9848  -19.5837  -42.9999 C.3       9 UNK         0.1400 
     28 CB         -0.8291  -18.9984  -41.5885 C.3       9 UNK        -0.1800 
     29 N          -0.6377  -18.5620  -43.9891 N.am      9 UNK        -0.5000 
     30 C          -0.8031  -18.6883  -45.3136 C.2       8 UNK         0.5000 
     31 O          -1.3034  -19.6758  -45.8471 O.2       8 UNK        -0.5000 
     32 CA         -0.2561  -17.5510  -46.1941 C.3       8 UNK         0.1400 
     33 CB         -1.2482  -16.3821  -46.2575 C.3       8 UNK        -0.1800 
     34 N           1.0536  -17.0850  -45.7335 N.am      8 UNK        -0.5000 
     35 C           2.1610  -17.8414  -45.7391 C.2       7 UNK         0.5000 
     36 O           2.1965  -18.9890  -46.1799 O.2       7 UNK        -0.5000 
     37 CA          3.4212  -17.2537  -45.0861 C.3       7 UNK         0.1400 
     38 CB          4.2882  -16.5069  -46.1088 C.3       7 UNK        -0.1800 
     39 N           3.0849  -16.3753  -43.9662 N.am      7 UNK        -0.5000 
     40 C           2.7752  -16.8243  -42.7420 C.2       6 UNK         0.5000 
     41 O           2.7878  -18.0162  -42.4312 O.2       6 UNK        -0.5000 
     42 CA          2.3389  -15.7765  -41.7006 C.3       6 UNK         0.1400 
     43 CB          3.5551  -15.1993  -40.9610 C.3       6 UNK        -0.1800 
     44 N           1.5386  -14.6911  -42.2766 N.am      6 UNK        -0.5000 
     45 C           0.3036  -14.8725  -42.7685 C.2       5 UNK         0.5000 
     46 O          -0.2384  -15.9773  -42.8046 O.2       5 UNK        -0.5000 
     47 CA         -0.4597  -13.6507  -43.3114 C.3       5 UNK         0.1400 
     48 CB         -1.9847  -13.7767  -43.1036 C.3       5 UNK        -0.1800 
     49 N           0.0110  -12.3927  -42.7339 N.am      5 UNK        -0.5000 
     50 C          -0.1483  -11.1968  -43.3156 C.2       4 UNK         0.5000 
     51 O          -0.6133  -11.0390  -44.4454 O.2       4 UNK        -0.5000 
     52 CA          0.3165   -9.9777  -42.5116 C.3       4 UNK         0.1400 
     53 CB         -0.5840   -9.7301  -41.2870 C.3       4 UNK        -0.1800 
     54 N           1.7019  -10.1807  -42.1150 N.am      4 UNK        -0.5000 
     55 C           2.5689   -9.2458  -41.7230 C.2       3 UNK         0.5000 
     56 O           2.2775   -8.0597  -41.5663 O.2       3 UNK        -0.5000 
     57 CA          4.0234   -9.7111  -41.5075 C.3       3 UNK         0.1400 
     58 CB          4.1812  -10.4632  -40.1713 C.3       3 UNK        -0.1800 
     59 N           4.5703  -10.4831  -42.6353 N.am      3 UNK        -0.5000 
     60 C           4.2087  -11.6959  -43.0777 C.2       2 UNK         0.5000 
     61 O           3.3341  -12.3875  -42.5496 O.2       2 UNK        -0.5000 
     62 CA          4.9042  -12.1755  -44.3635 C.3       2 UNK         0.1400 
     63 CB          5.5274  -13.5734  -44.2065 C.3       2 UNK        -0.1800 
     64 N           3.9924  -12.0982  -45.5082 N.am      2 UNK        -0.5000 
     65 C           2.8743  -12.8008  -45.7454 C.2       1 UNK         0.5000 
     66 O           2.4854  -13.7502  -45.0620 O.2       1 UNK        -0.5000 
     67 C          -0.5819  -22.8552  -47.4975 C.2       11 UNK         0.5000 
     68 O          -0.7920  -23.7290  -48.3355 O.2       11 UNK        -0.5000 
     69 N          -1.4535  -22.5253  -46.5318 N.am      12 UNK        -0.5000 
     70 CA         -2.8465  -22.9682  -46.3693 C.3       12 UNK         0.1400 
     71 CB         -3.4702  -22.2109  -45.1839 C.3       12 UNK        -0.1800 
     72 C          -3.1258  -24.4873  -46.2558 C.2       12 UNK         0.5000 
     73 O          -4.2765  -24.8604  -46.0186 O.2       12 UNK        -0.5000 
     74 N          -2.1213  -25.3470  -46.4625 N.am      13 UNK        -0.5000 
     75 CA         -2.2590  -26.7969  -46.6016 C.3       13 UNK         0.1400 
     76 CB         -0.8673  -27.4161  -46.7957 C.3       13 UNK        -0.1800 
     77 C          -3.1855  -27.1525  -47.7809 C.2       13 UNK         0.5000 
     78 O          -2.9964  -26.6327  -48.8845 O.2       13 UNK        -0.5000 
     79 N          -4.2056  -27.9784  -47.5073 N.am      14 UNK        -0.5000 
     80 CA         -5.2984  -28.3462  -48.4191 C.3       14 UNK         0.1400 
     81 CB         -4.7757  -29.2559  -49.5511 C.3       14 UNK        -0.1800 
     82 C          -6.0752  -27.1182  -48.9480 C.2       14 UNK         0.5000 
     83 O          -6.4626  -27.0904  -50.1168 O.2       14 UNK        -0.5000 
     84 N          -6.2403  -26.1019  -48.0858 N.am      15 UNK        -0.5000 
     85 CA         -6.8149  -24.7827  -48.3744 C.3       15 UNK         0.1400 
     86 CB         -8.3187  -24.8957  -48.7033 C.3       15 UNK        -0.1800 
     87 C          -6.0153  -24.0201  -49.4522 C.2       15 UNK         0.5000 
     88 O          -6.6054  -23.4202  -50.3497 O.2       15 UNK        -0.5000 
     89 N          -4.6793  -24.0978  -49.3599 N.am      16 UNK        -0.5000 
     90 CA         -3.6921  -23.5804  -50.3147 C.3       16 UNK         0.1400 
     91 CB         -3.7206  -22.0382  -50.3763 C.3       16 UNK        -0.1800 
     92 C          -3.8358  -24.2543  -51.6911 C.2       16 UNK         0.5000 
     93 O          -3.9008  -23.5713  -52.7158 O.2       16 UNK        -0.5000 
     94 N          -3.9232  -25.5933  -51.6632 N.am      17 UNK        -0.5000 
     95 CA         -4.1823  -26.4885  -52.7953 C.3       17 UNK         0.1400 
     96 CB         -2.9677  -26.5122  -53.7471 C.3       17 UNK        -0.1800 
     97 C          -5.5050  -26.1452  -53.5128 C.2       17 UNK         0.5000 
     98 O          -5.5156  -25.9425  -54.7264 O.2       17 UNK        -0.5000 
     99 N          -6.5906  -26.0322  -52.7331 N.am      18 UNK        -0.5000 
    100 CA        -7.9243  -25.5725  -53.1426 C.3       18 UNK         0.1400 
    101 CB        -8.6127  -26.6267  -54.0336 C.3       18 UNK        -0.1800 
    102 C         -7.8843  -24.1663  -53.7823 C.2       18 UNK         0.5000 
    103 O         -8.4656  -23.9415  -54.8452 O.2       18 UNK        -0.5000 
    104 N         -7.1484  -23.2630  -53.1217 N.am      19 UNK        -0.5000 
    105 CA        -6.8329  -21.8807  -53.4863 C.3       19 UNK         0.1400 
    106 CB        -8.1122  -21.0255  -53.5789 C.3       19 UNK        -0.1800 
    107 C         -5.9338  -21.7115  -54.7295 C.2       19 UNK         0.5000 
    108 O         -5.6651  -20.5697  -55.1061 O.2       19 UNK        -0.5000 
    109 N         -5.4444  -22.8045  -55.3344 N.am      20 UNK        -0.5000 
    110 CA        -4.5956  -22.7679  -56.5287 C.3       20 UNK         0.1400 
    111 CB        -4.4711  -24.1747  -57.1299 C.3       20 UNK        -0.1800 
    112 C         -3.2001  -22.1701  -56.2735 C.2       20 UNK         0.5000 
    113 O         -2.6423  -21.5490  -57.1793 O.2       20 UNK        -0.5000 
    114 N         -2.6650  -22.3478  -55.0567 N.am      21 UNK        -0.5000 
    115 CA        -1.3967  -21.7469  -54.6392 C.3       21 UNK         0.1400 
    116 CB        -0.7858  -22.5760  -53.4997 C.3       21 UNK        -0.1800 
    117 C         -1.5677  -20.2744  -54.2193 C.2       21 UNK         0.5000 
    118 O         -0.6304  -19.4907  -54.3714 O.2       21 UNK        -0.5000 
    119 N         -2.7566  -19.9284  -53.7090 N.am      22 UNK        -0.5000 
    120 CA        -3.1401  -18.5634  -53.3233 C.3       22 UNK         0.1400 
    121 C         -3.4925  -17.6677  -54.5438 C.2       22 UNK         0.5000 
    122 N         -4.2457  -18.1651  -55.5167 N.am      22 UNK        -0.7600 
    123 O         -3.0657  -16.5190  -54.6208 O.2       22 UNK        -0.5000 
    124 C124       -4.2773  -18.5935  -52.2697 C.3       23 UNK        -0.0398 
    125 S125       -4.3866  -17.0773  -51.2586 S.3       23 UNK        -0.2404 
    126 C126       -3.4569  -17.5448  -49.7620 C.3       23 UNK        -0.0205 
    127 H127        1.2464   -7.8280  -46.8871 H         1 UNK         0.0600 
    128 H128        1.6594   -8.2444  -45.2198 H         1 UNK         0.0600 
    129 H129        0.1772   -8.8721  -45.9502 H         1 UNK         0.0600 
    130 H130        0.4970  -11.0869  -46.1270 H         1 UNK         0.3000 
    131 H131        2.7079  -12.1264  -47.7719 H         1 UNK         0.0600 
    132 H132        0.3767  -13.7128  -46.5930 H         1 UNK         0.0800 
    133 H133        0.2584  -12.8262  -48.0788 H         1 UNK         0.0800 
    134 H134        0.0843  -13.9794  -49.9615 H         1 UNK         0.0800 
    135 H135        1.4925  -14.6720  -50.7125 H         1 UNK         0.0800 
    136 H136       -1.8585  -15.3561  -49.5294 H         1 UNK         0.1150 
    137 H137       -1.7370  -19.5254  -50.5042 H         1 UNK         0.1150 
    138 H138        1.8640  -17.1962  -50.5771 H         1 UNK         0.1150 
    139 H139        0.8650  -19.8236  -52.1028 H         1 UNK         0.0800 
    140 H140        2.0316  -19.5533  -50.8326 H         1 UNK         0.0800 
    141 H141       -0.0880  -20.1929  -48.1669 H         1 UNK         0.0800 
    142 H142        1.6377  -20.3067  -48.3881 H         1 UNK         0.0800 
    143 H143        1.5121  -22.7928  -47.9297 H         1 UNK         0.0600 
    144 H144        1.3175  -20.7083  -46.0381 H         1 UNK         0.3000 
    145 H145        1.8794  -22.6349  -43.0887 H         1 UNK         0.0600 
    146 H146        4.1198  -22.2533  -44.0724 H         1 UNK         0.0600 
    147 H147        3.6292  -20.6735  -44.6663 H         1 UNK         0.0600 
    148 H148        3.7298  -20.9729  -42.9331 H         1 UNK         0.0600 
    149 H149        1.4878  -19.8237  -43.6888 H         1 UNK         0.3000 
    150 H150       -2.0347  -19.8452  -43.1472 H         1 UNK         0.0600 
    151 H151       -1.0900  -19.7347  -40.8273 H         1 UNK         0.0600 
    152 H152       -1.4823  -18.1374  -41.4454 H         1 UNK         0.0600 
    153 H153        0.1952  -18.6755  -41.3986 H         1 UNK         0.0600 
    154 H154       -0.2776  -17.6846  -43.6221 H         1 UNK         0.3000 
    155 H155       -0.1352  -17.9400  -47.2073 H         1 UNK         0.0600 
    156 H156       -0.9212  -15.6268  -46.9696 H         1 UNK         0.0600 
    157 H157       -1.3731  -15.9035  -45.2883 H         1 UNK         0.0600 
    158 H158       -2.2308  -16.7245  -46.5844 H         1 UNK         0.0600 
    159 H159        1.1085  -16.1540  -45.3488 H         1 UNK         0.3000 
    160 H160        4.0131  -18.0921  -44.7124 H         1 UNK         0.0600 
    161 H161        3.8047  -15.6013  -46.4690 H         1 UNK         0.0600 
    162 H162        4.4974  -17.1340  -46.9764 H         1 UNK         0.0600 
    163 H163        5.2471  -16.2246  -45.6753 H         1 UNK         0.0600 
    164 H164        2.9887  -15.3835  -44.1721 H         1 UNK         0.3000 
    165 H165        1.7174  -16.2893  -40.9631 H         1 UNK         0.0600 
    166 H166        3.2528  -14.4631  -40.2161 H         1 UNK         0.0600 
    167 H167        4.1011  -15.9863  -40.4397 H         1 UNK         0.0600 
    168 H168        4.2538  -14.7168  -41.6434 H         1 UNK         0.0600 
    169 H169        2.0050  -13.7946  -42.3872 H         1 UNK         0.3000 
    170 H170       -0.2622  -13.6378  -44.3834 H         1 UNK         0.0600 
    171 H171       -2.3780  -14.6974  -43.5346 H         1 UNK         0.0600 
    172 H172       -2.2408  -13.7771  -42.0437 H         1 UNK         0.0600 
    173 H173       -2.5211  -12.9541  -43.5762 H         1 UNK         0.0600 
    174 H174        0.4001  -12.4482  -41.8030 H         1 UNK         0.3000 
    175 H175        0.2644   -9.1065  -43.1677 H         1 UNK         0.0600 
    176 H176       -0.3159   -8.8039  -40.7789 H         1 UNK         0.0600 
    177 H177       -1.6300   -9.6439  -41.5838 H         1 UNK         0.0600 
    178 H178       -0.5127  -10.5404  -40.5608 H         1 UNK         0.0600 
    179 H179        2.0827  -11.1125  -42.2700 H         1 UNK         0.3000 
    180 H180        4.6339   -8.8088  -41.4445 H         1 UNK         0.0600 
    181 H181        3.5783  -11.3709  -40.1338 H         1 UNK         0.0600 
    182 H182        3.8713   -9.8351  -39.3354 H         1 UNK         0.0600 
    183 H183        5.2199  -10.7446  -39.9988 H         1 UNK         0.0600 
    184 H184        5.2724   -9.9887  -43.1682 H         1 UNK         0.3000 
    185 H185        5.7210  -11.4870  -44.5855 H         1 UNK         0.0600 
    186 H186        6.2809  -13.5741  -43.4184 H         1 UNK         0.0600 
    187 H187        4.7874  -14.3241  -43.9423 H         1 UNK         0.0600 
    188 H188        6.0166  -13.8915  -45.1269 H         1 UNK         0.0600 
    189 H189        4.1472  -11.3024  -46.1177 H         1 UNK         0.3000 
    190 H190       -1.1834  -21.7536  -45.9323 H         1 UNK         0.3000 
    191 H191       -3.3720  -22.6431  -47.2670 H         1 UNK         0.0600 
    192 H192       -3.4054  -21.1323  -45.3208 H         1 UNK         0.0600 
    193 H193       -4.5288  -22.4474  -45.0692 H         1 UNK         0.0600 
    194 H194       -2.9760  -22.4633  -44.2459 H         1 UNK         0.0600 
    195 H195       -1.2462  -24.9511  -46.7822 H         1 UNK         0.3000 
    196 H196       -2.6869  -27.1842  -45.6748 H         1 UNK         0.0600 
    197 H197       -0.9314  -28.5012  -46.8860 H         1 UNK         0.0600 
    198 H198       -0.2163  -27.1970  -45.9490 H         1 UNK         0.0600 
    199 H199       -0.3828  -27.0384  -47.6973 H         1 UNK         0.0600 
    200 H200       -4.2879  -28.3412  -46.5673 H         1 UNK         0.3000 
    201 H201       -6.0127  -28.9255  -47.8325 H         1 UNK         0.0600 
    202 H202       -4.2607  -30.1278  -49.1481 H         1 UNK         0.0600 
    203 H203       -4.0804  -28.7313  -50.2066 H         1 UNK         0.0600 
    204 H204       -5.5953  -29.6229  -50.1701 H         1 UNK         0.0600 
    205 H205       -5.8399  -26.1981  -47.1608 H         1 UNK         0.3000 
    206 H206       -6.7213  -24.1986  -47.4578 H         1 UNK         0.0600 
    207 H207       -8.8549  -25.4256  -47.9162 H         1 UNK         0.0600 
    208 H208       -8.7725  -23.9084  -48.7960 H         1 UNK         0.0600 
    209 H209       -8.4935  -25.4229  -49.6413 H         1 UNK         0.0600 
    210 H210       -4.3015  -24.6995  -48.6408 H         1 UNK         0.3000 
    211 H211       -2.7136  -23.8788  -49.9438 H         1 UNK         0.0600 
    212 H212       -4.6674  -21.6640  -50.7636 H         1 UNK         0.0600 
    213 H213       -2.9300  -21.6598  -51.0239 H         1 UNK         0.0600 
    214 H214       -3.5640  -21.5978  -49.3924 H         1 UNK         0.0600 
    215 H215       -3.8358  -26.0448  -50.7590 H         1 UNK         0.3000 
    216 H216       -4.3041  -27.4906  -52.3827 H         1 UNK         0.0600 
    217 H217       -3.1121  -27.2407  -54.5457 H         1 UNK         0.0600 
    218 H218       -2.0573  -26.7889  -53.2156 H         1 UNK         0.0600 
    219 H219       -2.7986  -25.5426  -54.2166 H         1 UNK         0.0600 
    220 H220       -6.4926  -26.2627  -51.7454 H         1 UNK         0.3000 
    221 H221       -8.5109  -25.4776  -52.2278 H         1 UNK         0.0600 
    222 H222       -8.0996  -26.7498  -54.9879 H         1 UNK         0.0600 
    223 H223       -8.6422  -27.5986  -53.5410 H         1 UNK         0.0600 
    224 H224       -9.6426  -26.3414  -54.2505 H         1 UNK         0.0600 
    225 H225       -6.7539  -23.5477  -52.2282 H         1 UNK         0.3000 
    226 H226       -6.2469  -21.4943  -52.6518 H         1 UNK         0.0600 
    227 H227       -8.7186  -21.1255  -52.6787 H         1 UNK         0.0600 
    228 H228       -7.8695  -19.9678  -53.6880 H         1 UNK         0.0600 
    229 H229       -8.7279  -21.3069  -54.4334 H         1 UNK         0.0600 
    230 H230       -5.6596  -23.7187  -54.9549 H         1 UNK         0.3000 
    231 H231       -5.0943  -22.1344  -57.2653 H         1 UNK         0.0600 
    232 H232       -3.9047  -24.8408  -56.4785 H         1 UNK         0.0600 
    233 H233       -3.9533  -24.1423  -58.0892 H         1 UNK         0.0600 
    234 H234       -5.4503  -24.6218  -57.3025 H         1 UNK         0.0600 
    235 H235       -3.1845  -22.8655  -54.3510 H         1 UNK         0.3000 
    236 H236       -0.6982  -21.7754  -55.4783 H         1 UNK         0.0600 
    237 H237       -0.6864  -23.6245  -53.7808 H         1 UNK         0.0600 
    238 H238        0.2100  -22.2104  -53.2469 H         1 UNK         0.0600 
    239 H239       -1.3884  -22.5278  -52.5938 H         1 UNK         0.0600 
    240 H240       -3.4810  -20.6293  -53.6801 H         1 UNK         0.3000 
    241 H241       -2.2661  -18.1101  -52.8534 H         1 UNK         0.0600 
    242 H242       -4.6639  -19.0902  -55.4347 H         1 UNK         0.3800 
    243 H243       -4.4665  -17.5910  -56.3141 H         1 UNK         0.3800 
    244 H244       -5.2436  -18.7679  -52.7466 H         1 UNK         0.0800 
    245 H245       -4.1347  -19.4337  -51.5914 H         1 UNK         0.0800 
    246 H246       -3.7430  -16.8740  -48.9506 H         1 UNK         0.0800 
    247 H247       -3.7407  -18.5467  -49.4358 H         1 UNK         0.0800 
@<TRIPOS>BOND
     1    1    2 1    
     2    1  127 1    
     3    1  128 1    
     4    1  129 1    
     5    2    3 2    
     6    2    4 am   BACKBONE|DICT|INTERRES
     7    4    5 1    
     8    4  130 1    
     9    5    6 1    
    10    5   65 1    
    11    5  131 1    
    12    6    7 1    
    13    6  132 1    
    14    6  133 1    
    15    7    8 1    
    16    8    9 1    
    17    8  134 1    
    18    8  135 1    
    19    9   10 ar   
    20    9   14 ar   
    21   10   11 ar   
    22   10  136 1    
    23   11   12 ar   
    24   11  126 1    
    25   12   13 ar   
    26   12  137 1    
    27   13   14 ar   
    28   13   15 1    
    29   14  138 1    
    30   15   16 1    
    31   15  139 1    
    32   15  140 1    
    33   16   17 1    
    34   17   18 1    
    35   17  141 1    
    36   17  142 1    
    37   18   19 1    
    38   18   67 1    
    39   18  143 1    
    40   19   20 am   BACKBONE|DICT|INTERRES
    41   19  144 1    
    42   20   21 2    
    43   20   22 1    
    44   22   23 1    
    45   22   24 1    
    46   22  145 1    
    47   23  146 1    
    48   23  147 1    
    49   23  148 1    
    50   24   25 am   BACKBONE|DICT|INTERRES
    51   24  149 1    
    52   25   26 2    
    53   25   27 1    
    54   27   28 1    
    55   27   29 1    
    56   27  150 1    
    57   28  151 1    
    58   28  152 1    
    59   28  153 1    
    60   29   30 am   BACKBONE|DICT|INTERRES
    61   29  154 1    
    62   30   31 2    
    63   30   32 1    
    64   32   33 1    
    65   32   34 1    
    66   32  155 1    
    67   33  156 1    
    68   33  157 1    
    69   33  158 1    
    70   34   35 am   BACKBONE|DICT|INTERRES
    71   34  159 1    
    72   35   36 2    
    73   35   37 1    
    74   37   38 1    
    75   37   39 1    
    76   37  160 1    
    77   38  161 1    
    78   38  162 1    
    79   38  163 1    
    80   39   40 am   BACKBONE|DICT|INTERRES
    81   39  164 1    
    82   40   41 2    
    83   40   42 1    
    84   42   43 1    
    85   42   44 1    
    86   42  165 1    
    87   43  166 1    
    88   43  167 1    
    89   43  168 1    
    90   44   45 am   BACKBONE|DICT|INTERRES
    91   44  169 1    
    92   45   46 2    
    93   45   47 1    
    94   47   48 1    
    95   47   49 1    
    96   47  170 1    
    97   48  171 1    
    98   48  172 1    
    99   48  173 1    
   100   49   50 am   BACKBONE|DICT|INTERRES
   101   49  174 1    
   102   50   51 2    
   103   50   52 1    
   104   52   53 1    
   105   52   54 1    
   106   52  175 1    
   107   53  176 1    
   108   53  177 1    
   109   53  178 1    
   110   54   55 am   BACKBONE|DICT|INTERRES
   111   54  179 1    
   112   55   56 2    
   113   55   57 1    
   114   57   58 1    
   115   57   59 1    
   116   57  180 1    
   117   58  181 1    
   118   58  182 1    
   119   58  183 1    
   120   59   60 am   BACKBONE|DICT|INTERRES
   121   59  184 1    
   122   60   61 2    
   123   60   62 1    
   124   62   63 1    
   125   62   64 1    
   126   62  185 1    
   127   63  186 1    
   128   63  187 1    
   129   63  188 1    
   130   64   65 am   BACKBONE|DICT|INTERRES
   131   64  189 1    
   132   65   66 2    
   133   67   68 2    
   134   67   69 am   BACKBONE|DICT|INTERRES
   135   69   70 1    
   136   69  190 1    
   137   70   71 1    
   138   70   72 1    
   139   70  191 1    
   140   71  192 1    
   141   71  193 1    
   142   71  194 1    
   143   72   73 2    
   144   72   74 am   BACKBONE|DICT|INTERRES
   145   74   75 1    
   146   74  195 1    
   147   75   76 1    
   148   75   77 1    
   149   75  196 1    
   150   76  197 1    
   151   76  198 1    
   152   76  199 1    
   153   77   78 2    
   154   77   79 am   BACKBONE|DICT|INTERRES
   155   79   80 1    
   156   79  200 1    
   157   80   81 1    
   158   80   82 1    
   159   80  201 1    
   160   81  202 1    
   161   81  203 1    
   162   81  204 1    
   163   82   83 2    
   164   82   84 am   BACKBONE|DICT|INTERRES
   165   84   85 1    
   166   84  205 1    
   167   85   86 1    
   168   85   87 1    
   169   85  206 1    
   170   86  207 1    
   171   86  208 1    
   172   86  209 1    
   173   87   88 2    
   174   87   89 am   BACKBONE|DICT|INTERRES
   175   89   90 1    
   176   89  210 1    
   177   90   91 1    
   178   90   92 1    
   179   90  211 1    
   180   91  212 1    
   181   91  213 1    
   182   91  214 1    
   183   92   93 2    
   184   92   94 am   BACKBONE|DICT|INTERRES
   185   94   95 1    
   186   94  215 1    
   187   95   96 1    
   188   95   97 1    
   189   95  216 1    
   190   96  217 1    
   191   96  218 1    
   192   96  219 1    
   193   97   98 2    
   194   97   99 am   BACKBONE|DICT|INTERRES
   195   99  100 1    
   196   99  220 1    
   197  100  101 1    
   198  100  102 1    
   199  100  221 1    
   200  101  222 1    
   201  101  223 1    
   202  101  224 1    
   203  102  103 2    
   204  102  104 am   BACKBONE|DICT|INTERRES
   205  104  105 1    
   206  104  225 1    
   207  105  106 1    
   208  105  107 1    
   209  105  226 1    
   210  106  227 1    
   211  106  228 1    
   212  106  229 1    
   213  107  108 2    
   214  107  109 am   BACKBONE|DICT|INTERRES
   215  109  110 1    
   216  109  230 1    
   217  110  111 1    
   218  110  112 1    
   219  110  231 1    
   220  111  232 1    
   221  111  233 1    
   222  111  234 1    
   223  112  113 2    
   224  112  114 am   BACKBONE|DICT|INTERRES
   225  114  115 1    
   226  114  235 1    
   227  115  116 1    
   228  115  117 1    
   229  115  236 1    
   230  116  237 1    
   231  116  238 1    
   232  116  239 1    
   233  117  118 2    
   234  117  119 am   BACKBONE|DICT|INTERRES
   235  119  120 1    
   236  119  240 1    
   237  120  121 1    
   238  120  124 1    
   239  120  241 1    
   240  121  122 am   BACKBONE|DICT|INTERRES
   241  121  123 2    
   242  122  242 1    
   243  122  243 1    
   244  124  125 1    
   245  124  244 1    
   246  124  245 1    
   247  125  126 1    
   248  126  246 1    
   249  126  247 1    
@<TRIPOS>SUBSTRUCTURE
     1 UNK         1 GROUP             0       ****    0 ROOT    
