@<TRIPOS>MOLECULE
3R540
247   249    1
SMALL
USER_CHARGES


@<TRIPOS>ATOM
      1 CA          5.9894  -13.8979  -50.7865 C.3       0 UNK        -0.1800 
      2 C           5.8315  -14.5133  -49.4033 C.2       0 UNK         0.5000 
      3 O           6.8297  -14.8158  -48.7498 O.2       0 UNK        -0.5000 
      4 N           4.5821  -14.6983  -48.9610 N.am      1 UNK        -0.5000 
      5 CA          4.2234  -15.2320  -47.6440 C.3       1 UNK         0.1400 
      6 C6          2.7781  -15.7942  -47.5771 C.3       23 UNK        -0.0398 
      7 S7          1.4623  -14.6239  -48.0550 S.3       23 UNK        -0.2404 
      8 C8          1.1053  -15.1030  -49.7765 C.3       23 UNK        -0.0205 
      9 C9          0.2767  -16.3745  -49.8476 C.ar      23 UNK        -0.0193 
     10 C10        -1.0838  -16.3363  -49.5349 C.ar      23 UNK        -0.1150 
     11 C11        -1.8539  -17.5013  -49.5681 C.ar      23 UNK        -0.0193 
     12 C12        -1.2509  -18.7124  -49.9186 C.ar      23 UNK        -0.1150 
     13 C13         0.1064  -18.7614  -50.2513 C.ar      23 UNK        -0.0193 
     14 C14         0.8630  -17.5859  -50.2226 C.ar      23 UNK        -0.1150 
     15 C15         0.7549  -20.0893  -50.6216 C.3       23 UNK        -0.0205 
     16 S16         2.1782  -20.5157  -49.5586 S.3       23 UNK        -0.2404 
     17 C17         1.4745  -20.3765  -47.8783 C.3       23 UNK        -0.0398 
     18 CA          1.0396  -21.7206  -47.2523 C.3       11 UNK         0.1400 
     19 N           0.7505  -21.5666  -45.8266 N.am      11 UNK        -0.5000 
     20 C           0.4953  -22.5657  -44.9725 C.2       10 UNK         0.5000 
     21 O           0.5313  -23.7560  -45.2806 O.2       10 UNK        -0.5000 
     22 CA          0.0839  -22.1646  -43.5446 C.3       10 UNK         0.1400 
     23 CB          1.3192  -21.8344  -42.6943 C.3       10 UNK        -0.1800 
     24 N          -0.8504  -21.0370  -43.5228 N.am      10 UNK        -0.5000 
     25 C          -2.0821  -21.0661  -44.0529 C.2       9 UNK         0.5000 
     26 O          -2.5739  -22.0633  -44.5808 O.2       9 UNK        -0.5000 
     27 CA         -2.8857  -19.7534  -44.0303 C.3       9 UNK         0.1400 
     28 CB         -3.4961  -19.5083  -42.6425 C.3       9 UNK        -0.1800 
     29 N          -2.0903  -18.5931  -44.4320 N.am      9 UNK        -0.5000 
     30 C          -1.5344  -18.4326  -45.6417 C.2       8 UNK         0.5000 
     31 O          -1.6596  -19.2400  -46.5620 O.2       8 UNK        -0.5000 
     32 CA         -0.6406  -17.1918  -45.8312 C.3       8 UNK         0.1400 
     33 CB         -1.4890  -15.9220  -45.9962 C.3       8 UNK        -0.1800 
     34 N           0.2962  -17.0096  -44.7210 N.am      8 UNK        -0.5000 
     35 C           1.2339  -17.8989  -44.3638 C.2       7 UNK         0.5000 
     36 O           1.4622  -18.9386  -44.9783 O.2       7 UNK        -0.5000 
     37 CA          2.0142  -17.6053  -43.0739 C.3       7 UNK         0.1400 
     38 CB          3.1717  -16.6367  -43.3460 C.3       7 UNK        -0.1800 
     39 N           1.1455  -17.0712  -42.0257 N.am      7 UNK        -0.5000 
     40 C           0.2124  -17.7925  -41.3869 C.2       6 UNK         0.5000 
     41 O           0.0153  -18.9898  -41.5915 O.2       6 UNK        -0.5000 
     42 CA         -0.6790  -17.0381  -40.3841 C.3       6 UNK         0.1400 
     43 CB          0.0190  -16.9177  -39.0214 C.3       6 UNK        -0.1800 
     44 N          -1.0493  -15.7052  -40.8607 N.am      6 UNK        -0.5000 
     45 C          -1.8265  -15.4715  -41.9280 C.2       5 UNK         0.5000 
     46 O          -2.3592  -16.3610  -42.5900 O.2       5 UNK        -0.5000 
     47 CA         -1.9982  -14.0009  -42.3527 C.3       5 UNK         0.1400 
     48 CB         -3.2167  -13.3775  -41.6564 C.3       5 UNK        -0.1800 
     49 N          -0.8120  -13.1847  -42.0799 N.am      5 UNK        -0.5000 
     50 C           0.3785  -13.3543  -42.6693 C.2       4 UNK         0.5000 
     51 O           0.6051  -14.2160  -43.5219 O.2       4 UNK        -0.5000 
     52 CA          1.5175  -12.4452  -42.1811 C.3       4 UNK         0.1400 
     53 CB          2.6545  -13.2707  -41.5586 C.3       4 UNK        -0.1800 
     54 N           2.0539  -11.6337  -43.2693 N.am      4 UNK        -0.5000 
     55 C           1.4812  -10.5160  -43.7347 C.2       3 UNK         0.5000 
     56 O           0.4145  -10.0701  -43.3095 O.2       3 UNK        -0.5000 
     57 CA          2.2370   -9.7432  -44.8317 C.3       3 UNK         0.1400 
     58 CB          3.0485   -8.5967  -44.2076 C.3       3 UNK        -0.1800 
     59 N           3.1446  -10.5922  -45.6083 N.am      3 UNK        -0.5000 
     60 C           2.7796  -11.2594  -46.7126 C.2       2 UNK         0.5000 
     61 O           1.6387  -11.2397  -47.1737 O.2       2 UNK        -0.5000 
     62 CA          3.8686  -12.0863  -47.4154 C.3       2 UNK         0.1400 
     63 CB          4.9276  -11.1624  -48.0428 C.3       2 UNK        -0.1800 
     64 N           4.5077  -12.9872  -46.4538 N.am      2 UNK        -0.5000 
     65 C           4.6025  -14.3285  -46.4369 C.2       1 UNK         0.5000 
     66 O           5.0560  -14.8847  -45.4388 O.2       1 UNK        -0.5000 
     67 C          -0.1463  -22.3609  -48.0021 C.2       11 UNK         0.5000 
     68 O           0.0592  -23.3252  -48.7380 O.2       11 UNK        -0.5000 
     69 N          -1.3674  -21.8550  -47.7725 N.am      12 UNK        -0.5000 
     70 CA         -2.6009  -22.4052  -48.3381 C.3       12 UNK         0.1400 
     71 CB         -3.7865  -21.4914  -48.0024 C.3       12 UNK        -0.1800 
     72 C          -2.8790  -23.8503  -47.8866 C.2       12 UNK         0.5000 
     73 O          -3.2844  -24.6695  -48.7113 O.2       12 UNK        -0.5000 
     74 N          -2.6218  -24.1491  -46.6055 N.am      13 UNK        -0.5000 
     75 CA         -2.7174  -25.4923  -46.0340 C.3       13 UNK         0.1400 
     76 CB         -2.5744  -25.4230  -44.5063 C.3       13 UNK        -0.1800 
     77 C          -1.6920  -26.4651  -46.6441 C.2       13 UNK         0.5000 
     78 O          -2.0676  -27.5735  -47.0259 O.2       13 UNK        -0.5000 
     79 N          -0.4330  -26.0218  -46.7752 N.am      14 UNK        -0.5000 
     80 CA          0.6556  -26.7682  -47.4143 C.3       14 UNK         0.1400 
     81 CB          1.9820  -26.0217  -47.2072 C.3       14 UNK        -0.1800 
     82 C           0.4070  -27.0317  -48.9121 C.2       14 UNK         0.5000 
     83 O           0.7420  -28.1087  -49.4058 O.2       14 UNK        -0.5000 
     84 N          -0.2167  -26.0621  -49.5936 N.am      15 UNK        -0.5000 
     85 CA         -0.6735  -26.1580  -50.9801 C.3       15 UNK         0.1400 
     86 CB         -0.9109  -24.7373  -51.5219 C.3       15 UNK        -0.1800 
     87 C          -1.9435  -27.0168  -51.1567 C.2       15 UNK         0.5000 
     88 O          -2.3545  -27.2336  -52.2953 O.2       15 UNK        -0.5000 
     89 N          -2.5676  -27.4601  -50.0541 N.am      16 UNK        -0.5000 
     90 CA         -3.8244  -28.2154  -49.9927 C.3       16 UNK         0.1400 
     91 CB         -3.6410  -29.6329  -50.5733 C.3       16 UNK        -0.1800 
     92 C          -5.0039  -27.4446  -50.6239 C.2       16 UNK         0.5000 
     93 O          -5.8091  -28.0231  -51.3553 O.2       16 UNK        -0.5000 
     94 N          -5.0535  -26.1353  -50.3391 N.am      17 UNK        -0.5000 
     95 CA         -6.0164  -25.1350  -50.8082 C.3       17 UNK         0.1400 
     96 CB         -7.4598  -25.5074  -50.4113 C.3       17 UNK        -0.1800 
     97 C          -5.8941  -24.7704  -52.3028 C.2       17 UNK         0.5000 
     98 O          -6.7213  -24.0011  -52.7946 O.2       17 UNK        -0.5000 
     99 N          -4.8505  -25.2539  -52.9978 N.am      18 UNK        -0.5000 
    100 CA        -4.5868  -24.9654  -54.4153 C.3       18 UNK         0.1400 
    101 CB        -3.4784  -25.8913  -54.9360 C.3       18 UNK        -0.1800 
    102 C         -4.2361  -23.4908  -54.7044 C.2       18 UNK         0.5000 
    103 O         -4.3242  -23.0643  -55.8562 O.2       18 UNK        -0.5000 
    104 N         -3.8776  -22.7323  -53.6575 N.am      19 UNK        -0.5000 
    105 CA        -3.7069  -21.2783  -53.6894 C.3       19 UNK         0.1400 
    106 CB        -3.0701  -20.8232  -52.3667 C.3       19 UNK        -0.1800 
    107 C         -5.0259  -20.5172  -53.9500 C.2       19 UNK         0.5000 
    108 O         -4.9785  -19.3903  -54.4456 O.2       19 UNK        -0.5000 
    109 N         -6.1694  -21.1514  -53.6393 N.am      20 UNK        -0.5000 
    110 CA        -7.5392  -20.6829  -53.8564 C.3       20 UNK         0.1400 
    111 CB        -7.8800  -20.7283  -55.3632 C.3       20 UNK        -0.1800 
    112 C         -7.7996  -19.3171  -53.1880 C.2       20 UNK         0.5000 
    113 O         -7.8062  -19.2403  -51.9587 O.2       20 UNK        -0.5000 
    114 N         -8.0039  -18.2718  -53.9995 N.am      21 UNK        -0.5000 
    115 CA        -8.2146  -16.8917  -53.5607 C.3       21 UNK         0.1400 
    116 CB        -8.8899  -16.1152  -54.7029 C.3       21 UNK        -0.1800 
    117 C         -6.9220  -16.1780  -53.1118 C.2       21 UNK         0.5000 
    118 O         -7.0156  -15.1006  -52.5221 O.2       21 UNK        -0.5000 
    119 N         -5.7527  -16.7662  -53.4055 N.am      22 UNK        -0.5000 
    120 CA        -4.4080  -16.2586  -53.0747 C.3       22 UNK         0.1400 
    121 C         -3.9840  -14.9806  -53.8640 C.2       22 UNK         0.5000 
    122 N         -4.6464  -14.6290  -54.9597 N.am      22 UNK        -0.7600 
    123 O         -3.0209  -14.3096  -53.5027 O.2       22 UNK        -0.5000 
    124 C124       -4.1607  -16.1256  -51.5450 C.3       23 UNK        -0.0398 
    125 S125       -4.4090  -17.6972  -50.6470 S.3       23 UNK        -0.2404 
    126 C126       -3.3302  -17.4542  -49.2018 C.3       23 UNK        -0.0205 
    127 H127        6.4970  -14.5961  -51.4520 H         1 UNK         0.0600 
    128 H128        6.5859  -12.9875  -50.7267 H         1 UNK         0.0600 
    129 H129        5.0264  -13.6435  -51.2300 H         1 UNK         0.0600 
    130 H130        3.8060  -14.4191  -49.5416 H         1 UNK         0.3000 
    131 H131        4.8593  -16.1122  -47.5222 H         1 UNK         0.0600 
    132 H132        2.7073  -16.6788  -48.2103 H         1 UNK         0.0800 
    133 H133        2.5591  -16.1522  -46.5700 H         1 UNK         0.0800 
    134 H134        2.0344  -15.2136  -50.3364 H         1 UNK         0.0800 
    135 H135        0.5555  -14.2927  -50.2574 H         1 UNK         0.0800 
    136 H136       -1.5373  -15.3970  -49.2510 H         1 UNK         0.1150 
    137 H137       -1.8429  -19.6161  -49.9277 H         1 UNK         0.1150 
    138 H138        1.9142  -17.6220  -50.4719 H         1 UNK         0.1150 
    139 H139        0.0270  -20.9009  -50.5804 H         1 UNK         0.0800 
    140 H140        1.0932  -20.0380  -51.6572 H         1 UNK         0.0800 
    141 H141        0.6587  -19.6551  -47.8518 H         1 UNK         0.0800 
    142 H142        2.2623  -19.9383  -47.2651 H         1 UNK         0.0800 
    143 H143        1.8819  -22.4115  -47.3283 H         1 UNK         0.0600 
    144 H144        0.7501  -20.6133  -45.4726 H         1 UNK         0.3000 
    145 H145       -0.4191  -23.0214  -43.0919 H         1 UNK         0.0600 
    146 H146        1.0419  -21.6282  -41.6605 H         1 UNK         0.0600 
    147 H147        2.0201  -22.6699  -42.6827 H         1 UNK         0.0600 
    148 H148        1.8515  -20.9638  -43.0779 H         1 UNK         0.0600 
    149 H149       -0.5323  -20.1909  -43.0598 H         1 UNK         0.3000 
    150 H150       -3.7039  -19.8556  -44.7462 H         1 UNK         0.0600 
    151 H151       -4.1074  -20.3555  -42.3292 H         1 UNK         0.0600 
    152 H152       -4.1379  -18.6271  -42.6453 H         1 UNK         0.0600 
    153 H153       -2.7274  -19.3584  -41.8842 H         1 UNK         0.0600 
    154 H154       -1.9788  -17.8576  -43.7396 H         1 UNK         0.3000 
    155 H155       -0.0562  -17.3341  -46.7427 H         1 UNK         0.0600 
    156 H156       -2.1127  -15.7329  -45.1243 H         1 UNK         0.0600 
    157 H157       -2.1547  -16.0066  -46.8533 H         1 UNK         0.0600 
    158 H158       -0.8626  -15.0443  -46.1541 H         1 UNK         0.0600 
    159 H159        0.2117  -16.1518  -44.1866 H         1 UNK         0.3000 
    160 H160        2.4399  -18.5449  -42.7155 H         1 UNK         0.0600 
    161 H161        2.8226  -15.6988  -43.7778 H         1 UNK         0.0600 
    162 H162        3.8799  -17.0722  -44.0519 H         1 UNK         0.0600 
    163 H163        3.7226  -16.4074  -42.4340 H         1 UNK         0.0600 
    164 H164        1.2100  -16.0818  -41.8407 H         1 UNK         0.3000 
    165 H165       -1.5947  -17.6179  -40.2499 H         1 UNK         0.0600 
    166 H166       -0.6344  -16.4510  -38.2839 H         1 UNK         0.0600 
    167 H167        0.2925  -17.9007  -38.6356 H         1 UNK         0.0600 
    168 H168        0.9320  -16.3243  -39.0851 H         1 UNK         0.0600 
    169 H169       -0.6606  -14.9166  -40.3656 H         1 UNK         0.3000 
    170 H170       -2.1758  -13.9850  -43.4297 H         1 UNK         0.0600 
    171 H171       -4.1201  -13.9536  -41.8619 H         1 UNK         0.0600 
    172 H172       -3.0891  -13.3419  -40.5738 H         1 UNK         0.0600 
    173 H173       -3.3946  -12.3610  -42.0080 H         1 UNK         0.0600 
    174 H174       -0.9213  -12.4458  -41.4000 H         1 UNK         0.3000 
    175 H175        1.1314  -11.7808  -41.4047 H         1 UNK         0.0600 
    176 H176        3.1639  -13.8829  -42.3022 H         1 UNK         0.0600 
    177 H177        3.4004  -12.6226  -41.0981 H         1 UNK         0.0600 
    178 H178        2.2797  -13.9366  -40.7802 H         1 UNK         0.0600 
    179 H179        2.9014  -11.9620  -43.7048 H         1 UNK         0.3000 
    180 H180        1.4912   -9.2999  -45.4953 H         1 UNK         0.0600 
    181 H181        3.8145   -8.9679  -43.5256 H         1 UNK         0.0600 
    182 H182        2.4030   -7.9242  -43.6410 H         1 UNK         0.0600 
    183 H183        3.5420   -8.0000  -44.9751 H         1 UNK         0.0600 
    184 H184        4.1078  -10.6087  -45.3094 H         1 UNK         0.3000 
    185 H185        3.3789  -12.6278  -48.2190 H         1 UNK         0.0600 
    186 H186        4.4716  -10.4779  -48.7593 H         1 UNK         0.0600 
    187 H187        5.4408  -10.5591  -47.2933 H         1 UNK         0.0600 
    188 H188        5.6863  -11.7312  -48.5778 H         1 UNK         0.0600 
    189 H189        4.8438  -12.5255  -45.6239 H         1 UNK         0.3000 
    190 H190       -1.4619  -21.0334  -47.1799 H         1 UNK         0.3000 
    191 H191       -2.4866  -22.4187  -49.4237 H         1 UNK         0.0600 
    192 H192       -3.9082  -21.3660  -46.9263 H         1 UNK         0.0600 
    193 H193       -4.7192  -21.8971  -48.3965 H         1 UNK         0.0600 
    194 H194       -3.6534  -20.5049  -48.4421 H         1 UNK         0.0600 
    195 H195       -2.3505  -23.4013  -45.9731 H         1 UNK         0.3000 
    196 H196       -3.7138  -25.8778  -46.2602 H         1 UNK         0.0600 
    197 H197       -2.6696  -26.4136  -44.0601 H         1 UNK         0.0600 
    198 H198       -3.3476  -24.7923  -44.0673 H         1 UNK         0.0600 
    199 H199       -1.6069  -25.0201  -44.2077 H         1 UNK         0.0600 
    200 H200       -0.1929  -25.1081  -46.3978 H         1 UNK         0.3000 
    201 H201        0.7299  -27.7372  -46.9169 H         1 UNK         0.0600 
    202 H202        2.2065  -25.9047  -46.1470 H         1 UNK         0.0600 
    203 H203        1.9585  -25.0278  -47.6552 H         1 UNK         0.0600 
    204 H204        2.8125  -26.5665  -47.6578 H         1 UNK         0.0600 
    205 H205       -0.3780  -25.1726  -49.1286 H         1 UNK         0.3000 
    206 H206        0.1171  -26.6216  -51.5733 H         1 UNK         0.0600 
    207 H207       -0.0103  -24.1283  -51.4408 H         1 UNK         0.0600 
    208 H208       -1.1920  -24.7567  -52.5752 H         1 UNK         0.0600 
    209 H209       -1.7077  -24.2287  -50.9792 H         1 UNK         0.0600 
    210 H210       -2.1682  -27.2203  -49.1548 H         1 UNK         0.3000 
    211 H211       -4.0644  -28.3224  -48.9340 H         1 UNK         0.0600 
    212 H212       -3.4500  -29.6118  -51.6466 H         1 UNK         0.0600 
    213 H213       -4.5333  -30.2388  -50.4123 H         1 UNK         0.0600 
    214 H214       -2.8086  -30.1487  -50.0946 H         1 UNK         0.0600 
    215 H215       -4.3223  -25.7557  -49.7380 H         1 UNK         0.3000 
    216 H216       -5.7627  -24.2221  -50.2675 H         1 UNK         0.0600 
    217 H217       -8.1428  -24.6782  -50.5993 H         1 UNK         0.0600 
    218 H218       -7.5281  -25.7467  -49.3501 H         1 UNK         0.0600 
    219 H219       -7.8298  -26.3640  -50.9748 H         1 UNK         0.0600 
    220 H220       -4.2108  -25.8923  -52.5415 H         1 UNK         0.3000 
    221 H221       -5.4998  -25.1915  -54.9701 H         1 UNK         0.0600 
    222 H222       -2.5211  -25.6796  -54.4596 H         1 UNK         0.0600 
    223 H223       -3.7207  -26.9393  -54.7582 H         1 UNK         0.0600 
    224 H224       -3.3406  -25.7685  -56.0109 H         1 UNK         0.0600 
    225 H225       -3.8151  -23.1768  -52.7546 H         1 UNK         0.3000 
    226 H226       -3.0199  -21.0360  -54.5028 H         1 UNK         0.0600 
    227 H227       -2.1214  -21.3295  -52.1868 H         1 UNK         0.0600 
    228 H228       -2.8655  -19.7520  -52.3852 H         1 UNK         0.0600 
    229 H229       -3.7234  -21.0168  -51.5148 H         1 UNK         0.0600 
    230 H230       -6.1056  -22.0815  -53.2412 H         1 UNK         0.3000 
    231 H231       -8.1914  -21.3974  -53.3518 H         1 UNK         0.0600 
    232 H232       -7.7672  -21.7404  -55.7525 H         1 UNK         0.0600 
    233 H233       -7.2344  -20.0785  -55.9549 H         1 UNK         0.0600 
    234 H234       -8.9138  -20.4309  -55.5437 H         1 UNK         0.0600 
    235 H235       -7.9623  -18.4260  -54.9965 H         1 UNK         0.3000 
    236 H236       -8.8942  -16.8989  -52.7060 H         1 UNK         0.0600 
    237 H237       -9.1005  -15.0865  -54.4072 H         1 UNK         0.0600 
    238 H238       -8.2599  -16.0785  -55.5925 H         1 UNK         0.0600 
    239 H239       -9.8400  -16.5710  -54.9821 H         1 UNK         0.0600 
    240 H240       -5.7604  -17.6653  -53.8773 H         1 UNK         0.3000 
    241 H241       -3.7233  -17.0273  -53.4344 H         1 UNK         0.0600 
    242 H242       -4.3614  -13.8086  -55.4713 H         1 UNK         0.3800 
    243 H243       -5.4294  -15.1752  -55.2808 H         1 UNK         0.3800 
    244 H244       -3.1396  -15.7888  -51.3669 H         1 UNK         0.0800 
    245 H245       -4.8072  -15.3645  -51.1075 H         1 UNK         0.0800 
    246 H246       -3.5402  -18.2245  -48.4605 H         1 UNK         0.0800 
    247 H247       -3.5851  -16.5052  -48.7283 H         1 UNK         0.0800 
@<TRIPOS>BOND
     1    1    2 1    
     2    1  127 1    
     3    1  128 1    
     4    1  129 1    
     5    2    3 2    
     6    2    4 am   BACKBONE|DICT|INTERRES
     7    4    5 1    
     8    4  130 1    
     9    5    6 1    
    10    5   65 1    
    11    5  131 1    
    12    6    7 1    
    13    6  132 1    
    14    6  133 1    
    15    7    8 1    
    16    8    9 1    
    17    8  134 1    
    18    8  135 1    
    19    9   10 ar   
    20    9   14 ar   
    21   10   11 ar   
    22   10  136 1    
    23   11   12 ar   
    24   11  126 1    
    25   12   13 ar   
    26   12  137 1    
    27   13   14 ar   
    28   13   15 1    
    29   14  138 1    
    30   15   16 1    
    31   15  139 1    
    32   15  140 1    
    33   16   17 1    
    34   17   18 1    
    35   17  141 1    
    36   17  142 1    
    37   18   19 1    
    38   18   67 1    
    39   18  143 1    
    40   19   20 am   BACKBONE|DICT|INTERRES
    41   19  144 1    
    42   20   21 2    
    43   20   22 1    
    44   22   23 1    
    45   22   24 1    
    46   22  145 1    
    47   23  146 1    
    48   23  147 1    
    49   23  148 1    
    50   24   25 am   BACKBONE|DICT|INTERRES
    51   24  149 1    
    52   25   26 2    
    53   25   27 1    
    54   27   28 1    
    55   27   29 1    
    56   27  150 1    
    57   28  151 1    
    58   28  152 1    
    59   28  153 1    
    60   29   30 am   BACKBONE|DICT|INTERRES
    61   29  154 1    
    62   30   31 2    
    63   30   32 1    
    64   32   33 1    
    65   32   34 1    
    66   32  155 1    
    67   33  156 1    
    68   33  157 1    
    69   33  158 1    
    70   34   35 am   BACKBONE|DICT|INTERRES
    71   34  159 1    
    72   35   36 2    
    73   35   37 1    
    74   37   38 1    
    75   37   39 1    
    76   37  160 1    
    77   38  161 1    
    78   38  162 1    
    79   38  163 1    
    80   39   40 am   BACKBONE|DICT|INTERRES
    81   39  164 1    
    82   40   41 2    
    83   40   42 1    
    84   42   43 1    
    85   42   44 1    
    86   42  165 1    
    87   43  166 1    
    88   43  167 1    
    89   43  168 1    
    90   44   45 am   BACKBONE|DICT|INTERRES
    91   44  169 1    
    92   45   46 2    
    93   45   47 1    
    94   47   48 1    
    95   47   49 1    
    96   47  170 1    
    97   48  171 1    
    98   48  172 1    
    99   48  173 1    
   100   49   50 am   BACKBONE|DICT|INTERRES
   101   49  174 1    
   102   50   51 2    
   103   50   52 1    
   104   52   53 1    
   105   52   54 1    
   106   52  175 1    
   107   53  176 1    
   108   53  177 1    
   109   53  178 1    
   110   54   55 am   BACKBONE|DICT|INTERRES
   111   54  179 1    
   112   55   56 2    
   113   55   57 1    
   114   57   58 1    
   115   57   59 1    
   116   57  180 1    
   117   58  181 1    
   118   58  182 1    
   119   58  183 1    
   120   59   60 am   BACKBONE|DICT|INTERRES
   121   59  184 1    
   122   60   61 2    
   123   60   62 1    
   124   62   63 1    
   125   62   64 1    
   126   62  185 1    
   127   63  186 1    
   128   63  187 1    
   129   63  188 1    
   130   64   65 am   BACKBONE|DICT|INTERRES
   131   64  189 1    
   132   65   66 2    
   133   67   68 2    
   134   67   69 am   BACKBONE|DICT|INTERRES
   135   69   70 1    
   136   69  190 1    
   137   70   71 1    
   138   70   72 1    
   139   70  191 1    
   140   71  192 1    
   141   71  193 1    
   142   71  194 1    
   143   72   73 2    
   144   72   74 am   BACKBONE|DICT|INTERRES
   145   74   75 1    
   146   74  195 1    
   147   75   76 1    
   148   75   77 1    
   149   75  196 1    
   150   76  197 1    
   151   76  198 1    
   152   76  199 1    
   153   77   78 2    
   154   77   79 am   BACKBONE|DICT|INTERRES
   155   79   80 1    
   156   79  200 1    
   157   80   81 1    
   158   80   82 1    
   159   80  201 1    
   160   81  202 1    
   161   81  203 1    
   162   81  204 1    
   163   82   83 2    
   164   82   84 am   BACKBONE|DICT|INTERRES
   165   84   85 1    
   166   84  205 1    
   167   85   86 1    
   168   85   87 1    
   169   85  206 1    
   170   86  207 1    
   171   86  208 1    
   172   86  209 1    
   173   87   88 2    
   174   87   89 am   BACKBONE|DICT|INTERRES
   175   89   90 1    
   176   89  210 1    
   177   90   91 1    
   178   90   92 1    
   179   90  211 1    
   180   91  212 1    
   181   91  213 1    
   182   91  214 1    
   183   92   93 2    
   184   92   94 am   BACKBONE|DICT|INTERRES
   185   94   95 1    
   186   94  215 1    
   187   95   96 1    
   188   95   97 1    
   189   95  216 1    
   190   96  217 1    
   191   96  218 1    
   192   96  219 1    
   193   97   98 2    
   194   97   99 am   BACKBONE|DICT|INTERRES
   195   99  100 1    
   196   99  220 1    
   197  100  101 1    
   198  100  102 1    
   199  100  221 1    
   200  101  222 1    
   201  101  223 1    
   202  101  224 1    
   203  102  103 2    
   204  102  104 am   BACKBONE|DICT|INTERRES
   205  104  105 1    
   206  104  225 1    
   207  105  106 1    
   208  105  107 1    
   209  105  226 1    
   210  106  227 1    
   211  106  228 1    
   212  106  229 1    
   213  107  108 2    
   214  107  109 am   BACKBONE|DICT|INTERRES
   215  109  110 1    
   216  109  230 1    
   217  110  111 1    
   218  110  112 1    
   219  110  231 1    
   220  111  232 1    
   221  111  233 1    
   222  111  234 1    
   223  112  113 2    
   224  112  114 am   BACKBONE|DICT|INTERRES
   225  114  115 1    
   226  114  235 1    
   227  115  116 1    
   228  115  117 1    
   229  115  236 1    
   230  116  237 1    
   231  116  238 1    
   232  116  239 1    
   233  117  118 2    
   234  117  119 am   BACKBONE|DICT|INTERRES
   235  119  120 1    
   236  119  240 1    
   237  120  121 1    
   238  120  124 1    
   239  120  241 1    
   240  121  122 am   BACKBONE|DICT|INTERRES
   241  121  123 2    
   242  122  242 1    
   243  122  243 1    
   244  124  125 1    
   245  124  244 1    
   246  124  245 1    
   247  125  126 1    
   248  126  246 1    
   249  126  247 1    
@<TRIPOS>SUBSTRUCTURE
     1 UNK         1 GROUP             0       ****    0 ROOT    
