@<TRIPOS>MOLECULE
3R540
247   249    1
SMALL
USER_CHARGES


@<TRIPOS>ATOM
      1 CA          3.0965   -9.7510  -49.0496 C.3       0 UNK        -0.1800 
      2 C           1.8697  -10.4176  -48.4434 C.2       0 UNK         0.5000 
      3 O           0.9024   -9.7314  -48.1141 O.2       0 UNK        -0.5000 
      4 N           1.9095  -11.7497  -48.2980 N.am      1 UNK        -0.5000 
      5 CA          0.8506  -12.5889  -47.7199 C.3       1 UNK         0.1400 
      6 C6         -0.4611  -12.5758  -48.5610 C.3       23 UNK        -0.0398 
      7 S7         -1.3085  -14.1940  -48.5523 S.3       23 UNK        -0.2404 
      8 C8         -0.7799  -14.8738  -50.1549 C.3       23 UNK        -0.0205 
      9 C9         -0.8473  -16.3937  -50.1734 C.ar      23 UNK        -0.0193 
     10 C10        -2.0275  -17.0517  -50.5350 C.ar      23 UNK        -0.1150 
     11 C11        -2.0688  -18.4483  -50.5936 C.ar      23 UNK        -0.0193 
     12 C12        -0.9222  -19.1835  -50.2830 C.ar      23 UNK        -0.1150 
     13 C13         0.2654  -18.5407  -49.9185 C.ar      23 UNK        -0.0193 
     14 C14         0.2907  -17.1441  -49.8618 C.ar      23 UNK        -0.1150 
     15 C15         1.5451  -19.3244  -49.6315 C.3       23 UNK        -0.0205 
     16 S16         1.2929  -20.9210  -48.7847 S.3       23 UNK        -0.2404 
     17 C17         0.6144  -20.3713  -47.1865 C.3       23 UNK        -0.0398 
     18 CA         -0.4243  -21.3638  -46.6164 C.3       11 UNK         0.1400 
     19 N          -0.4990  -21.2788  -45.1563 N.am      11 UNK        -0.5000 
     20 C          -1.1719  -22.1333  -44.3738 C.2       10 UNK         0.5000 
     21 O          -1.7788  -23.1166  -44.7959 O.2       10 UNK        -0.5000 
     22 CA         -1.2139  -21.7989  -42.8736 C.3       10 UNK         0.1400 
     23 CB          0.0480  -22.3077  -42.1608 C.3       10 UNK        -0.1800 
     24 N          -1.3623  -20.3613  -42.6477 N.am      10 UNK        -0.5000 
     25 C          -2.4818  -19.6713  -42.9090 C.2       9 UNK         0.5000 
     26 O          -3.5227  -20.1857  -43.3191 O.2       9 UNK        -0.5000 
     27 CA         -2.4009  -18.1435  -42.7360 C.3       9 UNK         0.1400 
     28 CB         -2.5394  -17.7578  -41.2566 C.3       9 UNK        -0.1800 
     29 N          -1.1571  -17.5903  -43.2776 N.am      9 UNK        -0.5000 
     30 C          -0.8348  -17.6167  -44.5798 C.2       8 UNK         0.5000 
     31 O          -1.5870  -18.0406  -45.4518 O.2       8 UNK        -0.5000 
     32 CA          0.5704  -17.1496  -44.9918 C.3       8 UNK         0.1400 
     33 CB          0.5278  -15.7497  -45.6059 C.3       8 UNK        -0.1800 
     34 N           1.5471  -17.1916  -43.9096 N.am      8 UNK        -0.5000 
     35 C           1.9984  -18.3251  -43.3526 C.2       7 UNK         0.5000 
     36 O           1.5459  -19.4385  -43.6330 O.2       7 UNK        -0.5000 
     37 CA          3.1392  -18.1808  -42.3227 C.3       7 UNK         0.1400 
     38 CB          3.9781  -19.4665  -42.1787 C.3       7 UNK        -0.1800 
     39 N           3.9990  -17.0199  -42.5844 N.am      7 UNK        -0.5000 
     40 C           4.7099  -16.7572  -43.6947 C.2       6 UNK         0.5000 
     41 O           4.8165  -17.5389  -44.6403 O.2       6 UNK        -0.5000 
     42 CA          5.3910  -15.3773  -43.7838 C.3       6 UNK         0.1400 
     43 CB          4.9727  -14.6348  -45.0659 C.3       6 UNK        -0.1800 
     44 N           5.0699  -14.5418  -42.6229 N.am      6 UNK        -0.5000 
     45 C           5.9168  -14.2950  -41.6153 C.2       5 UNK         0.5000 
     46 O           7.0864  -14.6804  -41.5929 O.2       5 UNK        -0.5000 
     47 CA          5.3692  -13.5056  -40.4124 C.3       5 UNK         0.1400 
     48 CB          5.6039  -11.9995  -40.5986 C.3       5 UNK        -0.1800 
     49 N           3.9545  -13.7513  -40.1100 N.am      5 UNK        -0.5000 
     50 C           3.4718  -14.9188  -39.6580 C.2       4 UNK         0.5000 
     51 O           4.1215  -15.9636  -39.6347 O.2       4 UNK        -0.5000 
     52 CA          2.0261  -14.9192  -39.1387 C.3       4 UNK         0.1400 
     53 CB          1.9290  -14.1749  -37.7971 C.3       4 UNK        -0.1800 
     54 N           1.1128  -14.3073  -40.0991 N.am      4 UNK        -0.5000 
     55 C           0.4136  -14.9944  -41.0092 C.2       3 UNK         0.5000 
     56 O           0.4537  -16.2185  -41.1429 O.2       3 UNK        -0.5000 
     57 CA         -0.4633  -14.1620  -41.9588 C.3       3 UNK         0.1400 
     58 CB         -1.7039  -13.6275  -41.2257 C.3       3 UNK        -0.1800 
     59 N           0.2238  -13.0447  -42.6119 N.am      3 UNK        -0.5000 
     60 C           1.3996  -13.0876  -43.2530 C.2       2 UNK         0.5000 
     61 O           2.1565  -14.0627  -43.2636 O.2       2 UNK        -0.5000 
     62 CA          1.7747  -11.8258  -44.0500 C.3       2 UNK         0.1400 
     63 CB          3.1612  -11.3023  -43.6515 C.3       2 UNK        -0.1800 
     64 N           1.7516  -12.0918  -45.4876 N.am      2 UNK        -0.5000 
     65 C           0.6404  -12.2958  -46.2123 C.2       1 UNK         0.5000 
     66 O          -0.4944  -12.2425  -45.7348 O.2       1 UNK        -0.5000 
     67 C          -1.8106  -21.2059  -47.2817 C.2       11 UNK         0.5000 
     68 O          -2.1386  -21.9696  -48.1901 O.2       11 UNK        -0.5000 
     69 N          -2.6165  -20.2554  -46.7881 N.am      12 UNK        -0.5000 
     70 CA         -3.9991  -20.0271  -47.2017 C.3       12 UNK         0.1400 
     71 CB         -4.5090  -18.7016  -46.6186 C.3       12 UNK        -0.1800 
     72 C          -4.9291  -21.1896  -46.8213 C.2       12 UNK         0.5000 
     73 O          -5.7444  -21.5957  -47.6484 O.2       12 UNK        -0.5000 
     74 N          -4.7640  -21.7383  -45.6082 N.am      13 UNK        -0.5000 
     75 CA         -5.4964  -22.9140  -45.1253 C.3       13 UNK         0.1400 
     76 CB         -5.1951  -23.1362  -43.6358 C.3       13 UNK        -0.1800 
     77 C          -5.1946  -24.1860  -45.9427 C.2       13 UNK         0.5000 
     78 O          -6.1060  -24.9691  -46.2110 O.2       13 UNK        -0.5000 
     79 N          -3.9317  -24.3424  -46.3611 N.am      14 UNK        -0.5000 
     80 CA         -3.4686  -25.3930  -47.2700 C.3       14 UNK         0.1400 
     81 CB         -1.9462  -25.5389  -47.1121 C.3       14 UNK        -0.1800 
     82 C          -3.8217  -25.1269  -48.7486 C.2       14 UNK         0.5000 
     83 O          -3.6089  -26.0088  -49.5813 O.2       14 UNK        -0.5000 
     84 N          -4.3011  -23.9135  -49.0618 N.am      15 UNK        -0.5000 
     85 CA         -4.5892  -23.3749  -50.3947 C.3       15 UNK         0.1400 
     86 CB         -5.8413  -24.0468  -50.9910 C.3       15 UNK        -0.1800 
     87 C          -3.3638  -23.4423  -51.3301 C.2       15 UNK         0.5000 
     88 O          -3.4775  -23.8802  -52.4769 O.2       15 UNK        -0.5000 
     89 N          -2.1901  -23.0901  -50.7838 N.am      16 UNK        -0.5000 
     90 CA         -0.8519  -23.1861  -51.3859 C.3       16 UNK         0.1400 
     91 CB         -0.7416  -22.2479  -52.6068 C.3       16 UNK        -0.1800 
     92 C          -0.4143  -24.6235  -51.7543 C.2       16 UNK         0.5000 
     93 O           0.6106  -24.7853  -52.4179 O.2       16 UNK        -0.5000 
     94 N          -1.2085  -25.6333  -51.3604 N.am      17 UNK        -0.5000 
     95 CA         -1.1752  -27.0261  -51.8161 C.3       17 UNK         0.1400 
     96 CB          0.0954  -27.7404  -51.3108 C.3       17 UNK        -0.1800 
     97 C          -1.3851  -27.1620  -53.3434 C.2       17 UNK         0.5000 
     98 O          -0.8827  -28.1137  -53.9447 O.2       17 UNK        -0.5000 
     99 N          -2.1054  -26.2040  -53.9478 N.am      18 UNK        -0.5000 
    100 CA        -2.2619  -26.0807  -55.3990 C.3       18 UNK         0.1400 
    101 CB        -1.1452  -25.1763  -55.9493 C.3       18 UNK        -0.1800 
    102 C         -3.6412  -25.5553  -55.8325 C.2       18 UNK         0.5000 
    103 O         -4.0236  -25.7949  -56.9787 O.2       18 UNK        -0.5000 
    104 N         -4.3598  -24.8546  -54.9412 N.am      19 UNK        -0.5000 
    105 CA        -5.6240  -24.1574  -55.1898 C.3       19 UNK         0.1400 
    106 CB        -6.7682  -25.1500  -55.4953 C.3       19 UNK        -0.1800 
    107 C         -5.4386  -23.0358  -56.2320 C.2       19 UNK         0.5000 
    108 O         -4.6333  -22.1344  -55.9892 O.2       19 UNK        -0.5000 
    109 N         -6.1791  -23.0911  -57.3498 N.am      20 UNK        -0.5000 
    110 CA        -6.1953  -22.1148  -58.4449 C.3       20 UNK         0.1400 
    111 CB        -4.8609  -22.1470  -59.2245 C.3       20 UNK        -0.1800 
    112 C         -6.5922  -20.7188  -57.9244 C.2       20 UNK         0.5000 
    113 O         -7.7424  -20.5395  -57.5202 O.2       20 UNK        -0.5000 
    114 N         -5.6369  -19.7801  -57.8757 N.am      21 UNK        -0.5000 
    115 CA        -5.7927  -18.4445  -57.2907 C.3       21 UNK         0.1400 
    116 CB        -4.5089  -17.6379  -57.5378 C.3       21 UNK        -0.1800 
    117 C         -6.1386  -18.4611  -55.7861 C.2       21 UNK         0.5000 
    118 O         -6.8009  -17.5381  -55.3102 O.2       21 UNK        -0.5000 
    119 N         -5.7151  -19.5164  -55.0792 N.am      22 UNK        -0.5000 
    120 CA        -6.0808  -19.8007  -53.6838 C.3       22 UNK         0.1400 
    121 C         -7.3992  -20.6209  -53.5405 C.2       22 UNK         0.5000 
    122 N         -8.1061  -20.9713  -54.6094 N.am      22 UNK        -0.7600 
    123 O         -7.8004  -20.9430  -52.4263 O.2       22 UNK        -0.5000 
    124 C124       -4.9169  -20.4802  -52.9192 C.3       23 UNK        -0.0398 
    125 S125       -3.4313  -19.4273  -52.7938 S.3       23 UNK        -0.2404 
    126 C126       -3.3440  -19.1718  -50.9948 C.3       23 UNK        -0.0205 
    127 H127        2.8230   -9.2204  -49.9616 H         1 UNK         0.0600 
    128 H128        3.8721  -10.4759  -49.2980 H         1 UNK         0.0600 
    129 H129        3.5169   -9.0306  -48.3478 H         1 UNK         0.0600 
    130 H130        2.7374  -12.2459  -48.5981 H         1 UNK         0.3000 
    131 H131        1.2607  -13.5992  -47.7614 H         1 UNK         0.0600 
    132 H132       -1.1520  -11.8042  -48.2171 H         1 UNK         0.0800 
    133 H133       -0.2433  -12.3149  -49.5975 H         1 UNK         0.0800 
    134 H134       -1.4053  -14.4588  -50.9468 H         1 UNK         0.0800 
    135 H135        0.2407  -14.5542  -50.3718 H         1 UNK         0.0800 
    136 H136       -2.9091  -16.4769  -50.7817 H         1 UNK         0.1150 
    137 H137       -0.9573  -20.2615  -50.3314 H         1 UNK         0.1150 
    138 H138        1.2057  -16.6355  -49.5922 H         1 UNK         0.1150 
    139 H139        2.0488  -19.5133  -50.5802 H         1 UNK         0.0800 
    140 H140        2.2317  -18.7242  -49.0322 H         1 UNK         0.0800 
    141 H141        1.4605  -20.2738  -46.5042 H         1 UNK         0.0800 
    142 H142        0.1848  -19.3734  -47.2813 H         1 UNK         0.0800 
    143 H143       -0.0803  -22.3768  -46.8375 H         1 UNK         0.0600 
    144 H144        0.0032  -20.5195  -44.7118 H         1 UNK         0.3000 
    145 H145       -2.0775  -22.3068  -42.4392 H         1 UNK         0.0600 
    146 H146        0.0020  -22.1108  -41.0897 H         1 UNK         0.0600 
    147 H147        0.1579  -23.3854  -42.2886 H         1 UNK         0.0600 
    148 H148        0.9523  -21.8386  -42.5494 H         1 UNK         0.0600 
    149 H149       -0.5321  -19.8572  -42.3699 H         1 UNK         0.3000 
    150 H150       -3.2364  -17.7019  -43.2833 H         1 UNK         0.0600 
    151 H151       -3.4511  -18.1748  -40.8269 H         1 UNK         0.0600 
    152 H152       -2.5916  -16.6771  -41.1377 H         1 UNK         0.0600 
    153 H153       -1.6990  -18.1202  -40.6631 H         1 UNK         0.0600 
    154 H154       -0.4800  -17.2365  -42.6091 H         1 UNK         0.3000 
    155 H155        0.9292  -17.8284  -45.7655 H         1 UNK         0.0600 
    156 H156        1.5272  -15.3857  -45.8440 H         1 UNK         0.0600 
    157 H157        0.0486  -15.0316  -44.9429 H         1 UNK         0.0600 
    158 H158       -0.0430  -15.7669  -46.5329 H         1 UNK         0.0600 
    159 H159        1.9366  -16.3066  -43.6084 H         1 UNK         0.3000 
    160 H160        2.6569  -17.9916  -41.3627 H         1 UNK         0.0600 
    161 H161        4.4400  -19.7571  -43.1226 H         1 UNK         0.0600 
    162 H162        3.3597  -20.3017  -41.8476 H         1 UNK         0.0600 
    163 H163        4.7705  -19.3387  -41.4413 H         1 UNK         0.0600 
    164 H164        4.0218  -16.3309  -41.8440 H         1 UNK         0.3000 
    165 H165        6.4659  -15.5587  -43.8429 H         1 UNK         0.0600 
    166 H166        3.8933  -14.5006  -45.1267 H         1 UNK         0.0600 
    167 H167        5.4384  -13.6509  -45.1213 H         1 UNK         0.0600 
    168 H168        5.2806  -15.1869  -45.9546 H         1 UNK         0.0600 
    169 H169        4.1141  -14.2048  -42.5715 H         1 UNK         0.3000 
    170 H170        5.9431  -13.8206  -39.5380 H         1 UNK         0.0600 
    171 H171        6.6651  -11.7864  -40.7338 H         1 UNK         0.0600 
    172 H172        5.0835  -11.6145  -41.4735 H         1 UNK         0.0600 
    173 H173        5.2694  -11.4342  -39.7286 H         1 UNK         0.0600 
    174 H174        3.3488  -12.9453  -40.1163 H         1 UNK         0.3000 
    175 H175        1.7368  -15.9573  -38.9597 H         1 UNK         0.0600 
    176 H176        2.1836  -13.1190  -37.8951 H         1 UNK         0.0600 
    177 H177        0.9208  -14.2380  -37.3872 H         1 UNK         0.0600 
    178 H178        2.6057  -14.6092  -37.0600 H         1 UNK         0.0600 
    179 H179        1.0200  -13.3026  -40.0775 H         1 UNK         0.3000 
    180 H180       -0.8084  -14.8301  -42.7483 H         1 UNK         0.0600 
    181 H181       -1.4425  -12.8591  -40.4973 H         1 UNK         0.0600 
    182 H182       -2.2219  -14.4212  -40.6873 H         1 UNK         0.0600 
    183 H183       -2.4179  -13.1943  -41.9265 H         1 UNK         0.0600 
    184 H184       -0.3170  -12.1954  -42.6892 H         1 UNK         0.3000 
    185 H185        1.0490  -11.0377  -43.8378 H         1 UNK         0.0600 
    186 H186        3.1731  -11.0267  -42.5972 H         1 UNK         0.0600 
    187 H187        3.4247  -10.4103  -44.2201 H         1 UNK         0.0600 
    188 H188        3.9428  -12.0449  -43.8132 H         1 UNK         0.0600 
    189 H189        2.6472  -12.1550  -45.9478 H         1 UNK         0.3000 
    190 H190       -2.2472  -19.6039  -46.0990 H         1 UNK         0.3000 
    191 H191       -4.0122  -19.9392  -48.2877 H         1 UNK         0.0600 
    192 H192       -3.9126  -17.8617  -46.9761 H         1 UNK         0.0600 
    193 H193       -5.5422  -18.5150  -46.9138 H         1 UNK         0.0600 
    194 H194       -4.4710  -18.6992  -45.5288 H         1 UNK         0.0600 
    195 H195       -4.1040  -21.3162  -44.9637 H         1 UNK         0.3000 
    196 H196       -6.5630  -22.7032  -45.2259 H         1 UNK         0.0600 
    197 H197       -5.7610  -23.9829  -43.2455 H         1 UNK         0.0600 
    198 H198       -5.4673  -22.2624  -43.0436 H         1 UNK         0.0600 
    199 H199       -4.1387  -23.3412  -43.4636 H         1 UNK         0.0600 
    200 H200       -3.2263  -23.6922  -46.0271 H         1 UNK         0.3000 
    201 H201       -3.9362  -26.3374  -46.9848 H         1 UNK         0.0600 
    202 H202       -1.6776  -25.7747  -46.0822 H         1 UNK         0.0600 
    203 H203       -1.4247  -24.6226  -47.3916 H         1 UNK         0.0600 
    204 H204       -1.5591  -26.3419  -47.7407 H         1 UNK         0.0600 
    205 H205       -4.4299  -23.2576  -48.3024 H         1 UNK         0.3000 
    206 H206       -4.8133  -22.3186  -50.2485 H         1 UNK         0.0600 
    207 H207       -6.6813  -23.9959  -50.2982 H         1 UNK         0.0600 
    208 H208       -6.1514  -23.5461  -51.9080 H         1 UNK         0.0600 
    209 H209       -5.6651  -25.0963  -51.2294 H         1 UNK         0.0600 
    210 H210       -2.2020  -22.7614  -49.8182 H         1 UNK         0.3000 
    211 H211       -0.1522  -22.8371  -50.6265 H         1 UNK         0.0600 
    212 H212       -1.3434  -22.6000  -53.4451 H         1 UNK         0.0600 
    213 H213        0.2894  -22.1764  -52.9543 H         1 UNK         0.0600 
    214 H214       -1.0689  -21.2379  -52.3700 H         1 UNK         0.0600 
    215 H215       -2.0231  -25.4021  -50.8030 H         1 UNK         0.3000 
    216 H216       -2.0325  -27.5155  -51.3522 H         1 UNK         0.0600 
    217 H217        0.2124  -27.6198  -50.2338 H         1 UNK         0.0600 
    218 H218        0.9956  -27.3576  -51.7919 H         1 UNK         0.0600 
    219 H219        0.0482  -28.8111  -51.5126 H         1 UNK         0.0600 
    220 H220       -2.4913  -25.4592  -53.3790 H         1 UNK         0.3000 
    221 H221       -2.1614  -27.0661  -55.8587 H         1 UNK         0.0600 
    222 H222       -1.1891  -24.1780  -55.5121 H         1 UNK         0.0600 
    223 H223       -0.1597  -25.5910  -55.7366 H         1 UNK         0.0600 
    224 H224       -1.2248  -25.0662  -57.0316 H         1 UNK         0.0600 
    225 H225       -3.9464  -24.6326  -54.0390 H         1 UNK         0.3000 
    226 H226       -5.8775  -23.6514  -54.2581 H         1 UNK         0.0600 
    227 H227       -6.8673  -25.8824  -54.6941 H         1 UNK         0.0600 
    228 H228       -7.7251  -24.6322  -55.5727 H         1 UNK         0.0600 
    229 H229       -6.6099  -25.6989  -56.4238 H         1 UNK         0.0600 
    230 H230       -6.8232  -23.8629  -57.4476 H         1 UNK         0.3000 
    231 H231       -6.9858  -22.4233  -59.1304 H         1 UNK         0.0600 
    232 H232       -4.8797  -21.4506  -60.0638 H         1 UNK         0.0600 
    233 H233       -4.6798  -23.1397  -59.6368 H         1 UNK         0.0600 
    234 H234       -4.0039  -21.8938  -58.5999 H         1 UNK         0.0600 
    235 H235       -4.7103  -20.0278  -58.1911 H         1 UNK         0.3000 
    236 H236       -6.6152  -17.9487  -57.8101 H         1 UNK         0.0600 
    237 H237       -4.2966  -17.5487  -58.6034 H         1 UNK         0.0600 
    238 H238       -4.6005  -16.6263  -57.1399 H         1 UNK         0.0600 
    239 H239       -3.6453  -18.1016  -57.0592 H         1 UNK         0.0600 
    240 H240       -5.1911  -20.2471  -55.5505 H         1 UNK         0.3000 
    241 H241       -6.2807  -18.8534  -53.1797 H         1 UNK         0.0600 
    242 H242       -8.9614  -21.4868  -54.4769 H         1 UNK         0.3800 
    243 H243       -7.8384  -20.6905  -55.5463 H         1 UNK         0.3800 
    244 H244       -4.6336  -21.4152  -53.4040 H         1 UNK         0.0800 
    245 H245       -5.2363  -20.7485  -51.9124 H         1 UNK         0.0800 
    246 H246       -3.3799  -20.1427  -50.4992 H         1 UNK         0.0800 
    247 H247       -4.2188  -18.6125  -50.6594 H         1 UNK         0.0800 
@<TRIPOS>BOND
     1    1    2 1    
     2    1  127 1    
     3    1  128 1    
     4    1  129 1    
     5    2    3 2    
     6    2    4 am   BACKBONE|DICT|INTERRES
     7    4    5 1    
     8    4  130 1    
     9    5    6 1    
    10    5   65 1    
    11    5  131 1    
    12    6    7 1    
    13    6  132 1    
    14    6  133 1    
    15    7    8 1    
    16    8    9 1    
    17    8  134 1    
    18    8  135 1    
    19    9   10 ar   
    20    9   14 ar   
    21   10   11 ar   
    22   10  136 1    
    23   11   12 ar   
    24   11  126 1    
    25   12   13 ar   
    26   12  137 1    
    27   13   14 ar   
    28   13   15 1    
    29   14  138 1    
    30   15   16 1    
    31   15  139 1    
    32   15  140 1    
    33   16   17 1    
    34   17   18 1    
    35   17  141 1    
    36   17  142 1    
    37   18   19 1    
    38   18   67 1    
    39   18  143 1    
    40   19   20 am   BACKBONE|DICT|INTERRES
    41   19  144 1    
    42   20   21 2    
    43   20   22 1    
    44   22   23 1    
    45   22   24 1    
    46   22  145 1    
    47   23  146 1    
    48   23  147 1    
    49   23  148 1    
    50   24   25 am   BACKBONE|DICT|INTERRES
    51   24  149 1    
    52   25   26 2    
    53   25   27 1    
    54   27   28 1    
    55   27   29 1    
    56   27  150 1    
    57   28  151 1    
    58   28  152 1    
    59   28  153 1    
    60   29   30 am   BACKBONE|DICT|INTERRES
    61   29  154 1    
    62   30   31 2    
    63   30   32 1    
    64   32   33 1    
    65   32   34 1    
    66   32  155 1    
    67   33  156 1    
    68   33  157 1    
    69   33  158 1    
    70   34   35 am   BACKBONE|DICT|INTERRES
    71   34  159 1    
    72   35   36 2    
    73   35   37 1    
    74   37   38 1    
    75   37   39 1    
    76   37  160 1    
    77   38  161 1    
    78   38  162 1    
    79   38  163 1    
    80   39   40 am   BACKBONE|DICT|INTERRES
    81   39  164 1    
    82   40   41 2    
    83   40   42 1    
    84   42   43 1    
    85   42   44 1    
    86   42  165 1    
    87   43  166 1    
    88   43  167 1    
    89   43  168 1    
    90   44   45 am   BACKBONE|DICT|INTERRES
    91   44  169 1    
    92   45   46 2    
    93   45   47 1    
    94   47   48 1    
    95   47   49 1    
    96   47  170 1    
    97   48  171 1    
    98   48  172 1    
    99   48  173 1    
   100   49   50 am   BACKBONE|DICT|INTERRES
   101   49  174 1    
   102   50   51 2    
   103   50   52 1    
   104   52   53 1    
   105   52   54 1    
   106   52  175 1    
   107   53  176 1    
   108   53  177 1    
   109   53  178 1    
   110   54   55 am   BACKBONE|DICT|INTERRES
   111   54  179 1    
   112   55   56 2    
   113   55   57 1    
   114   57   58 1    
   115   57   59 1    
   116   57  180 1    
   117   58  181 1    
   118   58  182 1    
   119   58  183 1    
   120   59   60 am   BACKBONE|DICT|INTERRES
   121   59  184 1    
   122   60   61 2    
   123   60   62 1    
   124   62   63 1    
   125   62   64 1    
   126   62  185 1    
   127   63  186 1    
   128   63  187 1    
   129   63  188 1    
   130   64   65 am   BACKBONE|DICT|INTERRES
   131   64  189 1    
   132   65   66 2    
   133   67   68 2    
   134   67   69 am   BACKBONE|DICT|INTERRES
   135   69   70 1    
   136   69  190 1    
   137   70   71 1    
   138   70   72 1    
   139   70  191 1    
   140   71  192 1    
   141   71  193 1    
   142   71  194 1    
   143   72   73 2    
   144   72   74 am   BACKBONE|DICT|INTERRES
   145   74   75 1    
   146   74  195 1    
   147   75   76 1    
   148   75   77 1    
   149   75  196 1    
   150   76  197 1    
   151   76  198 1    
   152   76  199 1    
   153   77   78 2    
   154   77   79 am   BACKBONE|DICT|INTERRES
   155   79   80 1    
   156   79  200 1    
   157   80   81 1    
   158   80   82 1    
   159   80  201 1    
   160   81  202 1    
   161   81  203 1    
   162   81  204 1    
   163   82   83 2    
   164   82   84 am   BACKBONE|DICT|INTERRES
   165   84   85 1    
   166   84  205 1    
   167   85   86 1    
   168   85   87 1    
   169   85  206 1    
   170   86  207 1    
   171   86  208 1    
   172   86  209 1    
   173   87   88 2    
   174   87   89 am   BACKBONE|DICT|INTERRES
   175   89   90 1    
   176   89  210 1    
   177   90   91 1    
   178   90   92 1    
   179   90  211 1    
   180   91  212 1    
   181   91  213 1    
   182   91  214 1    
   183   92   93 2    
   184   92   94 am   BACKBONE|DICT|INTERRES
   185   94   95 1    
   186   94  215 1    
   187   95   96 1    
   188   95   97 1    
   189   95  216 1    
   190   96  217 1    
   191   96  218 1    
   192   96  219 1    
   193   97   98 2    
   194   97   99 am   BACKBONE|DICT|INTERRES
   195   99  100 1    
   196   99  220 1    
   197  100  101 1    
   198  100  102 1    
   199  100  221 1    
   200  101  222 1    
   201  101  223 1    
   202  101  224 1    
   203  102  103 2    
   204  102  104 am   BACKBONE|DICT|INTERRES
   205  104  105 1    
   206  104  225 1    
   207  105  106 1    
   208  105  107 1    
   209  105  226 1    
   210  106  227 1    
   211  106  228 1    
   212  106  229 1    
   213  107  108 2    
   214  107  109 am   BACKBONE|DICT|INTERRES
   215  109  110 1    
   216  109  230 1    
   217  110  111 1    
   218  110  112 1    
   219  110  231 1    
   220  111  232 1    
   221  111  233 1    
   222  111  234 1    
   223  112  113 2    
   224  112  114 am   BACKBONE|DICT|INTERRES
   225  114  115 1    
   226  114  235 1    
   227  115  116 1    
   228  115  117 1    
   229  115  236 1    
   230  116  237 1    
   231  116  238 1    
   232  116  239 1    
   233  117  118 2    
   234  117  119 am   BACKBONE|DICT|INTERRES
   235  119  120 1    
   236  119  240 1    
   237  120  121 1    
   238  120  124 1    
   239  120  241 1    
   240  121  122 am   BACKBONE|DICT|INTERRES
   241  121  123 2    
   242  122  242 1    
   243  122  243 1    
   244  124  125 1    
   245  124  244 1    
   246  124  245 1    
   247  125  126 1    
   248  126  246 1    
   249  126  247 1    
@<TRIPOS>SUBSTRUCTURE
     1 UNK         1 GROUP             0       ****    0 ROOT    
