@<TRIPOS>MOLECULE
3R540
247   249    1
SMALL
USER_CHARGES


@<TRIPOS>ATOM
      1 CA         -2.1650  -12.1207  -51.7125 C.3       0 UNK        -0.1800 
      2 C          -1.1001  -12.0629  -50.6261 C.2       0 UNK         0.5000 
      3 O          -0.0591  -11.4354  -50.8201 O.2       0 UNK        -0.5000 
      4 N          -1.3561  -12.7202  -49.4883 N.am      1 UNK        -0.5000 
      5 CA         -0.4408  -12.8019  -48.3426 C.3       1 UNK         0.1400 
      6 C6         -0.8299  -13.9414  -47.3723 C.3       23 UNK        -0.0398 
      7 S7         -0.7080  -15.5925  -48.1306 S.3       23 UNK        -0.2404 
      8 C8         -2.4546  -15.9407  -48.5341 C.3       23 UNK        -0.0205 
      9 C9         -2.7032  -17.3995  -48.8998 C.ar      23 UNK        -0.0193 
     10 C10        -3.8328  -18.0617  -48.4073 C.ar      23 UNK        -0.1150 
     11 C11        -4.0860  -19.3931  -48.7531 C.ar      23 UNK        -0.0193 
     12 C12        -3.1855  -20.0679  -49.5815 C.ar      23 UNK        -0.1150 
     13 C13        -2.0478  -19.4232  -50.0715 C.ar      23 UNK        -0.0193 
     14 C14        -1.8225  -18.0874  -49.7396 C.ar      23 UNK        -0.1150 
     15 C15        -1.0418  -20.1612  -50.9410 C.3       23 UNK        -0.0205 
     16 S16        -0.4975  -21.7566  -50.2511 S.3       23 UNK        -0.2404 
     17 C17        -0.1221  -21.3386  -48.5113 C.3       23 UNK        -0.0398 
     18 CA         -0.0918  -22.5849  -47.6028 C.3       11 UNK         0.1400 
     19 N           0.4987  -22.2803  -46.3003 N.am      11 UNK        -0.5000 
     20 C           0.9458  -23.2059  -45.4429 C.2       10 UNK         0.5000 
     21 O           0.9273  -24.4139  -45.6756 O.2       10 UNK        -0.5000 
     22 CA          1.4616  -22.7010  -44.0841 C.3       10 UNK         0.1400 
     23 CB          2.8885  -22.1480  -44.2132 C.3       10 UNK        -0.1800 
     24 N           0.5880  -21.6861  -43.4929 N.am      10 UNK        -0.5000 
     25 C          -0.6794  -21.9103  -43.1174 C.2       9 UNK         0.5000 
     26 O          -1.2305  -23.0080  -43.1999 O.2       9 UNK        -0.5000 
     27 CA         -1.4797  -20.7028  -42.5978 C.3       9 UNK         0.1400 
     28 CB         -1.1260  -20.4044  -41.1334 C.3       9 UNK        -0.1800 
     29 N          -1.2880  -19.4981  -43.4057 N.am      9 UNK        -0.5000 
     30 C          -1.6284  -19.3803  -44.6976 C.2       8 UNK         0.5000 
     31 O          -2.1598  -20.2756  -45.3505 O.2       8 UNK        -0.5000 
     32 CA         -1.2587  -18.0596  -45.3930 C.3       8 UNK         0.1400 
     33 CB         -2.2169  -16.9329  -44.9749 C.3       8 UNK        -0.1800 
     34 N           0.1238  -17.6680  -45.1219 N.am      8 UNK        -0.5000 
     35 C           1.1981  -18.3969  -45.4596 C.2       7 UNK         0.5000 
     36 O           1.1458  -19.4555  -46.0865 O.2       7 UNK        -0.5000 
     37 CA          2.5564  -17.8872  -44.9541 C.3       7 UNK         0.1400 
     38 CB          3.1206  -16.8090  -45.8918 C.3       7 UNK        -0.1800 
     39 N           2.4609  -17.3690  -43.5883 N.am      7 UNK        -0.5000 
     40 C           2.2594  -18.1364  -42.5064 C.2       6 UNK         0.5000 
     41 O           2.1761  -19.3637  -42.5462 O.2       6 UNK        -0.5000 
     42 CA          2.0797  -17.4095  -41.1604 C.3       6 UNK         0.1400 
     43 CB          3.4436  -17.0712  -40.5408 C.3       6 UNK        -0.1800 
     44 N           1.2851  -16.1868  -41.2816 N.am      6 UNK        -0.5000 
     45 C          -0.0148  -16.1568  -41.6083 C.2       5 UNK         0.5000 
     46 O          -0.6951  -17.1665  -41.7842 O.2       5 UNK        -0.5000 
     47 CA         -0.6491  -14.7681  -41.8217 C.3       5 UNK         0.1400 
     48 CB         -1.2571  -14.2452  -40.5125 C.3       5 UNK        -0.1800 
     49 N           0.2838  -13.7700  -42.3526 N.am      5 UNK        -0.5000 
     50 C           0.9379  -13.8638  -43.5165 C.2       4 UNK         0.5000 
     51 O           0.8178  -14.8248  -44.2785 O.2       4 UNK        -0.5000 
     52 CA          1.8928  -12.7020  -43.8616 C.3       4 UNK         0.1400 
     53 CB          2.7347  -12.9823  -45.1191 C.3       4 UNK        -0.1800 
     54 N           1.1892  -11.4252  -44.0187 N.am      4 UNK        -0.5000 
     55 C           0.7562  -10.6589  -43.0051 C.2       3 UNK         0.5000 
     56 O           0.8669  -10.9879  -41.8224 O.2       3 UNK        -0.5000 
     57 CA          0.1102   -9.2977  -43.3371 C.3       3 UNK         0.1400 
     58 CB          1.0753   -8.1519  -42.9940 C.3       3 UNK        -0.1800 
     59 N          -0.3005   -9.1565  -44.7336 N.am      3 UNK        -0.5000 
     60 C          -1.3973   -9.7041  -45.2707 C.2       2 UNK         0.5000 
     61 O          -2.1957  -10.3951  -44.6360 O.2       2 UNK        -0.5000 
     62 CA         -1.6389   -9.4692  -46.7781 C.3       2 UNK         0.1400 
     63 CB         -0.7978   -8.3240  -47.3864 C.3       2 UNK        -0.1800 
     64 N          -1.4516  -10.7060  -47.5417 N.am      2 UNK        -0.5000 
     65 C          -0.3510  -11.4741  -47.5640 C.2       1 UNK         0.5000 
     66 O           0.6966  -11.1857  -46.9838 O.2       1 UNK        -0.5000 
     67 C          -1.4713  -23.2719  -47.4674 C.2       11 UNK         0.5000 
     68 O          -1.7609  -24.1904  -48.2352 O.2       11 UNK        -0.5000 
     69 N          -2.2781  -22.8730  -46.4723 N.am      12 UNK        -0.5000 
     70 CA         -3.5405  -23.5282  -46.1207 C.3       12 UNK         0.1400 
     71 CB         -4.2876  -22.7111  -45.0557 C.3       12 UNK        -0.1800 
     72 C          -3.3329  -24.9776  -45.6448 C.2       12 UNK         0.5000 
     73 O          -4.0583  -25.8678  -46.0878 O.2       12 UNK        -0.5000 
     74 N          -2.3122  -25.2024  -44.8040 N.am      13 UNK        -0.5000 
     75 CA         -1.8828  -26.5291  -44.3496 C.3       13 UNK         0.1400 
     76 CB         -0.8339  -26.3769  -43.2380 C.3       13 UNK        -0.1800 
     77 C          -1.3485  -27.4158  -45.4932 C.2       13 UNK         0.5000 
     78 O          -1.5411  -28.6314  -45.4606 O.2       13 UNK        -0.5000 
     79 N          -0.7356  -26.7879  -46.5058 N.am      14 UNK        -0.5000 
     80 CA         -0.2989  -27.4113  -47.7576 C.3       14 UNK         0.1400 
     81 CB          0.8414  -26.5730  -48.3587 C.3       14 UNK        -0.1800 
     82 C          -1.4420  -27.6109  -48.7803 C.2       14 UNK         0.5000 
     83 O          -1.1756  -28.0893  -49.8833 O.2       14 UNK        -0.5000 
     84 N          -2.6805  -27.2538  -48.4061 N.am      15 UNK        -0.5000 
     85 CA         -3.9226  -27.3737  -49.1734 C.3       15 UNK         0.1400 
     86 CB         -4.2481  -28.8519  -49.4779 C.3       15 UNK        -0.1800 
     87 C          -3.9586  -26.4656  -50.4190 C.2       15 UNK         0.5000 
     88 O          -4.4069  -26.8996  -51.4818 O.2       15 UNK        -0.5000 
     89 N          -3.5074  -25.2130  -50.2487 N.am      16 UNK        -0.5000 
     90 CA         -3.4627  -24.1400  -51.2475 C.3       16 UNK         0.1400 
     91 CB         -4.8809  -23.7505  -51.7142 C.3       16 UNK        -0.1800 
     92 C          -2.5104  -24.4899  -52.4052 C.2       16 UNK         0.5000 
     93 O          -2.9275  -24.5803  -53.5624 O.2       16 UNK        -0.5000 
     94 N          -1.2410  -24.7183  -52.0482 N.am      17 UNK        -0.5000 
     95 CA         -0.1447  -25.1060  -52.9347 C.3       17 UNK         0.1400 
     96 CB          1.0096  -25.6401  -52.0686 C.3       17 UNK        -0.1800 
     97 C           0.2986  -23.9661  -53.8790 C.2       17 UNK         0.5000 
     98 O           1.3925  -23.4201  -53.7218 O.2       17 UNK        -0.5000 
     99 N          -0.5677  -23.6438  -54.8485 N.am      18 UNK        -0.5000 
    100 CA        -0.4256  -22.6050  -55.8720 C.3       18 UNK         0.1400 
    101 CB         0.7283  -22.9445  -56.8429 C.3       18 UNK        -0.1800 
    102 C         -0.3465  -21.1934  -55.2525 C.2       18 UNK         0.5000 
    103 O         -1.0846  -20.9158  -54.3057 O.2       18 UNK        -0.5000 
    104 N          0.5114  -20.3225  -55.8056 N.am      19 UNK        -0.5000 
    105 CA         0.7250  -18.9257  -55.4125 C.3       19 UNK         0.1400 
    106 CB         1.4491  -18.8576  -54.0488 C.3       19 UNK        -0.1800 
    107 C         -0.5857  -18.1114  -55.4825 C.2       19 UNK         0.5000 
    108 O         -1.1910  -18.0469  -56.5542 O.2       19 UNK        -0.5000 
    109 N         -1.0107  -17.5221  -54.3565 N.am      20 UNK        -0.5000 
    110 CA        -2.2698  -16.7845  -54.2286 C.3       20 UNK         0.1400 
    111 CB        -2.2191  -15.9242  -52.9555 C.3       20 UNK        -0.1800 
    112 C         -3.5168  -17.6928  -54.2142 C.2       20 UNK         0.5000 
    113 O         -4.6159  -17.1952  -54.4625 O.2       20 UNK        -0.5000 
    114 N         -3.3352  -18.9882  -53.9052 N.am      21 UNK        -0.5000 
    115 CA        -4.3448  -20.0565  -53.8732 C.3       21 UNK         0.1400 
    116 CB        -4.7002  -20.4785  -55.3124 C.3       21 UNK        -0.1800 
    117 C         -5.5927  -19.7317  -53.0189 C.2       21 UNK         0.5000 
    118 O         -6.7044  -20.1347  -53.3658 O.2       21 UNK        -0.5000 
    119 N         -5.3772  -18.9836  -51.9300 N.am      22 UNK        -0.5000 
    120 CA        -6.3981  -18.4316  -51.0225 C.3       22 UNK         0.1400 
    121 C         -7.2941  -17.3164  -51.6458 C.2       22 UNK         0.5000 
    122 N         -6.9537  -16.7436  -52.7946 N.am      22 UNK        -0.7600 
    123 O         -8.3052  -16.9342  -51.0624 O.2       22 UNK        -0.5000 
    124 C124       -7.2373  -19.5075  -50.2698 C.3       23 UNK        -0.0398 
    125 S125       -6.2964  -20.9004  -49.5495 S.3       23 UNK        -0.2404 
    126 C126       -5.3238  -20.1071  -48.2260 C.3       23 UNK        -0.0205 
    127 H127       -2.5368  -11.1189  -51.9274 H         1 UNK         0.0600 
    128 H128       -3.0110  -12.7431  -51.4199 H         1 UNK         0.0600 
    129 H129       -1.7432  -12.5331  -52.6291 H         1 UNK         0.0600 
    130 H130       -2.2265  -13.2210  -49.3937 H         1 UNK         0.3000 
    131 H131        0.5603  -13.0136  -48.7251 H         1 UNK         0.0600 
    132 H132       -0.1603  -13.9475  -46.5125 H         1 UNK         0.0800 
    133 H133       -1.8313  -13.7877  -46.9670 H         1 UNK         0.0800 
    134 H134       -3.0787  -15.6612  -47.6844 H         1 UNK         0.0800 
    135 H135       -2.7635  -15.3167  -49.3727 H         1 UNK         0.0800 
    136 H136       -4.5224  -17.5372  -47.7611 H         1 UNK         0.1150 
    137 H137       -3.3680  -21.1013  -49.8371 H         1 UNK         0.1150 
    138 H138       -0.9468  -17.5838  -50.1234 H         1 UNK         0.1150 
    139 H139       -1.4971  -20.3401  -51.9120 H         1 UNK         0.0800 
    140 H140       -0.1579  -19.5467  -51.1132 H         1 UNK         0.0800 
    141 H141       -0.8290  -20.6120  -48.1105 H         1 UNK         0.0800 
    142 H142        0.8509  -20.8455  -48.5005 H         1 UNK         0.0800 
    143 H143        0.5726  -23.3079  -48.0803 H         1 UNK         0.0600 
    144 H144        0.5774  -21.2966  -46.0547 H         1 UNK         0.3000 
    145 H145        1.4895  -23.5543  -43.4032 H         1 UNK         0.0600 
    146 H146        3.2926  -21.8708  -43.2395 H         1 UNK         0.0600 
    147 H147        3.5590  -22.8930  -44.6435 H         1 UNK         0.0600 
    148 H148        2.9228  -21.2657  -44.8528 H         1 UNK         0.0600 
    149 H149        0.9901  -20.7648  -43.3505 H         1 UNK         0.3000 
    150 H150       -2.5387  -20.9642  -42.6429 H         1 UNK         0.0600 
    151 H151       -1.2730  -21.2857  -40.5078 H         1 UNK         0.0600 
    152 H152       -1.7554  -19.6108  -40.7305 H         1 UNK         0.0600 
    153 H153       -0.0866  -20.0930  -41.0252 H         1 UNK         0.0600 
    154 H154       -0.8915  -18.6925  -42.9294 H         1 UNK         0.3000 
    155 H155       -1.3507  -18.2094  -46.4703 H         1 UNK         0.0600 
    156 H156       -3.2293  -17.1416  -45.3221 H         1 UNK         0.0600 
    157 H157       -1.9167  -15.9750  -45.3972 H         1 UNK         0.0600 
    158 H158       -2.2624  -16.8159  -43.8930 H         1 UNK         0.0600 
    159 H159        0.2703  -16.7845  -44.6461 H         1 UNK         0.3000 
    160 H160        3.2526  -18.7286  -44.9505 H         1 UNK         0.0600 
    161 H161        2.4397  -15.9648  -45.9990 H         1 UNK         0.0600 
    162 H162        3.2875  -17.2161  -46.8897 H         1 UNK         0.0600 
    163 H163        4.0765  -16.4295  -45.5310 H         1 UNK         0.0600 
    164 H164        2.4403  -16.3648  -43.4867 H         1 UNK         0.3000 
    165 H165        1.5562  -18.0881  -40.4834 H         1 UNK         0.0600 
    166 H166        3.3280  -16.6265  -39.5522 H         1 UNK         0.0600 
    167 H167        4.0514  -17.9693  -40.4228 H         1 UNK         0.0600 
    168 H168        4.0072  -16.3723  -41.1601 H         1 UNK         0.0600 
    169 H169        1.7671  -15.3103  -41.1480 H         1 UNK         0.3000 
    170 H170       -1.4540  -14.8842  -42.5498 H         1 UNK         0.0600 
    171 H171       -1.9765  -14.9564  -40.1041 H         1 UNK         0.0600 
    172 H172       -0.4928  -14.0768  -39.7529 H         1 UNK         0.0600 
    173 H173       -1.7853  -13.3048  -40.6713 H         1 UNK         0.0600 
    174 H174        0.4167  -12.9230  -41.8087 H         1 UNK         0.3000 
    175 H175        2.5916  -12.6072  -43.0278 H         1 UNK         0.0600 
    176 H176        2.1139  -13.1756  -45.9934 H         1 UNK         0.0600 
    177 H177        3.3895  -12.1427  -45.3526 H         1 UNK         0.0600 
    178 H178        3.3702  -13.8559  -44.9720 H         1 UNK         0.0600 
    179 H179        1.0286  -11.1182  -44.9729 H         1 UNK         0.3000 
    180 H180       -0.7735   -9.1960  -42.7037 H         1 UNK         0.0600 
    181 H181        1.9803   -8.1930  -43.6014 H         1 UNK         0.0600 
    182 H182        1.3802   -8.1957  -41.9476 H         1 UNK         0.0600 
    183 H183        0.6070   -7.1803  -43.1530 H         1 UNK         0.0600 
    184 H184        0.3190   -8.6347  -45.3367 H         1 UNK         0.3000 
    185 H185       -2.6896   -9.1941  -46.8794 H         1 UNK         0.0600 
    186 H186       -0.9599   -7.3889  -46.8490 H         1 UNK         0.0600 
    187 H187        0.2713   -8.5367  -47.3718 H         1 UNK         0.0600 
    188 H188       -1.0800   -8.1485  -48.4245 H         1 UNK         0.0600 
    189 H189       -2.2645  -11.0371  -48.0408 H         1 UNK         0.3000 
    190 H190       -2.0234  -22.0564  -45.9218 H         1 UNK         0.3000 
    191 H191       -4.1594  -23.5567  -47.0201 H         1 UNK         0.0600 
    192 H192       -4.4836  -21.6952  -45.3959 H         1 UNK         0.0600 
    193 H193       -5.2508  -23.1659  -44.8216 H         1 UNK         0.0600 
    194 H194       -3.7228  -22.6453  -44.1264 H         1 UNK         0.0600 
    195 H195       -1.7929  -24.4075  -44.4412 H         1 UNK         0.3000 
    196 H196       -2.7543  -27.0317  -43.9252 H         1 UNK         0.0600 
    197 H197       -0.5229  -27.3508  -42.8583 H         1 UNK         0.0600 
    198 H198       -1.2321  -25.8110  -42.3957 H         1 UNK         0.0600 
    199 H199        0.0591  -25.8625  -43.5928 H         1 UNK         0.0600 
    200 H200       -0.5658  -25.7928  -46.4182 H         1 UNK         0.3000 
    201 H201        0.1010  -28.4007  -47.5274 H         1 UNK         0.0600 
    202 H202        1.6279  -26.3883  -47.6268 H         1 UNK         0.0600 
    203 H203        0.4856  -25.6093  -48.7212 H         1 UNK         0.0600 
    204 H204        1.3016  -27.0897  -49.2012 H         1 UNK         0.0600 
    205 H205       -2.7919  -26.8366  -47.4899 H         1 UNK         0.3000 
    206 H206       -4.7122  -27.0033  -48.5185 H         1 UNK         0.0600 
    207 H207       -4.2306  -29.4542  -48.5696 H         1 UNK         0.0600 
    208 H208       -5.2439  -28.9500  -49.9116 H         1 UNK         0.0600 
    209 H209       -3.5417  -29.2882  -50.1844 H         1 UNK         0.0600 
    210 H210       -3.0670  -24.9823  -49.3610 H         1 UNK         0.3000 
    211 H211       -3.0392  -23.2718  -50.7432 H         1 UNK         0.0600 
    212 H212       -5.3580  -24.5447  -52.2885 H         1 UNK         0.0600 
    213 H213       -4.8518  -22.8649  -52.3484 H         1 UNK         0.0600 
    214 H214       -5.5243  -23.5212  -50.8654 H         1 UNK         0.0600 
    215 H215       -0.9987  -24.6005  -51.0749 H         1 UNK         0.3000 
    216 H216       -0.4908  -25.9294  -53.5629 H         1 UNK         0.0600 
    217 H217        1.8569  -25.9418  -52.6855 H         1 UNK         0.0600 
    218 H218        0.6969  -26.5162  -51.5007 H         1 UNK         0.0600 
    219 H219        1.3654  -24.8893  -51.3617 H         1 UNK         0.0600 
    220 H220       -1.4841  -24.0785  -54.7918 H         1 UNK         0.3000 
    221 H221       -1.3528  -22.6242  -56.4461 H         1 UNK         0.0600 
    222 H222        1.7045  -22.8647  -56.3633 H         1 UNK         0.0600 
    223 H223        0.6303  -23.9613  -57.2235 H         1 UNK         0.0600 
    224 H224        0.7263  -22.2823  -57.7093 H         1 UNK         0.0600 
    225 H225        1.0505  -20.6355  -56.6001 H         1 UNK         0.3000 
    226 H226        1.3904  -18.4905  -56.1594 H         1 UNK         0.0600 
    227 H227        2.3965  -19.3953  -54.0884 H         1 UNK         0.0600 
    228 H228        1.6799  -17.8284  -53.7713 H         1 UNK         0.0600 
    229 H229        0.8593  -19.3003  -53.2469 H         1 UNK         0.0600 
    230 H230       -0.4547  -17.6210  -53.5203 H         1 UNK         0.3000 
    231 H231       -2.3646  -16.1148  -55.0859 H         1 UNK         0.0600 
    232 H232       -2.1325  -16.5370  -52.0593 H         1 UNK         0.0600 
    233 H233       -3.1235  -15.3229  -52.8530 H         1 UNK         0.0600 
    234 H234       -1.3741  -15.2358  -52.9752 H         1 UNK         0.0600 
    235 H235       -2.3833  -19.3109  -53.7748 H         1 UNK         0.3000 
    236 H236       -3.8629  -20.9079  -53.3910 H         1 UNK         0.0600 
    237 H237       -3.8043  -20.7380  -55.8769 H         1 UNK         0.0600 
    238 H238       -5.3495  -21.3547  -55.3172 H         1 UNK         0.0600 
    239 H239       -5.2158  -19.6810  -55.8484 H         1 UNK         0.0600 
    240 H240       -4.4276  -18.7090  -51.7273 H         1 UNK         0.3000 
    241 H241       -5.8316  -17.8916  -50.2672 H         1 UNK         0.0600 
    242 H242       -7.5410  -16.0185  -53.1739 H         1 UNK         0.3800 
    243 H243       -6.1228  -17.0283  -53.3063 H         1 UNK         0.3800 
    244 H244       -7.8092  -19.0423  -49.4654 H         1 UNK         0.0800 
    245 H245       -7.9763  -19.9372  -50.9475 H         1 UNK         0.0800 
    246 H246       -5.9636  -19.4291  -47.6594 H         1 UNK         0.0800 
    247 H247       -4.9967  -20.8794  -47.5305 H         1 UNK         0.0800 
@<TRIPOS>BOND
     1    1    2 1    
     2    1  127 1    
     3    1  128 1    
     4    1  129 1    
     5    2    3 2    
     6    2    4 am   BACKBONE|DICT|INTERRES
     7    4    5 1    
     8    4  130 1    
     9    5    6 1    
    10    5   65 1    
    11    5  131 1    
    12    6    7 1    
    13    6  132 1    
    14    6  133 1    
    15    7    8 1    
    16    8    9 1    
    17    8  134 1    
    18    8  135 1    
    19    9   10 ar   
    20    9   14 ar   
    21   10   11 ar   
    22   10  136 1    
    23   11   12 ar   
    24   11  126 1    
    25   12   13 ar   
    26   12  137 1    
    27   13   14 ar   
    28   13   15 1    
    29   14  138 1    
    30   15   16 1    
    31   15  139 1    
    32   15  140 1    
    33   16   17 1    
    34   17   18 1    
    35   17  141 1    
    36   17  142 1    
    37   18   19 1    
    38   18   67 1    
    39   18  143 1    
    40   19   20 am   BACKBONE|DICT|INTERRES
    41   19  144 1    
    42   20   21 2    
    43   20   22 1    
    44   22   23 1    
    45   22   24 1    
    46   22  145 1    
    47   23  146 1    
    48   23  147 1    
    49   23  148 1    
    50   24   25 am   BACKBONE|DICT|INTERRES
    51   24  149 1    
    52   25   26 2    
    53   25   27 1    
    54   27   28 1    
    55   27   29 1    
    56   27  150 1    
    57   28  151 1    
    58   28  152 1    
    59   28  153 1    
    60   29   30 am   BACKBONE|DICT|INTERRES
    61   29  154 1    
    62   30   31 2    
    63   30   32 1    
    64   32   33 1    
    65   32   34 1    
    66   32  155 1    
    67   33  156 1    
    68   33  157 1    
    69   33  158 1    
    70   34   35 am   BACKBONE|DICT|INTERRES
    71   34  159 1    
    72   35   36 2    
    73   35   37 1    
    74   37   38 1    
    75   37   39 1    
    76   37  160 1    
    77   38  161 1    
    78   38  162 1    
    79   38  163 1    
    80   39   40 am   BACKBONE|DICT|INTERRES
    81   39  164 1    
    82   40   41 2    
    83   40   42 1    
    84   42   43 1    
    85   42   44 1    
    86   42  165 1    
    87   43  166 1    
    88   43  167 1    
    89   43  168 1    
    90   44   45 am   BACKBONE|DICT|INTERRES
    91   44  169 1    
    92   45   46 2    
    93   45   47 1    
    94   47   48 1    
    95   47   49 1    
    96   47  170 1    
    97   48  171 1    
    98   48  172 1    
    99   48  173 1    
   100   49   50 am   BACKBONE|DICT|INTERRES
   101   49  174 1    
   102   50   51 2    
   103   50   52 1    
   104   52   53 1    
   105   52   54 1    
   106   52  175 1    
   107   53  176 1    
   108   53  177 1    
   109   53  178 1    
   110   54   55 am   BACKBONE|DICT|INTERRES
   111   54  179 1    
   112   55   56 2    
   113   55   57 1    
   114   57   58 1    
   115   57   59 1    
   116   57  180 1    
   117   58  181 1    
   118   58  182 1    
   119   58  183 1    
   120   59   60 am   BACKBONE|DICT|INTERRES
   121   59  184 1    
   122   60   61 2    
   123   60   62 1    
   124   62   63 1    
   125   62   64 1    
   126   62  185 1    
   127   63  186 1    
   128   63  187 1    
   129   63  188 1    
   130   64   65 am   BACKBONE|DICT|INTERRES
   131   64  189 1    
   132   65   66 2    
   133   67   68 2    
   134   67   69 am   BACKBONE|DICT|INTERRES
   135   69   70 1    
   136   69  190 1    
   137   70   71 1    
   138   70   72 1    
   139   70  191 1    
   140   71  192 1    
   141   71  193 1    
   142   71  194 1    
   143   72   73 2    
   144   72   74 am   BACKBONE|DICT|INTERRES
   145   74   75 1    
   146   74  195 1    
   147   75   76 1    
   148   75   77 1    
   149   75  196 1    
   150   76  197 1    
   151   76  198 1    
   152   76  199 1    
   153   77   78 2    
   154   77   79 am   BACKBONE|DICT|INTERRES
   155   79   80 1    
   156   79  200 1    
   157   80   81 1    
   158   80   82 1    
   159   80  201 1    
   160   81  202 1    
   161   81  203 1    
   162   81  204 1    
   163   82   83 2    
   164   82   84 am   BACKBONE|DICT|INTERRES
   165   84   85 1    
   166   84  205 1    
   167   85   86 1    
   168   85   87 1    
   169   85  206 1    
   170   86  207 1    
   171   86  208 1    
   172   86  209 1    
   173   87   88 2    
   174   87   89 am   BACKBONE|DICT|INTERRES
   175   89   90 1    
   176   89  210 1    
   177   90   91 1    
   178   90   92 1    
   179   90  211 1    
   180   91  212 1    
   181   91  213 1    
   182   91  214 1    
   183   92   93 2    
   184   92   94 am   BACKBONE|DICT|INTERRES
   185   94   95 1    
   186   94  215 1    
   187   95   96 1    
   188   95   97 1    
   189   95  216 1    
   190   96  217 1    
   191   96  218 1    
   192   96  219 1    
   193   97   98 2    
   194   97   99 am   BACKBONE|DICT|INTERRES
   195   99  100 1    
   196   99  220 1    
   197  100  101 1    
   198  100  102 1    
   199  100  221 1    
   200  101  222 1    
   201  101  223 1    
   202  101  224 1    
   203  102  103 2    
   204  102  104 am   BACKBONE|DICT|INTERRES
   205  104  105 1    
   206  104  225 1    
   207  105  106 1    
   208  105  107 1    
   209  105  226 1    
   210  106  227 1    
   211  106  228 1    
   212  106  229 1    
   213  107  108 2    
   214  107  109 am   BACKBONE|DICT|INTERRES
   215  109  110 1    
   216  109  230 1    
   217  110  111 1    
   218  110  112 1    
   219  110  231 1    
   220  111  232 1    
   221  111  233 1    
   222  111  234 1    
   223  112  113 2    
   224  112  114 am   BACKBONE|DICT|INTERRES
   225  114  115 1    
   226  114  235 1    
   227  115  116 1    
   228  115  117 1    
   229  115  236 1    
   230  116  237 1    
   231  116  238 1    
   232  116  239 1    
   233  117  118 2    
   234  117  119 am   BACKBONE|DICT|INTERRES
   235  119  120 1    
   236  119  240 1    
   237  120  121 1    
   238  120  124 1    
   239  120  241 1    
   240  121  122 am   BACKBONE|DICT|INTERRES
   241  121  123 2    
   242  122  242 1    
   243  122  243 1    
   244  124  125 1    
   245  124  244 1    
   246  124  245 1    
   247  125  126 1    
   248  126  246 1    
   249  126  247 1    
@<TRIPOS>SUBSTRUCTURE
     1 UNK         1 GROUP             0       ****    0 ROOT    
