@<TRIPOS>MOLECULE
3R540
247   249    1
SMALL
USER_CHARGES


@<TRIPOS>ATOM
      1 CA          4.6932  -10.5317  -47.9068 C.3       0 UNK        -0.1800 
      2 C           4.6264  -12.0132  -48.2503 C.2       0 UNK         0.5000 
      3 O           5.4802  -12.5114  -48.9848 O.2       0 UNK        -0.5000 
      4 N           3.6111  -12.7134  -47.7309 N.am      1 UNK        -0.5000 
      5 CA          3.4071  -14.1560  -47.8984 C.3       1 UNK         0.1400 
      6 C6          1.9803  -14.5858  -47.4695 C.3       23 UNK        -0.0398 
      7 S7          0.6445  -13.6849  -48.3419 S.3       23 UNK        -0.2404 
      8 C8          0.8361  -14.1857  -50.0884 C.3       23 UNK        -0.0205 
      9 C9          0.4347  -15.6341  -50.3172 C.ar      23 UNK        -0.0193 
     10 C10        -0.8471  -15.9550  -50.7756 C.ar      23 UNK        -0.1150 
     11 C11        -1.2205  -17.2907  -50.9539 C.ar      23 UNK        -0.0193 
     12 C12        -0.3163  -18.3069  -50.6310 C.ar      23 UNK        -0.1150 
     13 C13         0.9679  -17.9967  -50.1761 C.ar      23 UNK        -0.0193 
     14 C14         1.3482  -16.6586  -50.0630 C.ar      23 UNK        -0.1150 
     15 C15         1.9345  -19.1027  -49.7767 C.3       23 UNK        -0.0205 
     16 S16         2.5752  -18.9061  -48.0761 S.3       23 UNK        -0.2404 
     17 C17         1.0553  -18.7440  -47.0798 C.3       23 UNK        -0.0398 
     18 CA          0.4542  -20.1166  -46.6779 C.3       11 UNK         0.1400 
     19 N          -0.0017  -20.1443  -45.2865 N.am      11 UNK        -0.5000 
     20 C          -0.3682  -21.2506  -44.6231 C.2       10 UNK         0.5000 
     21 O          -0.2955  -22.3868  -45.0902 O.2       10 UNK        -0.5000 
     22 CA         -0.9772  -21.0411  -43.2254 C.3       10 UNK         0.1400 
     23 CB          0.1182  -21.0100  -42.1483 C.3       10 UNK        -0.1800 
     24 N          -1.7772  -19.8152  -43.1638 N.am      10 UNK        -0.5000 
     25 C          -2.9618  -19.6715  -43.7797 C.2       9 UNK         0.5000 
     26 O          -3.5125  -20.5774  -44.4036 O.2       9 UNK        -0.5000 
     27 CA         -3.6274  -18.2817  -43.7379 C.3       9 UNK         0.1400 
     28 CB         -4.5573  -18.1718  -42.5208 C.3       9 UNK        -0.1800 
     29 N          -2.6703  -17.1766  -43.7094 N.am      9 UNK        -0.5000 
     30 C          -1.7583  -16.9060  -44.6548 C.2       8 UNK         0.5000 
     31 O          -1.6672  -17.5269  -45.7140 O.2       8 UNK        -0.5000 
     32 CA         -0.7253  -15.8098  -44.3169 C.3       8 UNK         0.1400 
     33 CB         -1.1511  -14.4579  -44.9052 C.3       8 UNK        -0.1800 
     34 N          -0.4945  -15.6673  -42.8722 N.am      8 UNK        -0.5000 
     35 C           0.0211  -16.6362  -42.1039 C.2       7 UNK         0.5000 
     36 O           0.3909  -17.7233  -42.5508 O.2       7 UNK        -0.5000 
     37 CA          0.0506  -16.3922  -40.5911 C.3       7 UNK         0.1400 
     38 CB         -1.2245  -16.9920  -39.9618 C.3       7 UNK        -0.1800 
     39 N           1.2568  -17.0150  -40.0541 N.am      7 UNK        -0.5000 
     40 C           1.6731  -17.0079  -38.7813 C.2       6 UNK         0.5000 
     41 O           1.0705  -16.4611  -37.8570 O.2       6 UNK        -0.5000 
     42 CA          3.0212  -17.6919  -38.5048 C.3       6 UNK         0.1400 
     43 CB          3.0168  -19.1667  -38.9461 C.3       6 UNK        -0.1800 
     44 N           4.0684  -16.9673  -39.2166 N.am      6 UNK        -0.5000 
     45 C           4.8221  -15.9925  -38.6894 C.2       5 UNK         0.5000 
     46 O           4.8424  -15.7132  -37.4899 O.2       5 UNK        -0.5000 
     47 CA          5.6828  -15.1669  -39.6705 C.3       5 UNK         0.1400 
     48 CB          7.0933  -15.7645  -39.7851 C.3       5 UNK        -0.1800 
     49 N           5.0957  -15.0696  -41.0091 N.am      5 UNK        -0.5000 
     50 C           3.9255  -14.4806  -41.2939 C.2       4 UNK         0.5000 
     51 O           3.2766  -13.8253  -40.4780 O.2       4 UNK        -0.5000 
     52 CA          3.3557  -14.6845  -42.7130 C.3       4 UNK         0.1400 
     53 CB          3.5012  -13.3945  -43.5331 C.3       4 UNK        -0.1800 
     54 N           3.9048  -15.8271  -43.4637 N.am      4 UNK        -0.5000 
     55 C           3.8503  -17.1116  -43.0667 C.2       3 UNK         0.5000 
     56 O           3.4137  -17.4514  -41.9673 O.2       3 UNK        -0.5000 
     57 CA          4.3566  -18.2111  -44.0203 C.3       3 UNK         0.1400 
     58 CB          3.3155  -19.3358  -44.1463 C.3       3 UNK        -0.1800 
     59 N           4.6854  -17.7045  -45.3542 N.am      3 UNK        -0.5000 
     60 C           5.9246  -17.4084  -45.7671 C.2       2 UNK         0.5000 
     61 O           6.9280  -17.5293  -45.0634 O.2       2 UNK        -0.5000 
     62 CA          6.0737  -16.8629  -47.2018 C.3       2 UNK         0.1400 
     63 CB          6.3713  -18.0050  -48.1854 C.3       2 UNK        -0.1800 
     64 N           4.9296  -16.0845  -47.6941 N.am      2 UNK        -0.5000 
     65 C           4.4879  -14.9503  -47.1329 C.2       1 UNK         0.5000 
     66 O           4.9005  -14.5302  -46.0508 O.2       1 UNK        -0.5000 
     67 C          -0.6875  -20.5197  -47.6290 C.2       11 UNK         0.5000 
     68 O          -0.4900  -21.3684  -48.4963 O.2       11 UNK        -0.5000 
     69 N          -1.8737  -19.9333  -47.4141 N.am      12 UNK        -0.5000 
     70 CA         -3.0977  -20.2314  -48.1559 C.3       12 UNK         0.1400 
     71 CB         -4.2036  -19.2591  -47.7214 C.3       12 UNK        -0.1800 
     72 C          -3.5515  -21.6956  -48.0079 C.2       12 UNK         0.5000 
     73 O          -3.9537  -22.3065  -48.9986 O.2       12 UNK        -0.5000 
     74 N          -3.4390  -22.2457  -46.7911 N.am      13 UNK        -0.5000 
     75 CA         -3.6974  -23.6540  -46.4938 C.3       13 UNK         0.1400 
     76 CB         -3.6788  -23.8766  -44.9741 C.3       13 UNK        -0.1800 
     77 C          -2.7063  -24.5969  -47.2002 C.2       13 UNK         0.5000 
     78 O          -3.1360  -25.5883  -47.7900 O.2       13 UNK        -0.5000 
     79 N          -1.4095  -24.2556  -47.1617 N.am      14 UNK        -0.5000 
     80 CA         -0.3346  -24.9960  -47.8278 C.3       14 UNK         0.1400 
     81 CB          1.0263  -24.4500  -47.3690 C.3       14 UNK        -0.1800 
     82 C          -0.4440  -24.9670  -49.3644 C.2       14 UNK         0.5000 
     83 O          -0.2058  -25.9876  -50.0111 O.2       14 UNK        -0.5000 
     84 N          -0.8252  -23.8078  -49.9163 N.am      15 UNK        -0.5000 
     85 CA         -1.0584  -23.5922  -51.3453 C.3       15 UNK         0.1400 
     86 CB         -1.0703  -22.0801  -51.6216 C.3       15 UNK        -0.1800 
     87 C          -2.3595  -24.2332  -51.8664 C.2       15 UNK         0.5000 
     88 O          -2.5034  -24.3737  -53.0808 O.2       15 UNK        -0.5000 
     89 N          -3.2791  -24.5831  -50.9531 N.am      16 UNK        -0.5000 
     90 CA         -4.6453  -25.0555  -51.1973 C.3       16 UNK         0.1400 
     91 CB         -4.6496  -26.4256  -51.9066 C.3       16 UNK        -0.1800 
     92 C          -5.4729  -23.9854  -51.9344 C.2       16 UNK         0.5000 
     93 O          -6.0259  -24.2462  -53.0047 O.2       16 UNK        -0.5000 
     94 N          -5.5056  -22.7803  -51.3476 N.am      17 UNK        -0.5000 
     95 CA         -6.0401  -21.5375  -51.9104 C.3       17 UNK         0.1400 
     96 CB         -6.0063  -20.4443  -50.8344 C.3       17 UNK        -0.1800 
     97 C          -7.4444  -21.6176  -52.5300 C.2       17 UNK         0.5000 
     98 O          -7.6830  -20.9624  -53.5440 O.2       17 UNK        -0.5000 
     99 N          -8.3284  -22.4277  -51.9338 N.am      18 UNK        -0.5000 
    100 CA        -9.6930  -22.6621  -52.4096 C.3       18 UNK         0.1400 
    101 CB       -10.4766  -23.4195  -51.3269 C.3       18 UNK        -0.1800 
    102 C         -9.7571  -23.4206  -53.7505 C.2       18 UNK         0.5000 
    103 O        -10.6918  -23.2009  -54.5216 O.2       18 UNK        -0.5000 
    104 N         -8.7695  -24.2885  -54.0064 N.am      19 UNK        -0.5000 
    105 CA        -8.6291  -25.0424  -55.2514 C.3       19 UNK         0.1400 
    106 CB        -8.0443  -26.4292  -54.9390 C.3       19 UNK        -0.1800 
    107 C         -7.7368  -24.2929  -56.2541 C.2       19 UNK         0.5000 
    108 O         -8.0326  -24.2898  -57.4494 O.2       19 UNK        -0.5000 
    109 N         -6.6650  -23.6672  -55.7488 N.am      20 UNK        -0.5000 
    110 CA        -5.6780  -22.9248  -56.5344 C.3       20 UNK         0.1400 
    111 CB        -4.4156  -22.7358  -55.6788 C.3       20 UNK        -0.1800 
    112 C         -6.1807  -21.5621  -57.0512 C.2       20 UNK         0.5000 
    113 O         -5.5832  -21.0235  -57.9837 O.2       20 UNK        -0.5000 
    114 N         -7.2389  -21.0231  -56.4258 N.am      21 UNK        -0.5000 
    115 CA        -7.8007  -19.6800  -56.6177 C.3       21 UNK         0.1400 
    116 CB        -8.3796  -19.5087  -58.0379 C.3       21 UNK        -0.1800 
    117 C         -6.7938  -18.5778  -56.2226 C.2       21 UNK         0.5000 
    118 O         -6.6474  -17.5763  -56.9262 O.2       21 UNK        -0.5000 
    119 N         -6.0966  -18.8113  -55.1048 N.am      22 UNK        -0.5000 
    120 CA        -5.0851  -17.9162  -54.5294 C.3       22 UNK         0.1400 
    121 C         -5.7338  -16.6967  -53.8177 C.2       22 UNK         0.5000 
    122 N         -5.1833  -15.5024  -53.9859 N.am      22 UNK        -0.7600 
    123 O         -6.7119  -16.8321  -53.0859 O.2       22 UNK        -0.5000 
    124 C124       -4.1537  -18.7086  -53.5796 C.3       23 UNK        -0.0398 
    125 S125       -2.5373  -17.9170  -53.2920 S.3       23 UNK        -0.2404 
    126 C126       -2.5968  -17.6438  -51.4931 C.3       23 UNK        -0.0205 
    127 H127        4.6487   -9.9329  -48.8165 H         1 UNK         0.0600 
    128 H128        5.6288  -10.3076  -47.3946 H         1 UNK         0.0600 
    129 H129        3.8701  -10.2282  -47.2593 H         1 UNK         0.0600 
    130 H130        2.9450  -12.2473  -47.1327 H         1 UNK         0.3000 
    131 H131        3.5349  -14.3829  -48.9575 H         1 UNK         0.0600 
    132 H132        1.8310  -15.6573  -47.5996 H         1 UNK         0.0800 
    133 H133        1.8423  -14.4065  -46.4022 H         1 UNK         0.0800 
    134 H134        0.2122  -13.5325  -50.7002 H         1 UNK         0.0800 
    135 H135        1.8576  -14.0150  -50.4275 H         1 UNK         0.0800 
    136 H136       -1.5523  -15.1663  -50.9975 H         1 UNK         0.1150 
    137 H137       -0.6149  -19.3396  -50.7375 H         1 UNK         0.1150 
    138 H138        2.3467  -16.4191  -49.7309 H         1 UNK         0.1150 
    139 H139        1.4630  -20.0822  -49.8655 H         1 UNK         0.0800 
    140 H140        2.7750  -19.1047  -50.4716 H         1 UNK         0.0800 
    141 H141        1.3366  -18.1775  -46.1936 H         1 UNK         0.0800 
    142 H142        0.3319  -18.0998  -47.5828 H         1 UNK         0.0800 
    143 H143        1.2305  -20.8808  -46.7592 H         1 UNK         0.0600 
    144 H144       -0.1400  -19.2522  -44.8341 H         1 UNK         0.3000 
    145 H145       -1.6330  -21.8881  -43.0133 H         1 UNK         0.0600 
    146 H146       -0.3020  -20.8264  -41.1594 H         1 UNK         0.0600 
    147 H147        0.6452  -21.9639  -42.1068 H         1 UNK         0.0600 
    148 H148        0.8632  -20.2393  -42.3443 H         1 UNK         0.0600 
    149 H149       -1.3450  -19.0173  -42.7155 H         1 UNK         0.3000 
    150 H150       -4.2309  -18.1732  -44.6405 H         1 UNK         0.0600 
    151 H151       -5.3032  -18.9678  -42.5268 H         1 UNK         0.0600 
    152 H152       -5.0961  -17.2241  -42.5193 H         1 UNK         0.0600 
    153 H153       -4.0049  -18.2469  -41.5832 H         1 UNK         0.0600 
    154 H154       -2.6707  -16.6055  -42.8781 H         1 UNK         0.3000 
    155 H155        0.2197  -16.0996  -44.7816 H         1 UNK         0.0600 
    156 H156       -0.3801  -13.7019  -44.7547 H         1 UNK         0.0600 
    157 H157       -2.0745  -14.0937  -44.4535 H         1 UNK         0.0600 
    158 H158       -1.3202  -14.5369  -45.9801 H         1 UNK         0.0600 
    159 H159       -0.7972  -14.8019  -42.4477 H         1 UNK         0.3000 
    160 H160        0.0956  -15.3189  -40.3975 H         1 UNK         0.0600 
    161 H161       -1.2540  -18.0767  -40.0739 H         1 UNK         0.0600 
    162 H162       -2.1223  -16.5890  -40.4319 H         1 UNK         0.0600 
    163 H163       -1.2997  -16.7643  -38.8992 H         1 UNK         0.0600 
    164 H164        1.8416  -17.4545  -40.7620 H         1 UNK         0.3000 
    165 H165        3.2037  -17.6653  -37.4285 H         1 UNK         0.0600 
    166 H166        2.8740  -19.2782  -40.0215 H         1 UNK         0.0600 
    167 H167        3.9568  -19.6534  -38.6861 H         1 UNK         0.0600 
    168 H168        2.2171  -19.7182  -38.4504 H         1 UNK         0.0600 
    169 H169        4.0733  -17.0920  -40.2249 H         1 UNK         0.3000 
    170 H170        5.7686  -14.1562  -39.2663 H         1 UNK         0.0600 
    171 H171        7.5705  -15.8288  -38.8064 H         1 UNK         0.0600 
    172 H172        7.0710  -16.7704  -40.2064 H         1 UNK         0.0600 
    173 H173        7.7330  -15.1486  -40.4175 H         1 UNK         0.0600 
    174 H174        5.5608  -15.5776  -41.7467 H         1 UNK         0.3000 
    175 H175        2.2891  -14.8716  -42.5898 H         1 UNK         0.0600 
    176 H176        4.5472  -13.1694  -43.7438 H         1 UNK         0.0600 
    177 H177        2.9709  -13.4666  -44.4816 H         1 UNK         0.0600 
    178 H178        3.0839  -12.5392  -43.0000 H         1 UNK         0.0600 
    179 H179        4.3197  -15.6080  -44.3629 H         1 UNK         0.3000 
    180 H180        5.2468  -18.6443  -43.5602 H         1 UNK         0.0600 
    181 H181        2.3205  -18.9390  -44.3359 H         1 UNK         0.0600 
    182 H182        3.2547  -19.9089  -43.2204 H         1 UNK         0.0600 
    183 H183        3.5652  -20.0346  -44.9450 H         1 UNK         0.0600 
    184 H184        3.9211  -17.5839  -46.0023 H         1 UNK         0.3000 
    185 H185        6.9368  -16.1938  -47.1978 H         1 UNK         0.0600 
    186 H186        6.5711  -17.6237  -49.1869 H         1 UNK         0.0600 
    187 H187        7.2515  -18.5688  -47.8733 H         1 UNK         0.0600 
    188 H188        5.5415  -18.7084  -48.2524 H         1 UNK         0.0600 
    189 H189        4.5406  -16.3863  -48.5751 H         1 UNK         0.3000 
    190 H190       -1.9325  -19.2086  -46.7051 H         1 UNK         0.3000 
    191 H191       -2.8860  -20.0622  -49.2122 H         1 UNK         0.0600 
    192 H192       -5.1198  -19.4203  -48.2882 H         1 UNK         0.0600 
    193 H193       -3.9015  -18.2231  -47.8774 H         1 UNK         0.0600 
    194 H194       -4.4530  -19.3812  -46.6683 H         1 UNK         0.0600 
    195 H195       -3.1755  -21.6553  -46.0083 H         1 UNK         0.3000 
    196 H196       -4.6993  -23.8923  -46.8572 H         1 UNK         0.0600 
    197 H197       -3.8908  -24.9181  -44.7294 H         1 UNK         0.0600 
    198 H198       -4.4330  -23.2659  -44.4776 H         1 UNK         0.0600 
    199 H199       -2.7098  -23.6281  -44.5411 H         1 UNK         0.0600 
    200 H200       -1.1309  -23.4400  -46.6257 H         1 UNK         0.3000 
    201 H201       -0.4038  -26.0389  -47.5118 H         1 UNK         0.0600 
    202 H202        1.1456  -24.5466  -46.2898 H         1 UNK         0.0600 
    203 H203        1.1459  -23.3968  -47.6248 H         1 UNK         0.0600 
    204 H204        1.8454  -24.9971  -47.8372 H         1 UNK         0.0600 
    205 H205       -0.9206  -22.9920  -49.3154 H         1 UNK         0.3000 
    206 H206       -0.2291  -24.0349  -51.9006 H         1 UNK         0.0600 
    207 H207       -0.1227  -21.6236  -51.3363 H         1 UNK         0.0600 
    208 H208       -1.2238  -21.8725  -52.6814 H         1 UNK         0.0600 
    209 H209       -1.8667  -21.5786  -51.0702 H         1 UNK         0.0600 
    210 H210       -3.0563  -24.3954  -49.9844 H         1 UNK         0.3000 
    211 H211       -5.1061  -25.1885  -50.2174 H         1 UNK         0.0600 
    212 H212       -4.2479  -26.3656  -52.9184 H         1 UNK         0.0600 
    213 H213       -5.6642  -26.8180  -51.9844 H         1 UNK         0.0600 
    214 H214       -4.0591  -27.1560  -51.3537 H         1 UNK         0.0600 
    215 H215       -4.9908  -22.6736  -50.4751 H         1 UNK         0.3000 
    216 H216       -5.3611  -21.2473  -52.7116 H         1 UNK         0.0600 
    217 H217       -6.4696  -19.5207  -51.1855 H         1 UNK         0.0600 
    218 H218       -4.9801  -20.2064  -50.5592 H         1 UNK         0.0600 
    219 H219       -6.5361  -20.7535  -49.9326 H         1 UNK         0.0600 
    220 H220       -8.0374  -22.9326  -51.1097 H         1 UNK         0.3000 
    221 H221      -10.1690  -21.6906  -52.5590 H         1 UNK         0.0600 
    222 H222      -10.0329  -24.3933  -51.1160 H         1 UNK         0.0600 
    223 H223      -10.5083  -22.8549  -50.3948 H         1 UNK         0.0600 
    224 H224      -11.5083  -23.5891  -51.6378 H         1 UNK         0.0600 
    225 H225       -7.9998  -24.3619  -53.3500 H         1 UNK         0.3000 
    226 H226       -9.6085  -25.1876  -55.7123 H         1 UNK         0.0600 
    227 H227       -8.6915  -26.9845  -54.2601 H         1 UNK         0.0600 
    228 H228       -7.9410  -27.0224  -55.8484 H         1 UNK         0.0600 
    229 H229       -7.0579  -26.3599  -54.4785 H         1 UNK         0.0600 
    230 H230       -6.4677  -23.7726  -54.7568 H         1 UNK         0.3000 
    231 H231       -5.4115  -23.5267  -57.4057 H         1 UNK         0.0600 
    232 H232       -3.6349  -22.2170  -56.2365 H         1 UNK         0.0600 
    233 H233       -4.0061  -23.6960  -55.3642 H         1 UNK         0.0600 
    234 H234       -4.6212  -22.1528  -54.7816 H         1 UNK         0.0600 
    235 H235       -7.6110  -21.5264  -55.6297 H         1 UNK         0.3000 
    236 H236       -8.6314  -19.5963  -55.9154 H         1 UNK         0.0600 
    237 H237       -9.0811  -20.3083  -58.2758 H         1 UNK         0.0600 
    238 H238       -8.9205  -18.5658  -58.1251 H         1 UNK         0.0600 
    239 H239       -7.6004  -19.5075  -58.8002 H         1 UNK         0.0600 
    240 H240       -6.3635  -19.6164  -54.5525 H         1 UNK         0.3000 
    241 H241       -4.4801  -17.5468  -55.3603 H         1 UNK         0.0600 
    242 H242       -4.3688  -15.3747  -54.5667 H         1 UNK         0.3800 
    243 H243       -5.5889  -14.7054  -53.5207 H         1 UNK         0.3800 
    244 H244       -4.6498  -18.8988  -52.6301 H         1 UNK         0.0800 
    245 H245       -3.9356  -19.6882  -54.0073 H         1 UNK         0.0800 
    246 H246       -2.9595  -18.5440  -50.9971 H         1 UNK         0.0800 
    247 H247       -3.3144  -16.8531  -51.2679 H         1 UNK         0.0800 
@<TRIPOS>BOND
     1    1    2 1    
     2    1  127 1    
     3    1  128 1    
     4    1  129 1    
     5    2    3 2    
     6    2    4 am   BACKBONE|DICT|INTERRES
     7    4    5 1    
     8    4  130 1    
     9    5    6 1    
    10    5   65 1    
    11    5  131 1    
    12    6    7 1    
    13    6  132 1    
    14    6  133 1    
    15    7    8 1    
    16    8    9 1    
    17    8  134 1    
    18    8  135 1    
    19    9   10 ar   
    20    9   14 ar   
    21   10   11 ar   
    22   10  136 1    
    23   11   12 ar   
    24   11  126 1    
    25   12   13 ar   
    26   12  137 1    
    27   13   14 ar   
    28   13   15 1    
    29   14  138 1    
    30   15   16 1    
    31   15  139 1    
    32   15  140 1    
    33   16   17 1    
    34   17   18 1    
    35   17  141 1    
    36   17  142 1    
    37   18   19 1    
    38   18   67 1    
    39   18  143 1    
    40   19   20 am   BACKBONE|DICT|INTERRES
    41   19  144 1    
    42   20   21 2    
    43   20   22 1    
    44   22   23 1    
    45   22   24 1    
    46   22  145 1    
    47   23  146 1    
    48   23  147 1    
    49   23  148 1    
    50   24   25 am   BACKBONE|DICT|INTERRES
    51   24  149 1    
    52   25   26 2    
    53   25   27 1    
    54   27   28 1    
    55   27   29 1    
    56   27  150 1    
    57   28  151 1    
    58   28  152 1    
    59   28  153 1    
    60   29   30 am   BACKBONE|DICT|INTERRES
    61   29  154 1    
    62   30   31 2    
    63   30   32 1    
    64   32   33 1    
    65   32   34 1    
    66   32  155 1    
    67   33  156 1    
    68   33  157 1    
    69   33  158 1    
    70   34   35 am   BACKBONE|DICT|INTERRES
    71   34  159 1    
    72   35   36 2    
    73   35   37 1    
    74   37   38 1    
    75   37   39 1    
    76   37  160 1    
    77   38  161 1    
    78   38  162 1    
    79   38  163 1    
    80   39   40 am   BACKBONE|DICT|INTERRES
    81   39  164 1    
    82   40   41 2    
    83   40   42 1    
    84   42   43 1    
    85   42   44 1    
    86   42  165 1    
    87   43  166 1    
    88   43  167 1    
    89   43  168 1    
    90   44   45 am   BACKBONE|DICT|INTERRES
    91   44  169 1    
    92   45   46 2    
    93   45   47 1    
    94   47   48 1    
    95   47   49 1    
    96   47  170 1    
    97   48  171 1    
    98   48  172 1    
    99   48  173 1    
   100   49   50 am   BACKBONE|DICT|INTERRES
   101   49  174 1    
   102   50   51 2    
   103   50   52 1    
   104   52   53 1    
   105   52   54 1    
   106   52  175 1    
   107   53  176 1    
   108   53  177 1    
   109   53  178 1    
   110   54   55 am   BACKBONE|DICT|INTERRES
   111   54  179 1    
   112   55   56 2    
   113   55   57 1    
   114   57   58 1    
   115   57   59 1    
   116   57  180 1    
   117   58  181 1    
   118   58  182 1    
   119   58  183 1    
   120   59   60 am   BACKBONE|DICT|INTERRES
   121   59  184 1    
   122   60   61 2    
   123   60   62 1    
   124   62   63 1    
   125   62   64 1    
   126   62  185 1    
   127   63  186 1    
   128   63  187 1    
   129   63  188 1    
   130   64   65 am   BACKBONE|DICT|INTERRES
   131   64  189 1    
   132   65   66 2    
   133   67   68 2    
   134   67   69 am   BACKBONE|DICT|INTERRES
   135   69   70 1    
   136   69  190 1    
   137   70   71 1    
   138   70   72 1    
   139   70  191 1    
   140   71  192 1    
   141   71  193 1    
   142   71  194 1    
   143   72   73 2    
   144   72   74 am   BACKBONE|DICT|INTERRES
   145   74   75 1    
   146   74  195 1    
   147   75   76 1    
   148   75   77 1    
   149   75  196 1    
   150   76  197 1    
   151   76  198 1    
   152   76  199 1    
   153   77   78 2    
   154   77   79 am   BACKBONE|DICT|INTERRES
   155   79   80 1    
   156   79  200 1    
   157   80   81 1    
   158   80   82 1    
   159   80  201 1    
   160   81  202 1    
   161   81  203 1    
   162   81  204 1    
   163   82   83 2    
   164   82   84 am   BACKBONE|DICT|INTERRES
   165   84   85 1    
   166   84  205 1    
   167   85   86 1    
   168   85   87 1    
   169   85  206 1    
   170   86  207 1    
   171   86  208 1    
   172   86  209 1    
   173   87   88 2    
   174   87   89 am   BACKBONE|DICT|INTERRES
   175   89   90 1    
   176   89  210 1    
   177   90   91 1    
   178   90   92 1    
   179   90  211 1    
   180   91  212 1    
   181   91  213 1    
   182   91  214 1    
   183   92   93 2    
   184   92   94 am   BACKBONE|DICT|INTERRES
   185   94   95 1    
   186   94  215 1    
   187   95   96 1    
   188   95   97 1    
   189   95  216 1    
   190   96  217 1    
   191   96  218 1    
   192   96  219 1    
   193   97   98 2    
   194   97   99 am   BACKBONE|DICT|INTERRES
   195   99  100 1    
   196   99  220 1    
   197  100  101 1    
   198  100  102 1    
   199  100  221 1    
   200  101  222 1    
   201  101  223 1    
   202  101  224 1    
   203  102  103 2    
   204  102  104 am   BACKBONE|DICT|INTERRES
   205  104  105 1    
   206  104  225 1    
   207  105  106 1    
   208  105  107 1    
   209  105  226 1    
   210  106  227 1    
   211  106  228 1    
   212  106  229 1    
   213  107  108 2    
   214  107  109 am   BACKBONE|DICT|INTERRES
   215  109  110 1    
   216  109  230 1    
   217  110  111 1    
   218  110  112 1    
   219  110  231 1    
   220  111  232 1    
   221  111  233 1    
   222  111  234 1    
   223  112  113 2    
   224  112  114 am   BACKBONE|DICT|INTERRES
   225  114  115 1    
   226  114  235 1    
   227  115  116 1    
   228  115  117 1    
   229  115  236 1    
   230  116  237 1    
   231  116  238 1    
   232  116  239 1    
   233  117  118 2    
   234  117  119 am   BACKBONE|DICT|INTERRES
   235  119  120 1    
   236  119  240 1    
   237  120  121 1    
   238  120  124 1    
   239  120  241 1    
   240  121  122 am   BACKBONE|DICT|INTERRES
   241  121  123 2    
   242  122  242 1    
   243  122  243 1    
   244  124  125 1    
   245  124  244 1    
   246  124  245 1    
   247  125  126 1    
   248  126  246 1    
   249  126  247 1    
@<TRIPOS>SUBSTRUCTURE
     1 UNK         1 GROUP             0       ****    0 ROOT    
