@<TRIPOS>MOLECULE
3R540
247   249    1
SMALL
USER_CHARGES


@<TRIPOS>ATOM
      1 CA         -0.3170  -12.9650  -46.8922 C.3       0 UNK        -0.1800 
      2 C           0.8184  -12.2268  -47.5845 C.2       0 UNK         0.5000 
      3 O           0.5774  -11.2228  -48.2548 O.2       0 UNK        -0.5000 
      4 N           2.0527  -12.7210  -47.4294 N.am      1 UNK        -0.5000 
      5 CA          3.2706  -12.1225  -47.9858 C.3       1 UNK         0.1400 
      6 C6          4.4359  -13.1385  -48.1004 C.3       23 UNK        -0.0398 
      7 S7          4.0586  -14.4817  -49.2740 S.3       23 UNK        -0.2404 
      8 C8          3.4517  -15.7761  -48.1474 C.3       23 UNK        -0.0205 
      9 C9          2.4766  -16.7016  -48.8543 C.ar      23 UNK        -0.0193 
     10 C10         1.2088  -16.2305  -49.2050 C.ar      23 UNK        -0.1150 
     11 C11         0.2979  -17.0640  -49.8563 C.ar      23 UNK        -0.0193 
     12 C12         0.6592  -18.3824  -50.1512 C.ar      23 UNK        -0.1150 
     13 C13         1.9241  -18.8661  -49.8047 C.ar      23 UNK        -0.0193 
     14 C14         2.8293  -18.0206  -49.1548 C.ar      23 UNK        -0.1150 
     15 C15         2.3247  -20.2919  -50.1548 C.3       23 UNK        -0.0205 
     16 S16         2.0693  -21.4386  -48.7653 S.3       23 UNK        -0.2404 
     17 C17         0.2616  -21.6708  -48.8107 C.3       23 UNK        -0.0398 
     18 CA         -0.1891  -22.8041  -47.8589 C.3       11 UNK         0.1400 
     19 N          -0.0601  -22.4371  -46.4432 N.am      11 UNK        -0.5000 
     20 C          -0.2175  -23.2891  -45.4199 C.2       10 UNK         0.5000 
     21 O          -0.4590  -24.4860  -45.5632 O.2       10 UNK        -0.5000 
     22 CA         -0.1512  -22.7075  -43.9970 C.3       10 UNK         0.1400 
     23 CB          1.3026  -22.4693  -43.5632 C.3       10 UNK        -0.1800 
     24 N          -0.9306  -21.4774  -43.8573 N.am      10 UNK        -0.5000 
     25 C          -2.2621  -21.4073  -44.0019 C.2       9 UNK         0.5000 
     26 O          -2.9765  -22.3865  -44.2142 O.2       9 UNK        -0.5000 
     27 CA         -2.9020  -20.0075  -43.9523 C.3       9 UNK         0.1400 
     28 CB         -3.1105  -19.5498  -42.5015 C.3       9 UNK        -0.1800 
     29 N          -2.1262  -19.0033  -44.6797 N.am      9 UNK        -0.5000 
     30 C          -1.8629  -19.0499  -45.9937 C.2       8 UNK         0.5000 
     31 O          -2.2854  -19.9260  -46.7477 O.2       8 UNK        -0.5000 
     32 CA         -0.9090  -17.9747  -46.5409 C.3       8 UNK         0.1400 
     33 CB         -1.6407  -16.6414  -46.7519 C.3       8 UNK        -0.1800 
     34 N           0.2596  -17.7790  -45.6798 N.am      8 UNK        -0.5000 
     35 C           1.1722  -18.7315  -45.4354 C.2       7 UNK         0.5000 
     36 O           1.1497  -19.8465  -45.9524 O.2       7 UNK        -0.5000 
     37 CA          2.2435  -18.4171  -44.3787 C.3       7 UNK         0.1400 
     38 CB          3.4147  -17.6312  -44.9842 C.3       7 UNK        -0.1800 
     39 N           1.6814  -17.6890  -43.2409 N.am      7 UNK        -0.5000 
     40 C           0.8690  -18.2465  -42.3298 C.2       6 UNK         0.5000 
     41 O           0.5569  -19.4363  -42.3358 O.2       6 UNK        -0.5000 
     42 CA          0.2723  -17.3185  -41.2545 C.3       6 UNK         0.1400 
     43 CB          1.2121  -17.2237  -40.0437 C.3       6 UNK        -0.1800 
     44 N          -0.0080  -15.9726  -41.7535 N.am      6 UNK        -0.5000 
     45 C          -0.8962  -15.6806  -42.7145 C.2       5 UNK         0.5000 
     46 O          -1.6301  -16.5176  -43.2386 O.2       5 UNK        -0.5000 
     47 CA         -0.9283  -14.2209  -43.2095 C.3       5 UNK         0.1400 
     48 CB         -2.0144  -13.4225  -42.4753 C.3       5 UNK        -0.1800 
     49 N           0.3593  -13.5361  -43.0581 N.am      5 UNK        -0.5000 
     50 C           1.4915  -13.8804  -43.6830 C.2       4 UNK         0.5000 
     51 O           1.5500  -14.7769  -44.5272 O.2       4 UNK        -0.5000 
     52 CA          2.7600  -13.1060  -43.2749 C.3       4 UNK         0.1400 
     53 CB          4.0326  -13.7013  -43.9004 C.3       4 UNK        -0.1800 
     54 N           2.6774  -11.6852  -43.6172 N.am      4 UNK        -0.5000 
     55 C           1.9954  -10.7611  -42.9206 C.2       3 UNK         0.5000 
     56 O           1.3177  -11.0399  -41.9296 O.2       3 UNK        -0.5000 
     57 CA          2.0675   -9.2921  -43.3820 C.3       3 UNK         0.1400 
     58 CB          2.7192   -8.4030  -42.3088 C.3       3 UNK        -0.1800 
     59 N           2.7977   -9.1410  -44.6384 N.am      3 UNK        -0.5000 
     60 C           2.4878   -8.3053  -45.6330 C.2       2 UNK         0.5000 
     61 O           1.5552   -7.5021  -45.5919 O.2       2 UNK        -0.5000 
     62 CA          3.3556   -8.4032  -46.9034 C.3       2 UNK         0.1400 
     63 CB          4.8206   -8.0038  -46.6347 C.3       2 UNK        -0.1800 
     64 N           3.2581   -9.7110  -47.5657 N.am      2 UNK        -0.5000 
     65 C           3.6547  -10.9109  -47.1184 C.2       1 UNK         0.5000 
     66 O           4.2303  -11.0943  -46.0427 O.2       1 UNK        -0.5000 
     67 C          -1.6109  -23.2861  -48.2131 C.2       11 UNK         0.5000 
     68 O          -1.7480  -24.2312  -48.9925 O.2       11 UNK        -0.5000 
     69 N          -2.6389  -22.6613  -47.6234 N.am      12 UNK        -0.5000 
     70 CA         -4.0337  -23.0819  -47.7420 C.3       12 UNK         0.1400 
     71 CB         -4.9567  -21.9980  -47.1655 C.3       12 UNK        -0.1800 
     72 C          -4.2876  -24.4502  -47.0833 C.2       12 UNK         0.5000 
     73 O          -4.8843  -25.3215  -47.7158 O.2       12 UNK        -0.5000 
     74 N          -3.7969  -24.6295  -45.8484 N.am      13 UNK        -0.5000 
     75 CA         -3.9127  -25.8668  -45.0714 C.3       13 UNK         0.1400 
     76 CB         -3.4258  -25.6167  -43.6361 C.3       13 UNK        -0.1800 
     77 C          -3.1614  -27.0565  -45.6985 C.2       13 UNK         0.5000 
     78 O          -3.6791  -28.1738  -45.6927 O.2       13 UNK        -0.5000 
     79 N          -1.9691  -26.7926  -46.2490 N.am      14 UNK        -0.5000 
     80 CA         -1.1329  -27.7678  -46.9528 C.3       14 UNK         0.1400 
     81 CB          0.3003  -27.2182  -47.0394 C.3       14 UNK        -0.1800 
     82 C          -1.6460  -28.1209  -48.3630 C.2       14 UNK         0.5000 
     83 O          -1.1445  -29.0764  -48.9567 O.2       14 UNK        -0.5000 
     84 N          -2.6031  -27.3360  -48.8814 N.am      15 UNK        -0.5000 
     85 CA         -3.1602  -27.3889  -50.2368 C.3       15 UNK         0.1400 
     86 CB         -3.9108  -28.7139  -50.4853 C.3       15 UNK        -0.1800 
     87 C          -2.1138  -27.0638  -51.3251 C.2       15 UNK         0.5000 
     88 O          -2.1913  -27.5834  -52.4397 O.2       15 UNK        -0.5000 
     89 N          -1.1613  -26.1864  -50.9808 N.am      16 UNK        -0.5000 
     90 CA         -0.2078  -25.5780  -51.9080 C.3       16 UNK         0.1400 
     91 CB          1.0215  -25.0980  -51.1209 C.3       16 UNK        -0.1800 
     92 C          -0.8528  -24.4093  -52.6768 C.2       16 UNK         0.5000 
     93 O          -0.4383  -24.1125  -53.7978 O.2       16 UNK        -0.5000 
     94 N          -1.8651  -23.7812  -52.0620 N.am      17 UNK        -0.5000 
     95 CA         -2.7402  -22.7819  -52.6666 C.3       17 UNK         0.1400 
     96 CB         -3.6626  -22.2272  -51.5735 C.3       17 UNK        -0.1800 
     97 C          -3.5940  -23.3683  -53.8060 C.2       17 UNK         0.5000 
     98 O          -3.9939  -24.5334  -53.7442 O.2       17 UNK        -0.5000 
     99 N          -3.9299  -22.5255  -54.7867 N.am      18 UNK        -0.5000 
    100 CA        -4.7890  -22.8474  -55.9252 C.3       18 UNK         0.1400 
    101 CB        -4.3426  -21.9992  -57.1297 C.3       18 UNK        -0.1800 
    102 C         -6.2727  -22.6340  -55.5634 C.2       18 UNK         0.5000 
    103 O         -6.9642  -21.8525  -56.2180 O.2       18 UNK        -0.5000 
    104 N         -6.7197  -23.2946  -54.4848 N.am      19 UNK        -0.5000 
    105 CA        -8.0615  -23.2979  -53.8763 C.3       19 UNK         0.1400 
    106 CB        -9.1153  -23.8305  -54.8655 C.3       19 UNK        -0.1800 
    107 C         -8.5200  -21.9588  -53.2555 C.2       19 UNK         0.5000 
    108 O         -9.2748  -21.9744  -52.2837 O.2       19 UNK        -0.5000 
    109 N         -8.0441  -20.8299  -53.7915 N.am      20 UNK        -0.5000 
    110 CA        -8.3725  -19.4584  -53.3916 C.3       20 UNK         0.1400 
    111 CB        -8.1089  -18.5399  -54.5978 C.3       20 UNK        -0.1800 
    112 C         -7.6147  -18.9620  -52.1388 C.2       20 UNK         0.5000 
    113 O         -7.6257  -17.7608  -51.8676 O.2       20 UNK        -0.5000 
    114 N         -6.9472  -19.8762  -51.4185 N.am      21 UNK        -0.5000 
    115 CA        -6.1020  -19.6516  -50.2363 C.3       21 UNK         0.1400 
    116 CB        -6.9024  -19.0303  -49.0727 C.3       21 UNK        -0.1800 
    117 C         -4.7922  -18.8893  -50.5369 C.2       21 UNK         0.5000 
    118 O         -4.1387  -18.4087  -49.6120 O.2       21 UNK        -0.5000 
    119 N         -4.4076  -18.8378  -51.8168 N.am      22 UNK        -0.5000 
    120 CA        -3.1236  -18.3549  -52.3278 C.3       22 UNK         0.1400 
    121 C         -2.8404  -18.9462  -53.7378 C.2       22 UNK         0.5000 
    122 N         -1.7391  -18.5747  -54.3722 N.am      22 UNK        -0.7600 
    123 O         -3.5986  -19.7640  -54.2565 O.2       22 UNK        -0.5000 
    124 C124       -2.9864  -16.8070  -52.2493 C.3       23 UNK        -0.0398 
    125 S125       -1.2549  -16.2866  -52.0059 S.3       23 UNK        -0.2404 
    126 C126       -1.0863  -16.5533  -50.2151 C.3       23 UNK        -0.0205 
    127 H127       -0.7098  -12.3652  -46.0713 H         1 UNK         0.0600 
    128 H128        0.0156  -13.9204  -46.4901 H         1 UNK         0.0600 
    129 H129       -1.1265  -13.1592  -47.5959 H         1 UNK         0.0600 
    130 H130        2.1877  -13.5265  -46.8360 H         1 UNK         0.3000 
    131 H131        3.0533  -11.7643  -48.9948 H         1 UNK         0.0600 
    132 H132        4.7030  -13.5612  -47.1321 H         1 UNK         0.0800 
    133 H133        5.3342  -12.6362  -48.4635 H         1 UNK         0.0800 
    134 H134        4.3016  -16.3309  -47.7475 H         1 UNK         0.0800 
    135 H135        2.9446  -15.3286  -47.2930 H         1 UNK         0.0800 
    136 H136        0.9359  -15.2107  -48.9732 H         1 UNK         0.1150 
    137 H137       -0.0448  -19.0300  -50.6539 H         1 UNK         0.1150 
    138 H138        3.8084  -18.3913  -48.8858 H         1 UNK         0.1150 
    139 H139        1.7769  -20.6426  -51.0308 H         1 UNK         0.0800 
    140 H140        3.3795  -20.3123  -50.4326 H         1 UNK         0.0800 
    141 H141       -0.2293  -20.7313  -48.5514 H         1 UNK         0.0800 
    142 H142       -0.0174  -21.8947  -49.8424 H         1 UNK         0.0800 
    143 H143        0.4674  -23.6612  -48.0233 H         1 UNK         0.0600 
    144 H144        0.1949  -21.4718  -46.2473 H         1 UNK         0.3000 
    145 H145       -0.5826  -23.4472  -43.3193 H         1 UNK         0.0600 
    146 H146        1.3542  -22.1247  -42.5304 H         1 UNK         0.0600 
    147 H147        1.8832  -23.3902  -43.6281 H         1 UNK         0.0600 
    148 H148        1.7968  -21.7270  -44.1890 H         1 UNK         0.0600 
    149 H149       -0.4144  -20.6345  -43.6283 H         1 UNK         0.3000 
    150 H150       -3.8813  -20.0745  -44.4304 H         1 UNK         0.0600 
    151 H151       -3.7300  -20.2612  -41.9540 H         1 UNK         0.0600 
    152 H152       -3.6112  -18.5822  -42.4610 H         1 UNK         0.0600 
    153 H153       -2.1650  -19.4595  -41.9673 H         1 UNK         0.0600 
    154 H154       -1.7766  -18.2160  -44.1406 H         1 UNK         0.3000 
    155 H155       -0.5503  -18.3247  -47.5094 H         1 UNK         0.0600 
    156 H156       -2.0082  -16.2215  -45.8166 H         1 UNK         0.0600 
    157 H157       -2.5006  -16.7721  -47.4103 H         1 UNK         0.0600 
    158 H158       -0.9858  -15.9064  -47.2156 H         1 UNK         0.0600 
    159 H159        0.3445  -16.8907  -45.2060 H         1 UNK         0.3000 
    160 H160        2.6381  -19.3680  -44.0145 H         1 UNK         0.0600 
    161 H161        3.1016  -16.6543  -45.3464 H         1 UNK         0.0600 
    162 H162        3.8486  -18.1697  -45.8278 H         1 UNK         0.0600 
    163 H163        4.2074  -17.4780  -44.2520 H         1 UNK         0.0600 
    164 H164        1.8480  -16.6931  -43.2118 H         1 UNK         0.3000 
    165 H165       -0.6709  -17.7571  -40.9226 H         1 UNK         0.0600 
    166 H166        2.1668  -16.7674  -40.3083 H         1 UNK         0.0600 
    167 H167        0.7665  -16.6321  -39.2437 H         1 UNK         0.0600 
    168 H168        1.4229  -18.2131  -39.6355 H         1 UNK         0.0600 
    169 H169        0.5434  -15.2203  -41.3688 H         1 UNK         0.3000 
    170 H170       -1.1781  -14.2423  -44.2717 H         1 UNK         0.0600 
    171 H171       -2.9907  -13.8959  -42.5879 H         1 UNK         0.0600 
    172 H172       -1.8059  -13.3471  -41.4073 H         1 UNK         0.0600 
    173 H173       -2.0963  -12.4110  -42.8737 H         1 UNK         0.0600 
    174 H174        0.3972  -12.7524  -42.4135 H         1 UNK         0.3000 
    175 H175        2.8592  -13.1984  -42.1913 H         1 UNK         0.0600 
    176 H176        4.1662  -14.7419  -43.6019 H         1 UNK         0.0600 
    177 H177        3.9922  -13.6762  -44.9876 H         1 UNK         0.0600 
    178 H178        4.9221  -13.1557  -43.5853 H         1 UNK         0.0600 
    179 H179        3.1893  -11.4124  -44.4485 H         1 UNK         0.3000 
    180 H180        1.0342   -8.9679  -43.5215 H         1 UNK         0.0600 
    181 H181        2.7048   -7.3538  -42.6047 H         1 UNK         0.0600 
    182 H182        2.1886   -8.4781  -41.3588 H         1 UNK         0.0600 
    183 H183        3.7570   -8.6869  -42.1308 H         1 UNK         0.0600 
    184 H184        3.5711   -9.7771  -44.8016 H         1 UNK         0.3000 
    185 H185        2.9512   -7.6808  -47.6143 H         1 UNK         0.0600 
    186 H186        5.4008   -8.0005  -47.5574 H         1 UNK         0.0600 
    187 H187        4.8760   -6.9994  -46.2132 H         1 UNK         0.0600 
    188 H188        5.3146   -8.6763  -45.9334 H         1 UNK         0.0600 
    189 H189        2.7164   -9.7017  -48.4199 H         1 UNK         0.3000 
    190 H190       -2.4544  -21.8409  -47.0524 H         1 UNK         0.3000 
    191 H191       -4.2631  -23.1816  -48.8030 H         1 UNK         0.0600 
    192 H192       -6.0051  -22.2544  -47.3221 H         1 UNK         0.0600 
    193 H193       -4.7793  -21.0354  -47.6451 H         1 UNK         0.0600 
    194 H194       -4.8078  -21.8648  -46.0943 H         1 UNK         0.0600 
    195 H195       -3.3431  -23.8467  -45.3838 H         1 UNK         0.3000 
    196 H196       -4.9710  -26.1321  -45.0280 H         1 UNK         0.0600 
    197 H197       -3.5159  -26.5180  -43.0287 H         1 UNK         0.0600 
    198 H198       -4.0139  -24.8373  -43.1511 H         1 UNK         0.0600 
    199 H199       -2.3802  -25.3078  -43.6149 H         1 UNK         0.0600 
    200 H200       -1.5776  -25.8590  -46.1417 H         1 UNK         0.3000 
    201 H201       -1.1114  -28.6910  -46.3702 H         1 UNK         0.0600 
    202 H202        0.3395  -26.2917  -47.6139 H         1 UNK         0.0600 
    203 H203        0.9683  -27.9325  -47.5222 H         1 UNK         0.0600 
    204 H204        0.7058  -27.0155  -46.0480 H         1 UNK         0.0600 
    205 H205       -2.9448  -26.5776  -48.3054 H         1 UNK         0.3000 
    206 H206       -3.8965  -26.5851  -50.2849 H         1 UNK         0.0600 
    207 H207       -4.6367  -28.9087  -49.6958 H         1 UNK         0.0600 
    208 H208       -4.4588  -28.6800  -51.4275 H         1 UNK         0.0600 
    209 H209       -3.2311  -29.5647  -50.5352 H         1 UNK         0.0600 
    210 H210       -1.2166  -25.7673  -50.0575 H         1 UNK         0.3000 
    211 H211        0.1170  -26.3265  -52.6338 H         1 UNK         0.0600 
    212 H212        0.7616  -24.3266  -50.3965 H         1 UNK         0.0600 
    213 H213        1.7729  -24.6778  -51.7905 H         1 UNK         0.0600 
    214 H214        1.4900  -25.9209  -50.5805 H         1 UNK         0.0600 
    215 H215       -2.1150  -24.0952  -51.1334 H         1 UNK         0.3000 
    216 H216       -2.1216  -21.9744  -53.0633 H         1 UNK         0.0600 
    217 H217       -4.3803  -21.5266  -51.9966 H         1 UNK         0.0600 
    218 H218       -3.0992  -21.7039  -50.8003 H         1 UNK         0.0600 
    219 H219       -4.2375  -23.0232  -51.1000 H         1 UNK         0.0600 
    220 H220       -3.6638  -21.5457  -54.7023 H         1 UNK         0.3000 
    221 H221       -4.6658  -23.8987  -56.1938 H         1 UNK         0.0600 
    222 H222       -4.4398  -20.9315  -56.9277 H         1 UNK         0.0600 
    223 H223       -3.3014  -22.1969  -57.3850 H         1 UNK         0.0600 
    224 H224       -4.9413  -22.2251  -58.0130 H         1 UNK         0.0600 
    225 H225       -6.0401  -23.8845  -54.0173 H         1 UNK         0.3000 
    226 H226       -8.0026  -24.0091  -53.0509 H         1 UNK         0.0600 
    227 H227       -8.8335  -24.8096  -55.2528 H         1 UNK         0.0600 
    228 H228      -10.0850  -23.9411  -54.3786 H         1 UNK         0.0600 
    229 H229       -9.2539  -23.1604  -55.7144 H         1 UNK         0.0600 
    230 H230       -7.4756  -20.9316  -54.6270 H         1 UNK         0.3000 
    231 H231       -9.4378  -19.4127  -53.1570 H         1 UNK         0.0600 
    232 H232       -8.4149  -17.5137  -54.3910 H         1 UNK         0.0600 
    233 H233       -8.6677  -18.8700  -55.4739 H         1 UNK         0.0600 
    234 H234       -7.0509  -18.5221  -54.8633 H         1 UNK         0.0600 
    235 H235       -7.0267  -20.8355  -51.7231 H         1 UNK         0.3000 
    236 H236       -5.7895  -20.6448  -49.9118 H         1 UNK         0.0600 
    237 H237       -7.1836  -17.9972  -49.2770 H         1 UNK         0.0600 
    238 H238       -7.8132  -19.5952  -48.8745 H         1 UNK         0.0600 
    239 H239       -6.3169  -19.0290  -48.1526 H         1 UNK         0.0600 
    240 H240       -4.9897  -19.2713  -52.5205 H         1 UNK         0.3000 
    241 H241       -2.3718  -18.8120  -51.6823 H         1 UNK         0.0600 
    242 H242       -1.1085  -17.8997  -53.9649 H         1 UNK         0.3800 
    243 H243       -1.5433  -18.9533  -55.2853 H         1 UNK         0.3800 
    244 H244       -3.5723  -16.4014  -51.4235 H         1 UNK         0.0800 
    245 H245       -3.3843  -16.3317  -53.1474 H         1 UNK         0.0800 
    246 H246       -1.3087  -15.6195  -49.6968 H         1 UNK         0.0800 
    247 H247       -1.8188  -17.2788  -49.8630 H         1 UNK         0.0800 
@<TRIPOS>BOND
     1    1    2 1    
     2    1  127 1    
     3    1  128 1    
     4    1  129 1    
     5    2    3 2    
     6    2    4 am   BACKBONE|DICT|INTERRES
     7    4    5 1    
     8    4  130 1    
     9    5    6 1    
    10    5   65 1    
    11    5  131 1    
    12    6    7 1    
    13    6  132 1    
    14    6  133 1    
    15    7    8 1    
    16    8    9 1    
    17    8  134 1    
    18    8  135 1    
    19    9   10 ar   
    20    9   14 ar   
    21   10   11 ar   
    22   10  136 1    
    23   11   12 ar   
    24   11  126 1    
    25   12   13 ar   
    26   12  137 1    
    27   13   14 ar   
    28   13   15 1    
    29   14  138 1    
    30   15   16 1    
    31   15  139 1    
    32   15  140 1    
    33   16   17 1    
    34   17   18 1    
    35   17  141 1    
    36   17  142 1    
    37   18   19 1    
    38   18   67 1    
    39   18  143 1    
    40   19   20 am   BACKBONE|DICT|INTERRES
    41   19  144 1    
    42   20   21 2    
    43   20   22 1    
    44   22   23 1    
    45   22   24 1    
    46   22  145 1    
    47   23  146 1    
    48   23  147 1    
    49   23  148 1    
    50   24   25 am   BACKBONE|DICT|INTERRES
    51   24  149 1    
    52   25   26 2    
    53   25   27 1    
    54   27   28 1    
    55   27   29 1    
    56   27  150 1    
    57   28  151 1    
    58   28  152 1    
    59   28  153 1    
    60   29   30 am   BACKBONE|DICT|INTERRES
    61   29  154 1    
    62   30   31 2    
    63   30   32 1    
    64   32   33 1    
    65   32   34 1    
    66   32  155 1    
    67   33  156 1    
    68   33  157 1    
    69   33  158 1    
    70   34   35 am   BACKBONE|DICT|INTERRES
    71   34  159 1    
    72   35   36 2    
    73   35   37 1    
    74   37   38 1    
    75   37   39 1    
    76   37  160 1    
    77   38  161 1    
    78   38  162 1    
    79   38  163 1    
    80   39   40 am   BACKBONE|DICT|INTERRES
    81   39  164 1    
    82   40   41 2    
    83   40   42 1    
    84   42   43 1    
    85   42   44 1    
    86   42  165 1    
    87   43  166 1    
    88   43  167 1    
    89   43  168 1    
    90   44   45 am   BACKBONE|DICT|INTERRES
    91   44  169 1    
    92   45   46 2    
    93   45   47 1    
    94   47   48 1    
    95   47   49 1    
    96   47  170 1    
    97   48  171 1    
    98   48  172 1    
    99   48  173 1    
   100   49   50 am   BACKBONE|DICT|INTERRES
   101   49  174 1    
   102   50   51 2    
   103   50   52 1    
   104   52   53 1    
   105   52   54 1    
   106   52  175 1    
   107   53  176 1    
   108   53  177 1    
   109   53  178 1    
   110   54   55 am   BACKBONE|DICT|INTERRES
   111   54  179 1    
   112   55   56 2    
   113   55   57 1    
   114   57   58 1    
   115   57   59 1    
   116   57  180 1    
   117   58  181 1    
   118   58  182 1    
   119   58  183 1    
   120   59   60 am   BACKBONE|DICT|INTERRES
   121   59  184 1    
   122   60   61 2    
   123   60   62 1    
   124   62   63 1    
   125   62   64 1    
   126   62  185 1    
   127   63  186 1    
   128   63  187 1    
   129   63  188 1    
   130   64   65 am   BACKBONE|DICT|INTERRES
   131   64  189 1    
   132   65   66 2    
   133   67   68 2    
   134   67   69 am   BACKBONE|DICT|INTERRES
   135   69   70 1    
   136   69  190 1    
   137   70   71 1    
   138   70   72 1    
   139   70  191 1    
   140   71  192 1    
   141   71  193 1    
   142   71  194 1    
   143   72   73 2    
   144   72   74 am   BACKBONE|DICT|INTERRES
   145   74   75 1    
   146   74  195 1    
   147   75   76 1    
   148   75   77 1    
   149   75  196 1    
   150   76  197 1    
   151   76  198 1    
   152   76  199 1    
   153   77   78 2    
   154   77   79 am   BACKBONE|DICT|INTERRES
   155   79   80 1    
   156   79  200 1    
   157   80   81 1    
   158   80   82 1    
   159   80  201 1    
   160   81  202 1    
   161   81  203 1    
   162   81  204 1    
   163   82   83 2    
   164   82   84 am   BACKBONE|DICT|INTERRES
   165   84   85 1    
   166   84  205 1    
   167   85   86 1    
   168   85   87 1    
   169   85  206 1    
   170   86  207 1    
   171   86  208 1    
   172   86  209 1    
   173   87   88 2    
   174   87   89 am   BACKBONE|DICT|INTERRES
   175   89   90 1    
   176   89  210 1    
   177   90   91 1    
   178   90   92 1    
   179   90  211 1    
   180   91  212 1    
   181   91  213 1    
   182   91  214 1    
   183   92   93 2    
   184   92   94 am   BACKBONE|DICT|INTERRES
   185   94   95 1    
   186   94  215 1    
   187   95   96 1    
   188   95   97 1    
   189   95  216 1    
   190   96  217 1    
   191   96  218 1    
   192   96  219 1    
   193   97   98 2    
   194   97   99 am   BACKBONE|DICT|INTERRES
   195   99  100 1    
   196   99  220 1    
   197  100  101 1    
   198  100  102 1    
   199  100  221 1    
   200  101  222 1    
   201  101  223 1    
   202  101  224 1    
   203  102  103 2    
   204  102  104 am   BACKBONE|DICT|INTERRES
   205  104  105 1    
   206  104  225 1    
   207  105  106 1    
   208  105  107 1    
   209  105  226 1    
   210  106  227 1    
   211  106  228 1    
   212  106  229 1    
   213  107  108 2    
   214  107  109 am   BACKBONE|DICT|INTERRES
   215  109  110 1    
   216  109  230 1    
   217  110  111 1    
   218  110  112 1    
   219  110  231 1    
   220  111  232 1    
   221  111  233 1    
   222  111  234 1    
   223  112  113 2    
   224  112  114 am   BACKBONE|DICT|INTERRES
   225  114  115 1    
   226  114  235 1    
   227  115  116 1    
   228  115  117 1    
   229  115  236 1    
   230  116  237 1    
   231  116  238 1    
   232  116  239 1    
   233  117  118 2    
   234  117  119 am   BACKBONE|DICT|INTERRES
   235  119  120 1    
   236  119  240 1    
   237  120  121 1    
   238  120  124 1    
   239  120  241 1    
   240  121  122 am   BACKBONE|DICT|INTERRES
   241  121  123 2    
   242  122  242 1    
   243  122  243 1    
   244  124  125 1    
   245  124  244 1    
   246  124  245 1    
   247  125  126 1    
   248  126  246 1    
   249  126  247 1    
@<TRIPOS>SUBSTRUCTURE
     1 UNK         1 GROUP             0       ****    0 ROOT    
