@<TRIPOS>MOLECULE
3R540
247   249    1
SMALL
USER_CHARGES


@<TRIPOS>ATOM
      1 CA         -0.3983  -16.9917  -54.1256 C.3       0 UNK        -0.1800 
      2 C           0.0213  -16.9039  -52.6661 C.2       0 UNK         0.5000 
      3 O           0.2108  -17.9340  -52.0247 O.2       0 UNK        -0.5000 
      4 N           0.1685  -15.6756  -52.1521 N.am      1 UNK        -0.5000 
      5 CA          0.5293  -15.3582  -50.7634 C.3       1 UNK         0.1400 
      6 C6          0.4233  -13.8287  -50.5234 C.3       23 UNK        -0.0398 
      7 S7          0.2818  -13.3629  -48.7665 S.3       23 UNK        -0.2404 
      8 C8         -1.5114  -13.0918  -48.5898 C.3       23 UNK        -0.0205 
      9 C9         -2.2913  -14.3881  -48.7434 C.ar      23 UNK        -0.0193 
     10 C10        -2.9440  -14.6857  -49.9446 C.ar      23 UNK        -0.1150 
     11 C11        -3.6223  -15.8979  -50.0992 C.ar      23 UNK        -0.0193 
     12 C12        -3.6500  -16.8071  -49.0391 C.ar      23 UNK        -0.1150 
     13 C13        -3.0171  -16.5156  -47.8285 C.ar      23 UNK        -0.0193 
     14 C14        -2.3426  -15.3009  -47.6858 C.ar      23 UNK        -0.1150 
     15 C15        -3.0405  -17.5169  -46.6844 C.3       23 UNK        -0.0205 
     16 S16        -1.5637  -18.5683  -46.7411 S.3       23 UNK        -0.2404 
     17 C17        -1.7775  -19.6068  -45.2623 C.3       23 UNK        -0.0398 
     18 CA         -0.8444  -20.8459  -45.3021 C.3       11 UNK         0.1400 
     19 N          -0.2445  -21.1271  -43.9974 N.am      11 UNK        -0.5000 
     20 C           0.7505  -21.9996  -43.7865 C.2       10 UNK         0.5000 
     21 O           1.2895  -22.6566  -44.6764 O.2       10 UNK        -0.5000 
     22 CA          1.1713  -22.2172  -42.3248 C.3       10 UNK         0.1400 
     23 CB          2.1236  -21.1069  -41.8578 C.3       10 UNK        -0.1800 
     24 N           0.0106  -22.2889  -41.4362 N.am      10 UNK        -0.5000 
     25 C          -0.8686  -23.3015  -41.4309 C.2       9 UNK         0.5000 
     26 O          -0.7675  -24.2984  -42.1452 O.2       9 UNK        -0.5000 
     27 CA         -2.0911  -23.1531  -40.5076 C.3       9 UNK         0.1400 
     28 CB         -1.7332  -23.5400  -39.0650 C.3       9 UNK        -0.1800 
     29 N          -2.6489  -21.8003  -40.5254 N.am      9 UNK        -0.5000 
     30 C          -3.2151  -21.2268  -41.5967 C.2       8 UNK         0.5000 
     31 O          -3.3515  -21.7872  -42.6827 O.2       8 UNK        -0.5000 
     32 CA         -3.6566  -19.7610  -41.4452 C.3       8 UNK         0.1400 
     33 CB         -5.0810  -19.6809  -40.8772 C.3       8 UNK        -0.1800 
     34 N          -2.7534  -18.9621  -40.6127 N.am      8 UNK        -0.5000 
     35 C          -1.4632  -18.7361  -40.8916 C.2       7 UNK         0.5000 
     36 O          -0.8738  -19.2321  -41.8533 O.2       7 UNK        -0.5000 
     37 CA         -0.7008  -17.8075  -39.9318 C.3       7 UNK         0.1400 
     38 CB          0.4633  -18.5484  -39.2557 C.3       7 UNK        -0.1800 
     39 N          -0.1857  -16.6341  -40.6352 N.am      7 UNK        -0.5000 
     40 C          -0.9495  -15.6631  -41.1554 C.2       6 UNK         0.5000 
     41 O          -2.1771  -15.6422  -41.0591 O.2       6 UNK        -0.5000 
     42 CA         -0.2406  -14.5118  -41.8933 C.3       6 UNK         0.1400 
     43 CB         -0.4775  -13.1809  -41.1608 C.3       6 UNK        -0.1800 
     44 N           1.2087  -14.7159  -42.0092 N.am      6 UNK        -0.5000 
     45 C           1.9094  -15.1290  -43.0752 C.2       5 UNK         0.5000 
     46 O           3.1368  -15.2167  -43.0212 O.2       5 UNK        -0.5000 
     47 CA          1.1850  -15.4484  -44.4056 C.3       5 UNK         0.1400 
     48 CB          0.8860  -14.1539  -45.1798 C.3       5 UNK        -0.1800 
     49 N           1.9790  -16.3101  -45.2806 N.am      5 UNK        -0.5000 
     50 C           2.2937  -17.5897  -45.0419 C.2       4 UNK         0.5000 
     51 O           1.8682  -18.2299  -44.0808 O.2       4 UNK        -0.5000 
     52 CA          3.2481  -18.2711  -46.0421 C.3       4 UNK         0.1400 
     53 CB          2.4860  -19.2523  -46.9410 C.3       4 UNK        -0.1800 
     54 N           3.9595  -17.3167  -46.8965 N.am      4 UNK        -0.5000 
     55 C           5.1257  -16.7356  -46.5734 C.2       3 UNK         0.5000 
     56 O           5.6928  -16.9113  -45.4943 O.2       3 UNK        -0.5000 
     57 CA          5.7815  -15.8432  -47.6467 C.3       3 UNK         0.1400 
     58 CB          7.3189  -15.8359  -47.5611 C.3       3 UNK        -0.1800 
     59 N           5.3732  -16.2895  -48.9766 N.am      3 UNK        -0.5000 
     60 C           4.9399  -15.4993  -49.9623 C.2       2 UNK         0.5000 
     61 O           4.9890  -14.2682  -49.9293 O.2       2 UNK        -0.5000 
     62 CA          4.2865  -16.1952  -51.1764 C.3       2 UNK         0.1400 
     63 CB          4.4097  -17.7369  -51.1744 C.3       2 UNK        -0.1800 
     64 N           2.8788  -15.8077  -51.3059 N.am      2 UNK        -0.5000 
     65 C           1.9227  -15.8977  -50.3648 C.2       1 UNK         0.5000 
     66 O           2.0992  -16.3807  -49.2424 O.2       1 UNK        -0.5000 
     67 C          -1.5265  -22.0906  -45.9103 C.2       11 UNK         0.5000 
     68 O          -1.3865  -22.3391  -47.1087 O.2       11 UNK        -0.5000 
     69 N          -2.2142  -22.8759  -45.0696 N.am      12 UNK        -0.5000 
     70 CA         -2.8063  -24.1625  -45.4296 C.3       12 UNK         0.1400 
     71 CB         -3.7451  -24.6349  -44.3099 C.3       12 UNK        -0.1800 
     72 C          -1.7465  -25.2301  -45.7502 C.2       12 UNK         0.5000 
     73 O          -1.8664  -25.9038  -46.7732 O.2       12 UNK        -0.5000 
     74 N          -0.7154  -25.3456  -44.8996 N.am      13 UNK        -0.5000 
     75 CA          0.3946  -26.2914  -45.0584 C.3       13 UNK         0.1400 
     76 CB          1.2850  -26.2575  -43.8074 C.3       13 UNK        -0.1800 
     77 C           1.2334  -26.0434  -46.3263 C.2       13 UNK         0.5000 
     78 O           1.6450  -27.0014  -46.9815 O.2       13 UNK        -0.5000 
     79 N           1.4409  -24.7650  -46.6668 N.am      14 UNK        -0.5000 
     80 CA          2.1163  -24.3219  -47.8876 C.3       14 UNK         0.1400 
     81 CB          2.5274  -22.8515  -47.7075 C.3       14 UNK        -0.1800 
     82 C           1.2560  -24.4714  -49.1597 C.2       14 UNK         0.5000 
     83 O           1.7913  -24.3323  -50.2593 O.2       14 UNK        -0.5000 
     84 N          -0.0577  -24.6918  -48.9892 N.am      15 UNK        -0.5000 
     85 CA         -1.1218  -24.6899  -50.0039 C.3       15 UNK         0.1400 
     86 CB         -0.8798  -25.7577  -51.0894 C.3       15 UNK        -0.1800 
     87 C          -1.4063  -23.2948  -50.6033 C.2       15 UNK         0.5000 
     88 O          -2.2109  -23.1780  -51.5287 O.2       15 UNK        -0.5000 
     89 N          -0.7919  -22.2536  -50.0262 N.am      16 UNK        -0.5000 
     90 CA         -0.9754  -20.8392  -50.3447 C.3       16 UNK         0.1400 
     91 CB          0.0286  -20.0216  -49.5215 C.3       16 UNK        -0.1800 
     92 C          -2.4218  -20.3640  -50.1133 C.2       16 UNK         0.5000 
     93 O          -2.9253  -19.5430  -50.8780 O.2       16 UNK        -0.5000 
     94 N          -3.0970  -20.9721  -49.1263 N.am      17 UNK        -0.5000 
     95 CA         -4.5193  -20.8029  -48.8168 C.3       17 UNK         0.1400 
     96 CB         -4.8621  -21.6499  -47.5830 C.3       17 UNK        -0.1800 
     97 C          -5.4855  -21.1374  -49.9745 C.2       17 UNK         0.5000 
     98 O          -6.6416  -20.7201  -49.9166 O.2       17 UNK        -0.5000 
     99 N          -5.0139  -21.8785  -50.9859 N.am      18 UNK        -0.5000 
    100 CA        -5.7688  -22.2620  -52.1773 C.3       18 UNK         0.1400 
    101 CB        -5.9468  -23.7906  -52.1591 C.3       18 UNK        -0.1800 
    102 C         -5.0817  -21.7950  -53.4772 C.2       18 UNK         0.5000 
    103 O         -5.5099  -22.2074  -54.5567 O.2       18 UNK        -0.5000 
    104 N         -4.0244  -20.9773  -53.3764 N.am      19 UNK        -0.5000 
    105 CA        -3.2280  -20.5280  -54.5165 C.3       19 UNK         0.1400 
    106 CB        -1.7608  -20.4121  -54.0819 C.3       19 UNK        -0.1800 
    107 C         -3.7273  -19.1802  -55.0592 C.2       19 UNK         0.5000 
    108 O         -4.2047  -18.3404  -54.2921 O.2       19 UNK        -0.5000 
    109 N         -3.5506  -18.9857  -56.3743 N.am      20 UNK        -0.5000 
    110 CA        -3.8564  -17.7737  -57.1416 C.3       20 UNK         0.1400 
    111 CB        -2.8074  -16.6797  -56.8382 C.3       20 UNK        -0.1800 
    112 C         -5.3182  -17.3167  -56.9467 C.2       20 UNK         0.5000 
    113 O         -6.2331  -18.1120  -57.1719 O.2       20 UNK        -0.5000 
    114 N         -5.5149  -16.0683  -56.5017 N.am      21 UNK        -0.5000 
    115 CA        -6.8135  -15.4604  -56.2029 C.3       21 UNK         0.1400 
    116 CB        -6.5970  -13.9793  -55.8556 C.3       21 UNK        -0.1800 
    117 C         -7.6008  -16.1659  -55.0797 C.2       21 UNK         0.5000 
    118 O         -8.8247  -16.0329  -55.0350 O.2       21 UNK        -0.5000 
    119 N         -6.9020  -16.9081  -54.2108 N.am      22 UNK        -0.5000 
    120 CA        -7.5039  -17.7512  -53.1681 C.3       22 UNK         0.1400 
    121 C         -7.9497  -19.1524  -53.6832 C.2       22 UNK         0.5000 
    122 N         -7.6822  -19.5329  -54.9280 N.am      22 UNK        -0.7600 
    123 O         -8.5707  -19.9082  -52.9423 O.2       22 UNK        -0.5000 
    124 C124       -6.5965  -17.8747  -51.9169 C.3       23 UNK        -0.0398 
    125 S125       -6.1262  -16.2532  -51.2129 S.3       23 UNK        -0.2404 
    126 C126       -4.3131  -16.2436  -51.4100 C.3       23 UNK        -0.0205 
    127 H127       -1.4183  -17.3675  -54.1901 H         1 UNK         0.0600 
    128 H128        0.2543  -17.6764  -54.6672 H         1 UNK         0.0600 
    129 H129       -0.3601  -16.0212  -54.6207 H         1 UNK         0.0600 
    130 H130        0.0002  -14.8800  -52.7504 H         1 UNK         0.3000 
    131 H131       -0.2029  -15.8637  -50.1299 H         1 UNK         0.0600 
    132 H132        1.2818  -13.3069  -50.9503 H         1 UNK         0.0800 
    133 H133       -0.4452  -13.4255  -51.0454 H         1 UNK         0.0800 
    134 H134       -1.7074  -12.6664  -47.6045 H         1 UNK         0.0800 
    135 H135       -1.8454  -12.3476  -49.3144 H         1 UNK         0.0800 
    136 H136       -2.9105  -13.9818  -50.7640 H         1 UNK         0.1150 
    137 H137       -4.1666  -17.7441  -49.1692 H         1 UNK         0.1150 
    138 H138       -1.8383  -15.0766  -46.7572 H         1 UNK         0.1150 
    139 H139       -3.0796  -16.9926  -45.7283 H         1 UNK         0.0800 
    140 H140       -3.9356  -18.1379  -46.7396 H         1 UNK         0.0800 
    141 H141       -2.8258  -19.8854  -45.1394 H         1 UNK         0.0800 
    142 H142       -1.5358  -18.9716  -44.4093 H         1 UNK         0.0800 
    143 H143       -0.0051  -20.6193  -45.9581 H         1 UNK         0.0600 
    144 H144       -0.5840  -20.5828  -43.2092 H         1 UNK         0.3000 
    145 H145        1.7054  -23.1678  -42.2647 H         1 UNK         0.0600 
    146 H146        2.4254  -21.2514  -40.8204 H         1 UNK         0.0600 
    147 H147        3.0303  -21.0956  -42.4638 H         1 UNK         0.0600 
    148 H148        1.6673  -20.1207  -41.9440 H         1 UNK         0.0600 
    149 H149       -0.1763  -21.4775  -40.8664 H         1 UNK         0.3000 
    150 H150       -2.8615  -23.8401  -40.8641 H         1 UNK         0.0600 
    151 H151       -0.9863  -22.8687  -38.6392 H         1 UNK         0.0600 
    152 H152       -1.3279  -24.5519  -39.0221 H         1 UNK         0.0600 
    153 H153       -2.6124  -23.5161  -38.4210 H         1 UNK         0.0600 
    154 H154       -2.5757  -21.2626  -39.6745 H         1 UNK         0.3000 
    155 H155       -3.6631  -19.3177  -42.4433 H         1 UNK         0.0600 
    156 H156       -5.1340  -20.0778  -39.8626 H         1 UNK         0.0600 
    157 H157       -5.7786  -20.2529  -41.4906 H         1 UNK         0.0600 
    158 H158       -5.4394  -18.6515  -40.8549 H         1 UNK         0.0600 
    159 H159       -3.1671  -18.5058  -39.8124 H         1 UNK         0.3000 
    160 H160       -1.3826  -17.4659  -39.1500 H         1 UNK         0.0600 
    161 H161        1.2238  -18.8498  -39.9759 H         1 UNK         0.0600 
    162 H162        0.1143  -19.4485  -38.7481 H         1 UNK         0.0600 
    163 H163        0.9457  -17.9203  -38.5066 H         1 UNK         0.0600 
    164 H164        0.8100  -16.6025  -40.7966 H         1 UNK         0.3000 
    165 H165       -0.7160  -14.4318  -42.8695 H         1 UNK         0.0600 
    166 H166       -0.0214  -12.3495  -41.6987 H         1 UNK         0.0600 
    167 H167       -1.5427  -12.9621  -41.0743 H         1 UNK         0.0600 
    168 H168       -0.0626  -13.1958  -40.1521 H         1 UNK         0.0600 
    169 H169        1.7297  -14.4974  -41.1724 H         1 UNK         0.3000 
    170 H170        0.2529  -15.9742  -44.1917 H         1 UNK         0.0600 
    171 H171        1.8019  -13.6687  -45.5196 H         1 UNK         0.0600 
    172 H172        0.2761  -14.3653  -46.0557 H         1 UNK         0.0600 
    173 H173        0.3430  -13.4253  -44.5786 H         1 UNK         0.0600 
    174 H174        2.3893  -15.8713  -46.0907 H         1 UNK         0.3000 
    175 H175        3.9748  -18.8459  -45.4640 H         1 UNK         0.0600 
    176 H176        1.6470  -18.7672  -47.4414 H         1 UNK         0.0600 
    177 H177        3.1332  -19.6814  -47.7060 H         1 UNK         0.0600 
    178 H178        2.0978  -20.0799  -46.3498 H         1 UNK         0.0600 
    179 H179        3.5106  -17.0784  -47.7753 H         1 UNK         0.3000 
    180 H180        5.4195  -14.8296  -47.4623 H         1 UNK         0.0600 
    181 H181        7.7318  -16.8372  -47.6885 H         1 UNK         0.0600 
    182 H182        7.6585  -15.4578  -46.5961 H         1 UNK         0.0600 
    183 H183        7.7521  -15.1946  -48.3289 H         1 UNK         0.0600 
    184 H184        5.2902  -17.2898  -49.0940 H         1 UNK         0.3000 
    185 H185        4.8021  -15.8200  -52.0615 H         1 UNK         0.0600 
    186 H186        5.4536  -18.0511  -51.1402 H         1 UNK         0.0600 
    187 H187        3.8910  -18.1945  -50.3310 H         1 UNK         0.0600 
    188 H188        3.9810  -18.1582  -52.0839 H         1 UNK         0.0600 
    189 H189        2.6242  -15.3904  -52.1894 H         1 UNK         0.3000 
    190 H190       -2.3525  -22.5679  -44.1110 H         1 UNK         0.3000 
    191 H191       -3.4058  -24.0183  -46.3292 H         1 UNK         0.0600 
    192 H192       -4.5524  -23.9205  -44.1478 H         1 UNK         0.0600 
    193 H193       -4.2033  -25.5922  -44.5611 H         1 UNK         0.0600 
    194 H194       -3.2165  -24.7604  -43.3647 H         1 UNK         0.0600 
    195 H195       -0.7071  -24.7791  -44.0564 H         1 UNK         0.3000 
    196 H196       -0.0349  -27.2919  -45.1402 H         1 UNK         0.0600 
    197 H197        2.1117  -26.9635  -43.8956 H         1 UNK         0.0600 
    198 H198        0.7211  -26.5284  -42.9147 H         1 UNK         0.0600 
    199 H199        1.7133  -25.2679  -43.6461 H         1 UNK         0.0600 
    200 H200        1.1359  -24.0352  -46.0275 H         1 UNK         0.3000 
    201 H201        3.0196  -24.9195  -48.0255 H         1 UNK         0.0600 
    202 H202        3.0625  -22.4791  -48.5820 H         1 UNK         0.0600 
    203 H203        3.1859  -22.7274  -46.8476 H         1 UNK         0.0600 
    204 H204        1.6576  -22.2110  -47.5566 H         1 UNK         0.0600 
    205 H205       -0.3878  -24.8062  -48.0386 H         1 UNK         0.3000 
    206 H206       -2.0313  -24.9702  -49.4708 H         1 UNK         0.0600 
    207 H207       -0.6794  -26.7328  -50.6456 H         1 UNK         0.0600 
    208 H208       -1.7564  -25.8667  -51.7290 H         1 UNK         0.0600 
    209 H209       -0.0399  -25.5011  -51.7351 H         1 UNK         0.0600 
    210 H210       -0.2253  -22.4530  -49.2150 H         1 UNK         0.3000 
    211 H211       -0.7431  -20.6972  -51.3999 H         1 UNK         0.0600 
    212 H212       -0.0028  -20.2963  -48.4682 H         1 UNK         0.0600 
    213 H213       -0.1760  -18.9522  -49.5895 H         1 UNK         0.0600 
    214 H214        1.0474  -20.1798  -49.8753 H         1 UNK         0.0600 
    215 H215       -2.5776  -21.6149  -48.5368 H         1 UNK         0.3000 
    216 H216       -4.6811  -19.7585  -48.5559 H         1 UNK         0.0600 
    217 H217       -5.9107  -21.5344  -47.3057 H         1 UNK         0.0600 
    218 H218       -4.2698  -21.3513  -46.7191 H         1 UNK         0.0600 
    219 H219       -4.6883  -22.7096  -47.7694 H         1 UNK         0.0600 
    220 H220       -4.0469  -22.1827  -50.9664 H         1 UNK         0.3000 
    221 H221       -6.7589  -21.8036  -52.1702 H         1 UNK         0.0600 
    222 H222       -4.9862  -24.3050  -52.2097 H         1 UNK         0.0600 
    223 H223       -6.4543  -24.1166  -51.2511 H         1 UNK         0.0600 
    224 H224       -6.5483  -24.1293  -53.0034 H         1 UNK         0.0600 
    225 H225       -3.7692  -20.5914  -52.4742 H         1 UNK         0.3000 
    226 H226       -3.2803  -21.2704  -55.3158 H         1 UNK         0.0600 
    227 H227       -1.1238  -20.1234  -54.9187 H         1 UNK         0.0600 
    228 H228       -1.6360  -19.6606  -53.3026 H         1 UNK         0.0600 
    229 H229       -1.3863  -21.3619  -53.6998 H         1 UNK         0.0600 
    230 H230       -3.1746  -19.7488  -56.9191 H         1 UNK         0.3000 
    231 H231       -3.7605  -18.0411  -58.1948 H         1 UNK         0.0600 
    232 H232       -2.8651  -16.3304  -55.8070 H         1 UNK         0.0600 
    233 H233       -2.9356  -15.8165  -57.4925 H         1 UNK         0.0600 
    234 H234       -1.7967  -17.0538  -57.0022 H         1 UNK         0.0600 
    235 H235       -4.7034  -15.4952  -56.3230 H         1 UNK         0.3000 
    236 H236       -7.4207  -15.5158  -57.1086 H         1 UNK         0.0600 
    237 H237       -6.1166  -13.4462  -56.6763 H         1 UNK         0.0600 
    238 H238       -7.5471  -13.4807  -55.6587 H         1 UNK         0.0600 
    239 H239       -5.9752  -13.8625  -54.9670 H         1 UNK         0.0600 
    240 H240       -5.9012  -17.0118  -54.3315 H         1 UNK         0.3000 
    241 H241       -8.4219  -17.2640  -52.8342 H         1 UNK         0.0600 
    242 H242       -7.1832  -18.9281  -55.5705 H         1 UNK         0.3800 
    243 H243       -7.9778  -20.4448  -55.2374 H         1 UNK         0.3800 
    244 H244       -5.7121  -18.4718  -52.1398 H         1 UNK         0.0800 
    245 H245       -7.1257  -18.4160  -51.1318 H         1 UNK         0.0800 
    246 H246       -4.0482  -15.5294  -52.1907 H         1 UNK         0.0800 
    247 H247       -3.9440  -17.2106  -51.7520 H         1 UNK         0.0800 
@<TRIPOS>BOND
     1    1    2 1    
     2    1  127 1    
     3    1  128 1    
     4    1  129 1    
     5    2    3 2    
     6    2    4 am   BACKBONE|DICT|INTERRES
     7    4    5 1    
     8    4  130 1    
     9    5    6 1    
    10    5   65 1    
    11    5  131 1    
    12    6    7 1    
    13    6  132 1    
    14    6  133 1    
    15    7    8 1    
    16    8    9 1    
    17    8  134 1    
    18    8  135 1    
    19    9   10 ar   
    20    9   14 ar   
    21   10   11 ar   
    22   10  136 1    
    23   11   12 ar   
    24   11  126 1    
    25   12   13 ar   
    26   12  137 1    
    27   13   14 ar   
    28   13   15 1    
    29   14  138 1    
    30   15   16 1    
    31   15  139 1    
    32   15  140 1    
    33   16   17 1    
    34   17   18 1    
    35   17  141 1    
    36   17  142 1    
    37   18   19 1    
    38   18   67 1    
    39   18  143 1    
    40   19   20 am   BACKBONE|DICT|INTERRES
    41   19  144 1    
    42   20   21 2    
    43   20   22 1    
    44   22   23 1    
    45   22   24 1    
    46   22  145 1    
    47   23  146 1    
    48   23  147 1    
    49   23  148 1    
    50   24   25 am   BACKBONE|DICT|INTERRES
    51   24  149 1    
    52   25   26 2    
    53   25   27 1    
    54   27   28 1    
    55   27   29 1    
    56   27  150 1    
    57   28  151 1    
    58   28  152 1    
    59   28  153 1    
    60   29   30 am   BACKBONE|DICT|INTERRES
    61   29  154 1    
    62   30   31 2    
    63   30   32 1    
    64   32   33 1    
    65   32   34 1    
    66   32  155 1    
    67   33  156 1    
    68   33  157 1    
    69   33  158 1    
    70   34   35 am   BACKBONE|DICT|INTERRES
    71   34  159 1    
    72   35   36 2    
    73   35   37 1    
    74   37   38 1    
    75   37   39 1    
    76   37  160 1    
    77   38  161 1    
    78   38  162 1    
    79   38  163 1    
    80   39   40 am   BACKBONE|DICT|INTERRES
    81   39  164 1    
    82   40   41 2    
    83   40   42 1    
    84   42   43 1    
    85   42   44 1    
    86   42  165 1    
    87   43  166 1    
    88   43  167 1    
    89   43  168 1    
    90   44   45 am   BACKBONE|DICT|INTERRES
    91   44  169 1    
    92   45   46 2    
    93   45   47 1    
    94   47   48 1    
    95   47   49 1    
    96   47  170 1    
    97   48  171 1    
    98   48  172 1    
    99   48  173 1    
   100   49   50 am   BACKBONE|DICT|INTERRES
   101   49  174 1    
   102   50   51 2    
   103   50   52 1    
   104   52   53 1    
   105   52   54 1    
   106   52  175 1    
   107   53  176 1    
   108   53  177 1    
   109   53  178 1    
   110   54   55 am   BACKBONE|DICT|INTERRES
   111   54  179 1    
   112   55   56 2    
   113   55   57 1    
   114   57   58 1    
   115   57   59 1    
   116   57  180 1    
   117   58  181 1    
   118   58  182 1    
   119   58  183 1    
   120   59   60 am   BACKBONE|DICT|INTERRES
   121   59  184 1    
   122   60   61 2    
   123   60   62 1    
   124   62   63 1    
   125   62   64 1    
   126   62  185 1    
   127   63  186 1    
   128   63  187 1    
   129   63  188 1    
   130   64   65 am   BACKBONE|DICT|INTERRES
   131   64  189 1    
   132   65   66 2    
   133   67   68 2    
   134   67   69 am   BACKBONE|DICT|INTERRES
   135   69   70 1    
   136   69  190 1    
   137   70   71 1    
   138   70   72 1    
   139   70  191 1    
   140   71  192 1    
   141   71  193 1    
   142   71  194 1    
   143   72   73 2    
   144   72   74 am   BACKBONE|DICT|INTERRES
   145   74   75 1    
   146   74  195 1    
   147   75   76 1    
   148   75   77 1    
   149   75  196 1    
   150   76  197 1    
   151   76  198 1    
   152   76  199 1    
   153   77   78 2    
   154   77   79 am   BACKBONE|DICT|INTERRES
   155   79   80 1    
   156   79  200 1    
   157   80   81 1    
   158   80   82 1    
   159   80  201 1    
   160   81  202 1    
   161   81  203 1    
   162   81  204 1    
   163   82   83 2    
   164   82   84 am   BACKBONE|DICT|INTERRES
   165   84   85 1    
   166   84  205 1    
   167   85   86 1    
   168   85   87 1    
   169   85  206 1    
   170   86  207 1    
   171   86  208 1    
   172   86  209 1    
   173   87   88 2    
   174   87   89 am   BACKBONE|DICT|INTERRES
   175   89   90 1    
   176   89  210 1    
   177   90   91 1    
   178   90   92 1    
   179   90  211 1    
   180   91  212 1    
   181   91  213 1    
   182   91  214 1    
   183   92   93 2    
   184   92   94 am   BACKBONE|DICT|INTERRES
   185   94   95 1    
   186   94  215 1    
   187   95   96 1    
   188   95   97 1    
   189   95  216 1    
   190   96  217 1    
   191   96  218 1    
   192   96  219 1    
   193   97   98 2    
   194   97   99 am   BACKBONE|DICT|INTERRES
   195   99  100 1    
   196   99  220 1    
   197  100  101 1    
   198  100  102 1    
   199  100  221 1    
   200  101  222 1    
   201  101  223 1    
   202  101  224 1    
   203  102  103 2    
   204  102  104 am   BACKBONE|DICT|INTERRES
   205  104  105 1    
   206  104  225 1    
   207  105  106 1    
   208  105  107 1    
   209  105  226 1    
   210  106  227 1    
   211  106  228 1    
   212  106  229 1    
   213  107  108 2    
   214  107  109 am   BACKBONE|DICT|INTERRES
   215  109  110 1    
   216  109  230 1    
   217  110  111 1    
   218  110  112 1    
   219  110  231 1    
   220  111  232 1    
   221  111  233 1    
   222  111  234 1    
   223  112  113 2    
   224  112  114 am   BACKBONE|DICT|INTERRES
   225  114  115 1    
   226  114  235 1    
   227  115  116 1    
   228  115  117 1    
   229  115  236 1    
   230  116  237 1    
   231  116  238 1    
   232  116  239 1    
   233  117  118 2    
   234  117  119 am   BACKBONE|DICT|INTERRES
   235  119  120 1    
   236  119  240 1    
   237  120  121 1    
   238  120  124 1    
   239  120  241 1    
   240  121  122 am   BACKBONE|DICT|INTERRES
   241  121  123 2    
   242  122  242 1    
   243  122  243 1    
   244  124  125 1    
   245  124  244 1    
   246  124  245 1    
   247  125  126 1    
   248  126  246 1    
   249  126  247 1    
@<TRIPOS>SUBSTRUCTURE
     1 UNK         1 GROUP             0       ****    0 ROOT    
