@<TRIPOS>MOLECULE
3R540
247   249    1
SMALL
USER_CHARGES


@<TRIPOS>ATOM
      1 CA          5.6318  -12.9701  -47.0949 C.3       0 UNK        -0.1800 
      2 C           4.1753  -13.1324  -46.6890 C.2       0 UNK         0.5000 
      3 O           3.6814  -12.3661  -45.8620 O.2       0 UNK        -0.5000 
      4 N           3.4771  -14.1098  -47.2824 N.am      1 UNK        -0.5000 
      5 CA          2.0800  -14.4820  -47.0041 C.3       1 UNK         0.1400 
      6 C6          1.6745  -15.7860  -47.7336 C.3       23 UNK        -0.0398 
      7 S7          1.9461  -15.7490  -49.5416 S.3       23 UNK        -0.2404 
      8 C8          0.2431  -15.6185  -50.1839 C.3       23 UNK        -0.0205 
      9 C9         -0.6010  -16.8488  -49.8738 C.ar      23 UNK        -0.0193 
     10 C10        -1.8059  -16.7208  -49.1751 C.ar      23 UNK        -0.1150 
     11 C11        -2.5822  -17.8471  -48.8830 C.ar      23 UNK        -0.0193 
     12 C12        -2.1283  -19.1095  -49.2689 C.ar      23 UNK        -0.1150 
     13 C13        -0.9414  -19.2503  -49.9925 C.ar      23 UNK        -0.0193 
     14 C14        -0.1882  -18.1146  -50.3008 C.ar      23 UNK        -0.1150 
     15 C15        -0.4914  -20.6280  -50.4584 C.3       23 UNK        -0.0205 
     16 S16         1.1710  -21.0917  -49.8616 S.3       23 UNK        -0.2404 
     17 C17         0.9862  -20.9556  -48.0487 C.3       23 UNK        -0.0398 
     18 CA          0.7446  -22.3034  -47.3296 C.3       11 UNK         0.1400 
     19 N           0.8401  -22.1532  -45.8758 N.am      11 UNK        -0.5000 
     20 C           0.7711  -23.1506  -44.9834 C.2       10 UNK         0.5000 
     21 O           0.6568  -24.3363  -45.2876 O.2       10 UNK        -0.5000 
     22 CA          0.7697  -22.7531  -43.4976 C.3       10 UNK         0.1400 
     23 CB          2.1856  -22.3964  -43.0219 C.3       10 UNK        -0.1800 
     24 N          -0.1464  -21.6466  -43.2192 N.am      10 UNK        -0.5000 
     25 C          -1.4745  -21.7032  -43.3997 C.2       9 UNK         0.5000 
     26 O          -2.0720  -22.7131  -43.7732 O.2       9 UNK        -0.5000 
     27 CA         -2.2640  -20.4033  -43.1650 C.3       9 UNK         0.1400 
     28 CB         -2.5045  -20.1736  -41.6656 C.3       9 UNK        -0.1800 
     29 N          -1.6092  -19.2297  -43.7436 N.am      9 UNK        -0.5000 
     30 C          -1.3778  -19.0547  -45.0525 C.2       8 UNK         0.5000 
     31 O          -1.7173  -19.8569  -45.9209 O.2       8 UNK        -0.5000 
     32 CA         -0.5828  -17.7996  -45.4529 C.3       8 UNK         0.1400 
     33 CB         -1.4563  -16.5408  -45.3648 C.3       8 UNK        -0.1800 
     34 N           0.6125  -17.6124  -44.6318 N.am      8 UNK        -0.5000 
     35 C           1.6306  -18.4805  -44.5551 C.2       7 UNK         0.5000 
     36 O           1.7086  -19.5093  -45.2239 O.2       7 UNK        -0.5000 
     37 CA          2.7210  -18.1700  -43.5183 C.3       7 UNK         0.1400 
     38 CB          3.7481  -17.1813  -44.0900 C.3       7 UNK        -0.1800 
     39 N           2.1501  -17.6439  -42.2773 N.am      7 UNK        -0.5000 
     40 C           1.4217  -18.3727  -41.4179 C.2       6 UNK         0.5000 
     41 O           1.1888  -19.5722  -41.5659 O.2       6 UNK        -0.5000 
     42 CA          0.8154  -17.6257  -40.2157 C.3       6 UNK         0.1400 
     43 CB          1.8532  -17.4690  -39.0943 C.3       6 UNK        -0.1800 
     44 N           0.2908  -16.3091  -40.5807 N.am      6 UNK        -0.5000 
     45 C          -0.7583  -16.1106  -41.3917 C.2       5 UNK         0.5000 
     46 O          -1.4294  -17.0238  -41.8703 O.2       5 UNK        -0.5000 
     47 CA         -1.0835  -14.6516  -41.7693 C.3       5 UNK         0.1400 
     48 CB         -2.0903  -14.0505  -40.7780 C.3       5 UNK        -0.1800 
     49 N           0.0984  -13.7873  -41.8433 N.am      5 UNK        -0.5000 
     50 C           1.1298  -13.9730  -42.6764 C.2       4 UNK         0.5000 
     51 O           1.1904  -14.8959  -43.4916 O.2       4 UNK        -0.5000 
     52 CA          2.2922  -12.9750  -42.5549 C.3       4 UNK         0.1400 
     53 CB          3.6559  -13.6664  -42.7202 C.3       4 UNK        -0.1800 
     54 N           2.1711  -11.9145  -43.5493 N.am      4 UNK        -0.5000 
     55 C           1.3845  -10.8373  -43.4271 C.2       3 UNK         0.5000 
     56 O           0.6526  -10.6380  -42.4565 O.2       3 UNK        -0.5000 
     57 CA          1.4259   -9.8042  -44.5651 C.3       3 UNK         0.1400 
     58 CB          2.6741   -8.9157  -44.4407 C.3       3 UNK        -0.1800 
     59 N           1.4278  -10.4502  -45.8772 N.am      3 UNK        -0.5000 
     60 C           0.4985  -10.2676  -46.8265 C.2       2 UNK         0.5000 
     61 O          -0.4573   -9.4993  -46.7107 O.2       2 UNK        -0.5000 
     62 CA          0.6523  -11.0753  -48.1340 C.3       2 UNK         0.1400 
     63 CB          1.3118  -10.2158  -49.2232 C.3       2 UNK        -0.1800 
     64 N           1.4294  -12.3036  -47.9686 N.am      2 UNK        -0.5000 
     65 C           1.0434  -13.3583  -47.2381 C.2       1 UNK         0.5000 
     66 O          -0.0746  -13.4520  -46.7329 O.2       1 UNK        -0.5000 
     67 C          -0.5929  -22.9447  -47.7489 C.2       11 UNK         0.5000 
     68 O          -0.5843  -23.9095  -48.5154 O.2       11 UNK        -0.5000 
     69 N          -1.7072  -22.4227  -47.2167 N.am      12 UNK        -0.5000 
     70 CA         -3.0634  -22.9122  -47.4659 C.3       12 UNK         0.1400 
     71 CB         -4.0725  -22.0049  -46.7470 C.3       12 UNK        -0.1800 
     72 C          -3.2660  -24.3787  -47.0445 C.2       12 UNK         0.5000 
     73 O          -3.9403  -25.1257  -47.7531 O.2       12 UNK        -0.5000 
     74 N          -2.6710  -24.7627  -45.9082 N.am      13 UNK        -0.5000 
     75 CA         -2.7047  -26.1231  -45.3822 C.3       13 UNK         0.1400 
     76 CB         -2.3282  -26.1000  -43.8922 C.3       13 UNK        -0.1800 
     77 C          -1.7898  -27.0852  -46.1612 C.2       13 UNK         0.5000 
     78 O          -2.2278  -28.1800  -46.5177 O.2       13 UNK        -0.5000 
     79 N          -0.5300  -26.6831  -46.3755 N.am      14 UNK        -0.5000 
     80 CA          0.5214  -27.5539  -46.8997 C.3       14 UNK         0.1400 
     81 CB          1.8928  -27.0232  -46.4533 C.3       14 UNK        -0.1800 
     82 C           0.4961  -27.7199  -48.4269 C.2       14 UNK         0.5000 
     83 O           0.7813  -28.8184  -48.9071 O.2       14 UNK        -0.5000 
     84 N           0.2050  -26.6381  -49.1602 N.am      15 UNK        -0.5000 
     85 CA          0.3517  -26.5801  -50.6159 C.3       15 UNK         0.1400 
     86 CB          1.4825  -25.5967  -50.9657 C.3       15 UNK        -0.1800 
     87 C          -0.9452  -26.1703  -51.3236 C.2       15 UNK         0.5000 
     88 O          -1.2813  -26.7654  -52.3480 O.2       15 UNK        -0.5000 
     89 N          -1.6238  -25.1433  -50.7910 N.am      16 UNK        -0.5000 
     90 CA         -2.7711  -24.4453  -51.3856 C.3       16 UNK         0.1400 
     91 CB         -4.0172  -25.3534  -51.4232 C.3       16 UNK        -0.1800 
     92 C          -2.4350  -23.8150  -52.7575 C.2       16 UNK         0.5000 
     93 O          -3.2624  -23.8264  -53.6723 O.2       16 UNK        -0.5000 
     94 N          -1.1972  -23.3119  -52.8821 N.am      17 UNK        -0.5000 
     95 CA         -0.6307  -22.7301  -54.0986 C.3       17 UNK         0.1400 
     96 CB          0.8565  -22.4273  -53.8571 C.3       17 UNK        -0.1800 
     97 C          -1.3776  -21.4662  -54.5632 C.2       17 UNK         0.5000 
     98 O          -1.9781  -20.7697  -53.7445 O.2       17 UNK        -0.5000 
     99 N          -1.3321  -21.2091  -55.8770 N.am      18 UNK        -0.5000 
    100 CA        -1.9655  -20.1024  -56.6128 C.3       18 UNK         0.1400 
    101 CB        -1.5212  -18.7304  -56.0649 C.3       18 UNK        -0.1800 
    102 C         -3.5034  -20.1894  -56.7396 C.2       18 UNK         0.5000 
    103 O         -4.0683  -19.4626  -57.5589 O.2       18 UNK        -0.5000 
    104 N         -4.1449  -21.0889  -55.9788 N.am      19 UNK        -0.5000 
    105 CA        -5.5836  -21.3618  -55.9389 C.3       19 UNK         0.1400 
    106 CB        -6.0372  -22.0443  -57.2494 C.3       19 UNK        -0.1800 
    107 C         -6.4165  -20.1183  -55.5502 C.2       19 UNK         0.5000 
    108 O         -5.9790  -19.3350  -54.7024 O.2       19 UNK        -0.5000 
    109 N         -7.6116  -19.9740  -56.1403 N.am      20 UNK        -0.5000 
    110 CA        -8.6073  -18.9369  -55.8604 C.3       20 UNK         0.1400 
    111 CB        -8.1055  -17.5493  -56.3226 C.3       20 UNK        -0.1800 
    112 C         -9.0614  -18.9911  -54.3870 C.2       20 UNK         0.5000 
    113 O         -9.7731  -19.9268  -54.0172 O.2       20 UNK        -0.5000 
    114 N         -8.6478  -18.0073  -53.5788 N.am      21 UNK        -0.5000 
    115 CA        -8.9791  -17.9050  -52.1595 C.3       21 UNK         0.1400 
    116 CB        -8.6458  -16.4889  -51.6640 C.3       21 UNK        -0.1800 
    117 C         -8.2764  -18.9600  -51.2845 C.2       21 UNK         0.5000 
    118 O         -8.9099  -19.4956  -50.3735 O.2       21 UNK        -0.5000 
    119 N         -6.9901  -19.2249  -51.5507 N.am      22 UNK        -0.5000 
    120 CA        -6.1294  -20.0544  -50.6864 C.3       22 UNK         0.1400 
    121 C         -4.8004  -20.5429  -51.3283 C.2       22 UNK         0.5000 
    122 N         -4.4520  -20.1769  -52.5524 N.am      22 UNK        -0.7600 
    123 O         -4.0731  -21.3066  -50.7024 O.2       22 UNK        -0.5000 
    124 C124       -5.8941  -19.4231  -49.2795 C.3       23 UNK        -0.0398 
    125 S125       -5.3201  -17.6838  -49.3075 S.3       23 UNK        -0.2404 
    126 C126       -3.9098  -17.6992  -48.1542 C.3       23 UNK        -0.0205 
    127 H127        6.2770  -13.0926  -46.2251 H         1 UNK         0.0600 
    128 H128        5.7971  -11.9744  -47.5062 H         1 UNK         0.0600 
    129 H129        5.9280  -13.7033  -47.8454 H         1 UNK         0.0600 
    130 H130        3.9327  -14.6786  -47.9826 H         1 UNK         0.3000 
    131 H131        2.0355  -14.6923  -45.9351 H         1 UNK         0.0600 
    132 H132        2.2557  -16.6174  -47.3325 H         1 UNK         0.0800 
    133 H133        0.6354  -16.0353  -47.5211 H         1 UNK         0.0800 
    134 H134        0.2853  -15.4879  -51.2659 H         1 UNK         0.0800 
    135 H135       -0.2200  -14.7153  -49.7835 H         1 UNK         0.0800 
    136 H136       -2.1448  -15.7428  -48.8631 H         1 UNK         0.1150 
    137 H137       -2.7136  -19.9826  -49.0222 H         1 UNK         0.1150 
    138 H138        0.7315  -18.2188  -50.8591 H         1 UNK         0.1150 
    139 H139       -1.2113  -21.3919  -50.1615 H         1 UNK         0.0800 
    140 H140       -0.4855  -20.6299  -51.5473 H         1 UNK         0.0800 
    141 H141        0.2087  -20.2354  -47.7939 H         1 UNK         0.0800 
    142 H142        1.9148  -20.5171  -47.6820 H         1 UNK         0.0800 
    143 H143        1.5401  -22.9901  -47.6266 H         1 UNK         0.0600 
    144 H144        0.9672  -21.2034  -45.5343 H         1 UNK         0.3000 
    145 H145        0.4288  -23.6176  -42.9242 H         1 UNK         0.0600 
    146 H146        2.2012  -22.1927  -41.9511 H         1 UNK         0.0600 
    147 H147        2.8779  -23.2187  -43.2067 H         1 UNK         0.0600 
    148 H148        2.5752  -21.5173  -43.5349 H         1 UNK         0.0600 
    149 H149        0.2669  -20.7908  -42.8625 H         1 UNK         0.3000 
    150 H150       -3.2351  -20.5139  -43.6517 H         1 UNK         0.0600 
    151 H151       -3.0015  -21.0324  -41.2129 H         1 UNK         0.0600 
    152 H152       -3.1401  -19.3039  -41.4981 H         1 UNK         0.0600 
    153 H153       -1.5698  -20.0118  -41.1277 H         1 UNK         0.0600 
    154 H154       -1.3377  -18.4964  -43.0942 H         1 UNK         0.3000 
    155 H155       -0.2613  -17.9285  -46.4881 H         1 UNK         0.0600 
    156 H156       -2.2639  -16.5775  -46.0913 H         1 UNK         0.0600 
    157 H157       -0.8782  -15.6407  -45.5663 H         1 UNK         0.0600 
    158 H158       -1.9125  -16.4272  -44.3828 H         1 UNK         0.0600 
    159 H159        0.6562  -16.7683  -44.0700 H         1 UNK         0.3000 
    160 H160        3.2414  -19.1011  -43.2848 H         1 UNK         0.0600 
    161 H161        3.2787  -16.2557  -44.4201 H         1 UNK         0.0600 
    162 H162        4.2571  -17.6102  -44.9539 H         1 UNK         0.0600 
    163 H163        4.5115  -16.9300  -43.3537 H         1 UNK         0.0600 
    164 H164        2.2416  -16.6514  -42.1206 H         1 UNK         0.3000 
    165 H165       -0.0123  -18.2269  -39.8334 H         1 UNK         0.0600 
    166 H166        1.4110  -17.0106  -38.2096 H         1 UNK         0.0600 
    167 H167        2.2498  -18.4393  -38.7923 H         1 UNK         0.0600 
    168 H168        2.6968  -16.8522  -39.4065 H         1 UNK         0.0600 
    169 H169        0.7818  -15.5035  -40.2229 H         1 UNK         0.3000 
    170 H170       -1.5447  -14.6625  -42.7586 H         1 UNK         0.0600 
    171 H171       -2.9930  -14.6604  -40.7205 H         1 UNK         0.0600 
    172 H172       -1.6744  -13.9834  -39.7719 H         1 UNK         0.0600 
    173 H173       -2.3951  -13.0494  -41.0836 H         1 UNK         0.0600 
    174 H174        0.1063  -12.9792  -41.2364 H         1 UNK         0.3000 
    175 H175        2.2701  -12.5345  -41.5557 H         1 UNK         0.0600 
    176 H176        3.7838  -14.0767  -43.7213 H         1 UNK         0.0600 
    177 H177        4.4732  -12.9668  -42.5443 H         1 UNK         0.0600 
    178 H178        3.7703  -14.4862  -42.0101 H         1 UNK         0.0600 
    179 H179        2.7400  -12.0274  -44.3856 H         1 UNK         0.3000 
    180 H180        0.5468   -9.1667  -44.4508 H         1 UNK         0.0600 
    181 H181        3.5929   -9.4921  -44.5573 H         1 UNK         0.0600 
    182 H182        2.7119   -8.4275  -43.4661 H         1 UNK         0.0600 
    183 H183        2.6737   -8.1314  -45.1977 H         1 UNK         0.0600 
    184 H184        2.1742  -11.1162  -46.0487 H         1 UNK         0.3000 
    185 H185       -0.3491  -11.3499  -48.4721 H         1 UNK         0.0600 
    186 H186        0.7428   -9.3016  -49.3972 H         1 UNK         0.0600 
    187 H187        2.3255   -9.9239  -48.9460 H         1 UNK         0.0600 
    188 H188        1.3626  -10.7509  -50.1717 H         1 UNK         0.0600 
    189 H189        2.3623  -12.3088  -48.3541 H         1 UNK         0.3000 
    190 H190       -1.6297  -21.6042  -46.6169 H         1 UNK         0.3000 
    191 H191       -3.2456  -22.8398  -48.5386 H         1 UNK         0.0600 
    192 H192       -5.0963  -22.2814  -47.0012 H         1 UNK         0.0600 
    193 H193       -3.9721  -22.0696  -45.6633 H         1 UNK         0.0600 
    194 H194       -3.9346  -20.9621  -47.0271 H         1 UNK         0.0600 
    195 H195       -2.1754  -24.0697  -45.3573 H         1 UNK         0.3000 
    196 H196       -3.7276  -26.4976  -45.4615 H         1 UNK         0.0600 
    197 H197       -2.3484  -27.1043  -43.4672 H         1 UNK         0.0600 
    198 H198       -3.0275  -25.4899  -43.3201 H         1 UNK         0.0600 
    199 H199       -1.3281  -25.6947  -43.7339 H         1 UNK         0.0600 
    200 H200       -0.2327  -25.7698  -46.0376 H         1 UNK         0.3000 
    201 H201        0.3966  -28.5458  -46.4594 H         1 UNK         0.0600 
    202 H202        1.9536  -26.9499  -45.3673 H         1 UNK         0.0600 
    203 H203        2.0961  -26.0350  -46.8680 H         1 UNK         0.0600 
    204 H204        2.6944  -27.6868  -46.7800 H         1 UNK         0.0600 
    205 H205       -0.0552  -25.7746  -48.6932 H         1 UNK         0.3000 
    206 H206        0.6304  -27.5567  -51.0172 H         1 UNK         0.0600 
    207 H207        2.4334  -25.9296  -50.5497 H         1 UNK         0.0600 
    208 H208        1.6115  -25.5155  -52.0458 H         1 UNK         0.0600 
    209 H209        1.2839  -24.5953  -50.5812 H         1 UNK         0.0600 
    210 H210       -1.2551  -24.7185  -49.9416 H         1 UNK         0.3000 
    211 H211       -2.9899  -23.6164  -50.7161 H         1 UNK         0.0600 
    212 H212       -4.9004  -24.7867  -51.7199 H         1 UNK         0.0600 
    213 H213       -4.2220  -25.7819  -50.4423 H         1 UNK         0.0600 
    214 H214       -3.9015  -26.1743  -52.1311 H         1 UNK         0.0600 
    215 H215       -0.5944  -23.3337  -52.0743 H         1 UNK         0.3000 
    216 H216       -0.7082  -23.4830  -54.8856 H         1 UNK         0.0600 
    217 H217        1.3281  -22.0353  -54.7590 H         1 UNK         0.0600 
    218 H218        1.4022  -23.3273  -53.5732 H         1 UNK         0.0600 
    219 H219        0.9978  -21.6879  -53.0687 H         1 UNK         0.0600 
    220 H220       -0.8264  -21.8600  -56.4622 H         1 UNK         0.3000 
    221 H221       -1.5818  -20.1799  -57.6312 H         1 UNK         0.0600 
    222 H222       -1.9368  -18.5305  -55.0770 H         1 UNK         0.0600 
    223 H223       -0.4356  -18.6644  -55.9942 H         1 UNK         0.0600 
    224 H224       -1.8534  -17.9252  -56.7211 H         1 UNK         0.0600 
    225 H225       -3.5929  -21.5972  -55.3018 H         1 UNK         0.3000 
    226 H226       -5.7252  -22.0784  -55.1286 H         1 UNK         0.0600 
    227 H227       -5.3964  -22.8935  -57.4878 H         1 UNK         0.0600 
    228 H228       -7.0534  -22.4310  -57.1674 H         1 UNK         0.0600 
    229 H229       -6.0062  -21.3593  -58.0977 H         1 UNK         0.0600 
    230 H230       -7.8973  -20.6802  -56.8035 H         1 UNK         0.3000 
    231 H231       -9.4864  -19.1803  -56.4590 H         1 UNK         0.0600 
    232 H232       -7.1946  -17.2392  -55.8102 H         1 UNK         0.0600 
    233 H233       -8.8615  -16.7822  -56.1504 H         1 UNK         0.0600 
    234 H234       -7.8918  -17.5531  -57.3915 H         1 UNK         0.0600 
    235 H235       -8.0392  -17.2973  -53.9593 H         1 UNK         0.3000 
    236 H236      -10.0561  -18.0520  -52.0528 H         1 UNK         0.0600 
    237 H237       -7.5832  -16.2647  -51.7677 H         1 UNK         0.0600 
    238 H238       -9.2049  -15.7344  -52.2177 H         1 UNK         0.0600 
    239 H239       -8.9022  -16.3743  -50.6099 H         1 UNK         0.0600 
    240 H240       -6.5397  -18.7670  -52.3295 H         1 UNK         0.3000 
    241 H241       -6.6797  -20.9832  -50.5247 H         1 UNK         0.0600 
    242 H242       -3.5448  -20.4769  -52.9029 H         1 UNK         0.3800 
    243 H243       -5.0609  -19.6633  -53.1813 H         1 UNK         0.3800 
    244 H244       -5.2038  -20.0329  -48.6989 H         1 UNK         0.0800 
    245 H245       -6.8241  -19.4435  -48.7113 H         1 UNK         0.0800 
    246 H246       -3.9297  -16.7570  -47.6067 H         1 UNK         0.0800 
    247 H247       -4.0235  -18.4842  -47.4055 H         1 UNK         0.0800 
@<TRIPOS>BOND
     1    1    2 1    
     2    1  127 1    
     3    1  128 1    
     4    1  129 1    
     5    2    3 2    
     6    2    4 am   BACKBONE|DICT|INTERRES
     7    4    5 1    
     8    4  130 1    
     9    5    6 1    
    10    5   65 1    
    11    5  131 1    
    12    6    7 1    
    13    6  132 1    
    14    6  133 1    
    15    7    8 1    
    16    8    9 1    
    17    8  134 1    
    18    8  135 1    
    19    9   10 ar   
    20    9   14 ar   
    21   10   11 ar   
    22   10  136 1    
    23   11   12 ar   
    24   11  126 1    
    25   12   13 ar   
    26   12  137 1    
    27   13   14 ar   
    28   13   15 1    
    29   14  138 1    
    30   15   16 1    
    31   15  139 1    
    32   15  140 1    
    33   16   17 1    
    34   17   18 1    
    35   17  141 1    
    36   17  142 1    
    37   18   19 1    
    38   18   67 1    
    39   18  143 1    
    40   19   20 am   BACKBONE|DICT|INTERRES
    41   19  144 1    
    42   20   21 2    
    43   20   22 1    
    44   22   23 1    
    45   22   24 1    
    46   22  145 1    
    47   23  146 1    
    48   23  147 1    
    49   23  148 1    
    50   24   25 am   BACKBONE|DICT|INTERRES
    51   24  149 1    
    52   25   26 2    
    53   25   27 1    
    54   27   28 1    
    55   27   29 1    
    56   27  150 1    
    57   28  151 1    
    58   28  152 1    
    59   28  153 1    
    60   29   30 am   BACKBONE|DICT|INTERRES
    61   29  154 1    
    62   30   31 2    
    63   30   32 1    
    64   32   33 1    
    65   32   34 1    
    66   32  155 1    
    67   33  156 1    
    68   33  157 1    
    69   33  158 1    
    70   34   35 am   BACKBONE|DICT|INTERRES
    71   34  159 1    
    72   35   36 2    
    73   35   37 1    
    74   37   38 1    
    75   37   39 1    
    76   37  160 1    
    77   38  161 1    
    78   38  162 1    
    79   38  163 1    
    80   39   40 am   BACKBONE|DICT|INTERRES
    81   39  164 1    
    82   40   41 2    
    83   40   42 1    
    84   42   43 1    
    85   42   44 1    
    86   42  165 1    
    87   43  166 1    
    88   43  167 1    
    89   43  168 1    
    90   44   45 am   BACKBONE|DICT|INTERRES
    91   44  169 1    
    92   45   46 2    
    93   45   47 1    
    94   47   48 1    
    95   47   49 1    
    96   47  170 1    
    97   48  171 1    
    98   48  172 1    
    99   48  173 1    
   100   49   50 am   BACKBONE|DICT|INTERRES
   101   49  174 1    
   102   50   51 2    
   103   50   52 1    
   104   52   53 1    
   105   52   54 1    
   106   52  175 1    
   107   53  176 1    
   108   53  177 1    
   109   53  178 1    
   110   54   55 am   BACKBONE|DICT|INTERRES
   111   54  179 1    
   112   55   56 2    
   113   55   57 1    
   114   57   58 1    
   115   57   59 1    
   116   57  180 1    
   117   58  181 1    
   118   58  182 1    
   119   58  183 1    
   120   59   60 am   BACKBONE|DICT|INTERRES
   121   59  184 1    
   122   60   61 2    
   123   60   62 1    
   124   62   63 1    
   125   62   64 1    
   126   62  185 1    
   127   63  186 1    
   128   63  187 1    
   129   63  188 1    
   130   64   65 am   BACKBONE|DICT|INTERRES
   131   64  189 1    
   132   65   66 2    
   133   67   68 2    
   134   67   69 am   BACKBONE|DICT|INTERRES
   135   69   70 1    
   136   69  190 1    
   137   70   71 1    
   138   70   72 1    
   139   70  191 1    
   140   71  192 1    
   141   71  193 1    
   142   71  194 1    
   143   72   73 2    
   144   72   74 am   BACKBONE|DICT|INTERRES
   145   74   75 1    
   146   74  195 1    
   147   75   76 1    
   148   75   77 1    
   149   75  196 1    
   150   76  197 1    
   151   76  198 1    
   152   76  199 1    
   153   77   78 2    
   154   77   79 am   BACKBONE|DICT|INTERRES
   155   79   80 1    
   156   79  200 1    
   157   80   81 1    
   158   80   82 1    
   159   80  201 1    
   160   81  202 1    
   161   81  203 1    
   162   81  204 1    
   163   82   83 2    
   164   82   84 am   BACKBONE|DICT|INTERRES
   165   84   85 1    
   166   84  205 1    
   167   85   86 1    
   168   85   87 1    
   169   85  206 1    
   170   86  207 1    
   171   86  208 1    
   172   86  209 1    
   173   87   88 2    
   174   87   89 am   BACKBONE|DICT|INTERRES
   175   89   90 1    
   176   89  210 1    
   177   90   91 1    
   178   90   92 1    
   179   90  211 1    
   180   91  212 1    
   181   91  213 1    
   182   91  214 1    
   183   92   93 2    
   184   92   94 am   BACKBONE|DICT|INTERRES
   185   94   95 1    
   186   94  215 1    
   187   95   96 1    
   188   95   97 1    
   189   95  216 1    
   190   96  217 1    
   191   96  218 1    
   192   96  219 1    
   193   97   98 2    
   194   97   99 am   BACKBONE|DICT|INTERRES
   195   99  100 1    
   196   99  220 1    
   197  100  101 1    
   198  100  102 1    
   199  100  221 1    
   200  101  222 1    
   201  101  223 1    
   202  101  224 1    
   203  102  103 2    
   204  102  104 am   BACKBONE|DICT|INTERRES
   205  104  105 1    
   206  104  225 1    
   207  105  106 1    
   208  105  107 1    
   209  105  226 1    
   210  106  227 1    
   211  106  228 1    
   212  106  229 1    
   213  107  108 2    
   214  107  109 am   BACKBONE|DICT|INTERRES
   215  109  110 1    
   216  109  230 1    
   217  110  111 1    
   218  110  112 1    
   219  110  231 1    
   220  111  232 1    
   221  111  233 1    
   222  111  234 1    
   223  112  113 2    
   224  112  114 am   BACKBONE|DICT|INTERRES
   225  114  115 1    
   226  114  235 1    
   227  115  116 1    
   228  115  117 1    
   229  115  236 1    
   230  116  237 1    
   231  116  238 1    
   232  116  239 1    
   233  117  118 2    
   234  117  119 am   BACKBONE|DICT|INTERRES
   235  119  120 1    
   236  119  240 1    
   237  120  121 1    
   238  120  124 1    
   239  120  241 1    
   240  121  122 am   BACKBONE|DICT|INTERRES
   241  121  123 2    
   242  122  242 1    
   243  122  243 1    
   244  124  125 1    
   245  124  244 1    
   246  124  245 1    
   247  125  126 1    
   248  126  246 1    
   249  126  247 1    
@<TRIPOS>SUBSTRUCTURE
     1 UNK         1 GROUP             0       ****    0 ROOT    
