@<TRIPOS>MOLECULE
3R540
247   249    1
SMALL
USER_CHARGES


@<TRIPOS>ATOM
      1 CA          3.5476   -9.4796  -50.1468 C.3       0 UNK        -0.1800 
      2 C           3.5226  -10.8424  -49.4696 C.2       0 UNK         0.5000 
      3 O           4.5300  -11.5497  -49.4759 O.2       0 UNK        -0.5000 
      4 N           2.3796  -11.2100  -48.8763 N.am      1 UNK        -0.5000 
      5 CA          2.1582  -12.4980  -48.2021 C.3       1 UNK         0.1400 
      6 C6          0.6531  -12.8311  -48.0378 C.3       23 UNK        -0.0398 
      7 S7         -0.2961  -12.7567  -49.5933 S.3       23 UNK        -0.2404 
      8 C8         -2.0017  -12.7638  -48.9521 C.3       23 UNK        -0.0205 
      9 C9         -2.5045  -14.1748  -48.6800 C.ar      23 UNK        -0.0193 
     10 C10        -3.2874  -14.8316  -49.6340 C.ar      23 UNK        -0.1150 
     11 C11        -3.7724  -16.1203  -49.3941 C.ar      23 UNK        -0.0193 
     12 C12        -3.4532  -16.7609  -48.1929 C.ar      23 UNK        -0.1150 
     13 C13        -2.6817  -16.1110  -47.2239 C.ar      23 UNK        -0.0193 
     14 C14        -2.2174  -14.8150  -47.4699 C.ar      23 UNK        -0.1150 
     15 C15        -2.3838  -16.7982  -45.8978 C.3       23 UNK        -0.0205 
     16 S16        -0.6150  -17.1629  -45.6546 S.3       23 UNK        -0.2404 
     17 C17        -0.2040  -18.2149  -47.0869 C.3       23 UNK        -0.0398 
     18 CA         -0.3607  -19.7428  -46.8807 C.3       11 UNK         0.1400 
     19 N           0.1506  -20.2526  -45.6042 N.am      11 UNK        -0.5000 
     20 C           0.4850  -21.5373  -45.4090 C.2       10 UNK         0.5000 
     21 O           0.4053  -22.4015  -46.2832 O.2       10 UNK        -0.5000 
     22 CA          0.9527  -21.9314  -43.9978 C.3       10 UNK         0.1400 
     23 CB          2.3152  -21.2971  -43.6744 C.3       10 UNK        -0.1800 
     24 N          -0.0152  -21.5686  -42.9642 N.am      10 UNK        -0.5000 
     25 C          -1.2628  -22.0546  -42.8669 C.2       9 UNK         0.5000 
     26 O          -1.7317  -22.8923  -43.6357 O.2       9 UNK        -0.5000 
     27 CA         -2.1594  -21.4788  -41.7492 C.3       9 UNK         0.1400 
     28 CB         -2.0212  -22.3133  -40.4676 C.3       9 UNK        -0.1800 
     29 N          -1.8719  -20.0775  -41.4415 N.am      9 UNK        -0.5000 
     30 C          -1.8954  -19.0801  -42.3344 C.2       8 UNK         0.5000 
     31 O          -2.3177  -19.2131  -43.4835 O.2       8 UNK        -0.5000 
     32 CA         -1.3028  -17.7235  -41.9075 C.3       8 UNK         0.1400 
     33 CB         -2.4282  -16.7081  -41.6590 C.3       8 UNK        -0.1800 
     34 N          -0.3832  -17.7125  -40.7595 N.am      8 UNK        -0.5000 
     35 C           0.7005  -18.4833  -40.5719 C.2       7 UNK         0.5000 
     36 O           0.9752  -19.4725  -41.2522 O.2       7 UNK        -0.5000 
     37 CA          1.6696  -18.0059  -39.4803 C.3       7 UNK         0.1400 
     38 CB          2.8133  -18.9985  -39.2024 C.3       7 UNK        -0.1800 
     39 N           2.2240  -16.7384  -39.9387 N.am      7 UNK        -0.5000 
     40 C           2.4394  -15.6510  -39.1883 C.2       6 UNK         0.5000 
     41 O           2.2929  -15.6265  -37.9658 O.2       6 UNK        -0.5000 
     42 CA          2.8651  -14.3609  -39.9271 C.3       6 UNK         0.1400 
     43 CB          4.3901  -14.1866  -39.8677 C.3       6 UNK        -0.1800 
     44 N           2.4426  -14.3233  -41.3296 N.am      6 UNK        -0.5000 
     45 C           1.1721  -14.3511  -41.7566 C.2       5 UNK         0.5000 
     46 O           0.2023  -14.2501  -41.0052 O.2       5 UNK        -0.5000 
     47 CA          0.9362  -14.5873  -43.2619 C.3       5 UNK         0.1400 
     48 CB          0.4334  -13.3117  -43.9514 C.3       5 UNK        -0.1800 
     49 N           2.0967  -15.1122  -43.9907 N.am      5 UNK        -0.5000 
     50 C           2.6783  -16.3031  -43.7826 C.2       4 UNK         0.5000 
     51 O           2.3468  -17.0693  -42.8814 O.2       4 UNK        -0.5000 
     52 CA          3.8441  -16.6919  -44.7039 C.3       4 UNK         0.1400 
     53 CB          3.3138  -17.3020  -46.0085 C.3       4 UNK        -0.1800 
     54 N           4.6787  -15.5336  -45.0171 N.am      4 UNK        -0.5000 
     55 C           5.8755  -15.2819  -44.4712 C.2       3 UNK         0.5000 
     56 O           6.4350  -16.0311  -43.6697 O.2       3 UNK        -0.5000 
     57 CA          6.5712  -13.9675  -44.8816 C.3       3 UNK         0.1400 
     58 CB          7.5159  -14.2091  -46.0687 C.3       3 UNK        -0.1800 
     59 N           5.6423  -12.8890  -45.2257 N.am      3 UNK        -0.5000 
     60 C           4.7968  -12.3058  -44.3657 C.2       2 UNK         0.5000 
     61 O           4.7203  -12.6017  -43.1729 O.2       2 UNK        -0.5000 
     62 CA          3.8531  -11.2299  -44.9376 C.3       2 UNK         0.1400 
     63 CB          4.5287   -9.8513  -44.8818 C.3       2 UNK        -0.1800 
     64 N           3.3537  -11.4558  -46.3015 N.am      2 UNK        -0.5000 
     65 C           2.8446  -12.5849  -46.8208 C.2       1 UNK         0.5000 
     66 O           2.8650  -13.6708  -46.2433 O.2       1 UNK        -0.5000 
     67 C          -1.7858  -20.2386  -47.1848 C.2       11 UNK         0.5000 
     68 O          -2.0928  -20.4524  -48.3552 O.2       11 UNK        -0.5000 
     69 N          -2.6129  -20.4719  -46.1547 N.am      12 UNK        -0.5000 
     70 CA         -3.9384  -21.0769  -46.3031 C.3       12 UNK         0.1400 
     71 CB         -4.6983  -21.0110  -44.9715 C.3       12 UNK        -0.1800 
     72 C          -3.8669  -22.5239  -46.8281 C.2       12 UNK         0.5000 
     73 O          -4.5998  -22.8678  -47.7560 O.2       12 UNK        -0.5000 
     74 N          -2.9552  -23.3292  -46.2630 N.am      13 UNK        -0.5000 
     75 CA         -2.6838  -24.7009  -46.6968 C.3       13 UNK         0.1400 
     76 CB         -1.7755  -25.3975  -45.6727 C.3       13 UNK        -0.1800 
     77 C          -2.0668  -24.7742  -48.1050 C.2       13 UNK         0.5000 
     78 O          -2.3944  -25.6911  -48.8575 O.2       13 UNK        -0.5000 
     79 N          -1.2011  -23.8070  -48.4419 N.am      14 UNK        -0.5000 
     80 CA         -0.6147  -23.6615  -49.7748 C.3       14 UNK         0.1400 
     81 CB          0.5491  -22.6611  -49.7229 C.3       14 UNK        -0.1800 
     82 C          -1.6508  -23.2338  -50.8306 C.2       14 UNK         0.5000 
     83 O          -1.5955  -23.7188  -51.9588 O.2       14 UNK        -0.5000 
     84 N          -2.5732  -22.3406  -50.4477 N.am      15 UNK        -0.5000 
     85 CA         -3.6692  -21.8581  -51.2818 C.3       15 UNK         0.1400 
     86 CB         -4.3686  -20.6790  -50.5898 C.3       15 UNK        -0.1800 
     87 C          -4.6816  -22.9608  -51.6237 C.2       15 UNK         0.5000 
     88 O          -4.9829  -23.1604  -52.8032 O.2       15 UNK        -0.5000 
     89 N          -5.1958  -23.6255  -50.5789 N.am      16 UNK        -0.5000 
     90 CA         -6.2447  -24.6429  -50.6287 C.3       16 UNK         0.1400 
     91 CB         -6.5561  -25.1113  -49.1982 C.3       16 UNK        -0.1800 
     92 C          -5.8776  -25.8322  -51.5332 C.2       16 UNK         0.5000 
     93 O          -5.0179  -26.6361  -51.1681 O.2       16 UNK        -0.5000 
     94 N          -6.5281  -25.8987  -52.7036 N.am      17 UNK        -0.5000 
     95 CA         -6.3874  -26.8775  -53.7903 C.3       17 UNK         0.1400 
     96 CB         -6.7559  -28.2975  -53.3209 C.3       17 UNK        -0.1800 
     97 C          -5.0175  -26.8637  -54.4976 C.2       17 UNK         0.5000 
     98 O          -4.9780  -26.8115  -55.7272 O.2       17 UNK        -0.5000 
     99 N          -3.9266  -26.8831  -53.7229 N.am      18 UNK        -0.5000 
    100 CA        -2.5359  -26.9513  -54.1773 C.3       18 UNK         0.1400 
    101 CB        -1.6191  -27.1210  -52.9565 C.3       18 UNK        -0.1800 
    102 C         -2.0866  -25.7649  -55.0533 C.2       18 UNK         0.5000 
    103 O         -1.2044  -25.9449  -55.8942 O.2       18 UNK        -0.5000 
    104 N         -2.7214  -24.5996  -54.8790 N.am      19 UNK        -0.5000 
    105 CA        -2.5611  -23.4238  -55.7334 C.3       19 UNK         0.1400 
    106 CB        -1.7461  -22.3459  -54.9994 C.3       19 UNK        -0.1800 
    107 C         -3.9327  -22.9170  -56.2118 C.2       19 UNK         0.5000 
    108 O         -4.1047  -21.7136  -56.4063 O.2       19 UNK        -0.5000 
    109 N         -4.8880  -23.8429  -56.3934 N.am      20 UNK        -0.5000 
    110 CA        -6.2262  -23.6344  -56.9594 C.3       20 UNK         0.1400 
    111 CB        -6.1183  -23.3769  -58.4769 C.3       20 UNK        -0.1800 
    112 C         -7.0624  -22.5599  -56.2289 C.2       20 UNK         0.5000 
    113 O         -7.7589  -21.7782  -56.8785 O.2       20 UNK        -0.5000 
    114 N         -6.9708  -22.5472  -54.8906 N.am      21 UNK        -0.5000 
    115 CA        -7.6032  -21.5943  -53.9730 C.3       21 UNK         0.1400 
    116 CB        -9.1434  -21.6308  -54.0754 C.3       21 UNK        -0.1800 
    117 C         -7.0015  -20.1810  -54.1066 C.2       21 UNK         0.5000 
    118 O         -7.7340  -19.2011  -54.2555 O.2       21 UNK        -0.5000 
    119 N         -5.6665  -20.1118  -54.0118 N.am      22 UNK        -0.5000 
    120 CA        -4.8626  -18.8752  -54.0194 C.3       22 UNK         0.1400 
    121 C         -4.7344  -18.2092  -55.4245 C.2       22 UNK         0.5000 
    122 N         -4.7141  -18.9755  -56.5065 N.am      22 UNK        -0.7600 
    123 O         -4.6380  -16.9909  -55.5488 O.2       22 UNK        -0.5000 
    124 C124       -5.2817  -17.8791  -52.8913 C.3       23 UNK        -0.0398 
    125 S125       -3.8659  -17.1820  -51.9742 S.3       23 UNK        -0.2404 
    126 C126       -4.6959  -16.7897  -50.4017 C.3       23 UNK        -0.0205 
    127 H127        4.3102   -8.8480  -49.6912 H         1 UNK         0.0600 
    128 H128        2.5882   -8.9682  -50.0645 H         1 UNK         0.0600 
    129 H129        3.7833   -9.5912  -51.2051 H         1 UNK         0.0600 
    130 H130        1.5780  -10.5962  -48.9184 H         1 UNK         0.3000 
    131 H131        2.6027  -13.2804  -48.8210 H         1 UNK         0.0600 
    132 H132        0.5361  -13.8368  -47.6298 H         1 UNK         0.0800 
    133 H133        0.1932  -12.1499  -47.3194 H         1 UNK         0.0800 
    134 H134       -2.6466  -12.2774  -49.6855 H         1 UNK         0.0800 
    135 H135       -2.0715  -12.1577  -48.0478 H         1 UNK         0.0800 
    136 H136       -3.5327  -14.3355  -50.5628 H         1 UNK         0.1150 
    137 H137       -3.8266  -17.7574  -48.0012 H         1 UNK         0.1150 
    138 H138       -1.6314  -14.3082  -46.7166 H         1 UNK         0.1150 
    139 H139       -2.7170  -16.1528  -45.0843 H         1 UNK         0.0800 
    140 H140       -2.9572  -17.7201  -45.7994 H         1 UNK         0.0800 
    141 H141        0.8384  -18.0092  -47.3264 H         1 UNK         0.0800 
    142 H142       -0.7511  -17.8792  -47.9691 H         1 UNK         0.0800 
    143 H143        0.2627  -20.1941  -47.6550 H         1 UNK         0.0600 
    144 H144        0.1922  -19.5977  -44.8364 H         1 UNK         0.3000 
    145 H145        1.0696  -23.0169  -43.9772 H         1 UNK         0.0600 
    146 H146        2.6870  -21.6372  -42.7077 H         1 UNK         0.0600 
    147 H147        3.0604  -21.5667  -44.4237 H         1 UNK         0.0600 
    148 H148        2.2596  -20.2078  -43.6424 H         1 UNK         0.0600 
    149 H149        0.2841  -20.8570  -42.3003 H         1 UNK         0.3000 
    150 H150       -3.1954  -21.5384  -42.0857 H         1 UNK         0.0600 
    151 H151       -2.2504  -23.3625  -40.6588 H         1 UNK         0.0600 
    152 H152       -2.7078  -21.9672  -39.6947 H         1 UNK         0.0600 
    153 H153       -1.0086  -22.2659  -40.0648 H         1 UNK         0.0600 
    154 H154       -1.4837  -19.8838  -40.5306 H         1 UNK         0.3000 
    155 H155       -0.7178  -17.3779  -42.7586 H         1 UNK         0.0600 
    156 H156       -3.0099  -16.9653  -40.7732 H         1 UNK         0.0600 
    157 H157       -2.0331  -15.7019  -41.5222 H         1 UNK         0.0600 
    158 H158       -3.1166  -16.6687  -42.5045 H         1 UNK         0.0600 
    159 H159       -0.4916  -16.9216  -40.1404 H         1 UNK         0.3000 
    160 H160        1.0929  -17.8652  -38.5638 H         1 UNK         0.0600 
    161 H161        3.4263  -19.1639  -40.0894 H         1 UNK         0.0600 
    162 H162        2.4221  -19.9659  -38.8856 H         1 UNK         0.0600 
    163 H163        3.4656  -18.6340  -38.4088 H         1 UNK         0.0600 
    164 H164        2.3431  -16.6735  -40.9468 H         1 UNK         0.3000 
    165 H165        2.3995  -13.5175  -39.4134 H         1 UNK         0.0600 
    166 H166        4.6966  -13.2411  -40.3160 H         1 UNK         0.0600 
    167 H167        4.7450  -14.1871  -38.8362 H         1 UNK         0.0600 
    168 H168        4.9068  -14.9899  -40.3948 H         1 UNK         0.0600 
    169 H169        3.1760  -14.3690  -42.0235 H         1 UNK         0.3000 
    170 H170        0.1443  -15.3320  -43.3395 H         1 UNK         0.0600 
    171 H171       -0.4686  -12.9349  -43.4676 H         1 UNK         0.0600 
    172 H172        1.1783  -12.5189  -43.9185 H         1 UNK         0.0600 
    173 H173        0.1848  -13.5014  -44.9953 H         1 UNK         0.0600 
    174 H174        2.4183  -14.5523  -44.7772 H         1 UNK         0.3000 
    175 H175        4.4300  -17.4581  -44.1917 H         1 UNK         0.0600 
    176 H176        2.6997  -16.5920  -46.5641 H         1 UNK         0.0600 
    177 H177        4.1315  -17.6172  -46.6567 H         1 UNK         0.0600 
    178 H178        2.7039  -18.1826  -45.8024 H         1 UNK         0.0600 
    179 H179        4.2646  -14.8351  -45.6268 H         1 UNK         0.3000 
    180 H180        7.1697  -13.6346  -44.0310 H         1 UNK         0.0600 
    181 H181        6.9696  -14.5192  -46.9604 H         1 UNK         0.0600 
    182 H182        8.2407  -14.9913  -45.8387 H         1 UNK         0.0600 
    183 H183        8.0789  -13.3087  -46.3150 H         1 UNK         0.0600 
    184 H184        5.6220  -12.5937  -46.1911 H         1 UNK         0.3000 
    185 H185        2.9820  -11.1936  -44.2833 H         1 UNK         0.0600 
    186 H186        4.8969   -9.6345  -43.8779 H         1 UNK         0.0600 
    187 H187        5.3784   -9.7933  -45.5632 H         1 UNK         0.0600 
    188 H188        3.8304   -9.0572  -45.1469 H         1 UNK         0.0600 
    189 H189        3.2948  -10.6321  -46.8819 H         1 UNK         0.3000 
    190 H190       -2.3218  -20.2226  -45.2141 H         1 UNK         0.3000 
    191 H191       -4.4930  -20.4850  -47.0343 H         1 UNK         0.0600 
    192 H192       -4.2013  -21.5936  -44.1971 H         1 UNK         0.0600 
    193 H193       -5.7091  -21.4059  -45.0805 H         1 UNK         0.0600 
    194 H194       -4.7857  -19.9840  -44.6166 H         1 UNK         0.0600 
    195 H195       -2.4108  -22.9904  -45.4749 H         1 UNK         0.3000 
    196 H196       -3.6349  -25.2368  -46.7257 H         1 UNK         0.0600 
    197 H197       -1.5600  -26.4235  -45.9735 H         1 UNK         0.0600 
    198 H198       -2.2487  -25.4393  -44.6916 H         1 UNK         0.0600 
    199 H199       -0.8223  -24.8787  -45.5627 H         1 UNK         0.0600 
    200 H200       -0.9253  -23.1305  -47.7389 H         1 UNK         0.3000 
    201 H201       -0.2131  -24.6317  -50.0748 H         1 UNK         0.0600 
    202 H202        1.2929  -22.9551  -48.9820 H         1 UNK         0.0600 
    203 H203        0.2047  -21.6575  -49.4759 H         1 UNK         0.0600 
    204 H204        1.0540  -22.6040  -50.6879 H         1 UNK         0.0600 
    205 H205       -2.4973  -21.9243  -49.5243 H         1 UNK         0.3000 
    206 H206       -3.2479  -21.4857  -52.2143 H         1 UNK         0.0600 
    207 H207       -3.6961  -19.8264  -50.4993 H         1 UNK         0.0600 
    208 H208       -5.2409  -20.3531  -51.1543 H         1 UNK         0.0600 
    209 H209       -4.7114  -20.9367  -49.5884 H         1 UNK         0.0600 
    210 H210       -4.8638  -23.3838  -49.6495 H         1 UNK         0.3000 
    211 H211       -7.1433  -24.1664  -51.0252 H         1 UNK         0.0600 
    212 H212       -5.6713  -25.5218  -48.7092 H         1 UNK         0.0600 
    213 H213       -7.3241  -25.8857  -49.1964 H         1 UNK         0.0600 
    214 H214       -6.9229  -24.2878  -48.5852 H         1 UNK         0.0600 
    215 H215       -7.1903  -25.1614  -52.8971 H         1 UNK         0.3000 
    216 H216       -7.1241  -26.5858  -54.5408 H         1 UNK         0.0600 
    217 H217       -6.7441  -28.9979  -54.1569 H         1 UNK         0.0600 
    218 H218       -7.7571  -28.3224  -52.8908 H         1 UNK         0.0600 
    219 H219       -6.0600  -28.6757  -52.5716 H         1 UNK         0.0600 
    220 H220       -4.0800  -26.8851  -52.7164 H         1 UNK         0.3000 
    221 H221       -2.4424  -27.8482  -54.7927 H         1 UNK         0.0600 
    222 H222       -1.7567  -26.3155  -52.2355 H         1 UNK         0.0600 
    223 H223       -1.8206  -28.0613  -52.4431 H         1 UNK         0.0600 
    224 H224       -0.5682  -27.1284  -53.2484 H         1 UNK         0.0600 
    225 H225       -3.4071  -24.5227  -54.1385 H         1 UNK         0.3000 
    226 H226       -2.0164  -23.6898  -56.6412 H         1 UNK         0.0600 
    227 H227       -1.5323  -21.4999  -55.6535 H         1 UNK         0.0600 
    228 H228       -2.2818  -21.9639  -54.1339 H         1 UNK         0.0600 
    229 H229       -0.7905  -22.7406  -54.6542 H         1 UNK         0.0600 
    230 H230       -4.6533  -24.8100  -56.1961 H         1 UNK         0.3000 
    231 H231       -6.7627  -24.5746  -56.8240 H         1 UNK         0.0600 
    232 H232       -7.1042  -23.3456  -58.9421 H         1 UNK         0.0600 
    233 H233       -5.5542  -24.1677  -58.9714 H         1 UNK         0.0600 
    234 H234       -5.6239  -22.4285  -58.6904 H         1 UNK         0.0600 
    235 H235       -6.2997  -23.1694  -54.4552 H         1 UNK         0.3000 
    236 H236       -7.3531  -21.9304  -52.9662 H         1 UNK         0.0600 
    237 H237       -9.5218  -22.6476  -53.9712 H         1 UNK         0.0600 
    238 H238       -9.5967  -21.0336  -53.2835 H         1 UNK         0.0600 
    239 H239       -9.5040  -21.2332  -55.0240 H         1 UNK         0.0600 
    240 H240       -5.1493  -20.9781  -53.9614 H         1 UNK         0.3000 
    241 H241       -3.8528  -19.2209  -53.7957 H         1 UNK         0.0600 
    242 H242       -4.6308  -18.5463  -57.4136 H         1 UNK         0.3800 
    243 H243       -4.6823  -19.9909  -56.4289 H         1 UNK         0.3800 
    244 H244       -5.8969  -17.0642  -53.2766 H         1 UNK         0.0800 
    245 H245       -5.9182  -18.3815  -52.1635 H         1 UNK         0.0800 
    246 H246       -5.5401  -16.1272  -50.5988 H         1 UNK         0.0800 
    247 H247       -5.1154  -17.7048  -49.9810 H         1 UNK         0.0800 
@<TRIPOS>BOND
     1    1    2 1    
     2    1  127 1    
     3    1  128 1    
     4    1  129 1    
     5    2    3 2    
     6    2    4 am   BACKBONE|DICT|INTERRES
     7    4    5 1    
     8    4  130 1    
     9    5    6 1    
    10    5   65 1    
    11    5  131 1    
    12    6    7 1    
    13    6  132 1    
    14    6  133 1    
    15    7    8 1    
    16    8    9 1    
    17    8  134 1    
    18    8  135 1    
    19    9   10 ar   
    20    9   14 ar   
    21   10   11 ar   
    22   10  136 1    
    23   11   12 ar   
    24   11  126 1    
    25   12   13 ar   
    26   12  137 1    
    27   13   14 ar   
    28   13   15 1    
    29   14  138 1    
    30   15   16 1    
    31   15  139 1    
    32   15  140 1    
    33   16   17 1    
    34   17   18 1    
    35   17  141 1    
    36   17  142 1    
    37   18   19 1    
    38   18   67 1    
    39   18  143 1    
    40   19   20 am   BACKBONE|DICT|INTERRES
    41   19  144 1    
    42   20   21 2    
    43   20   22 1    
    44   22   23 1    
    45   22   24 1    
    46   22  145 1    
    47   23  146 1    
    48   23  147 1    
    49   23  148 1    
    50   24   25 am   BACKBONE|DICT|INTERRES
    51   24  149 1    
    52   25   26 2    
    53   25   27 1    
    54   27   28 1    
    55   27   29 1    
    56   27  150 1    
    57   28  151 1    
    58   28  152 1    
    59   28  153 1    
    60   29   30 am   BACKBONE|DICT|INTERRES
    61   29  154 1    
    62   30   31 2    
    63   30   32 1    
    64   32   33 1    
    65   32   34 1    
    66   32  155 1    
    67   33  156 1    
    68   33  157 1    
    69   33  158 1    
    70   34   35 am   BACKBONE|DICT|INTERRES
    71   34  159 1    
    72   35   36 2    
    73   35   37 1    
    74   37   38 1    
    75   37   39 1    
    76   37  160 1    
    77   38  161 1    
    78   38  162 1    
    79   38  163 1    
    80   39   40 am   BACKBONE|DICT|INTERRES
    81   39  164 1    
    82   40   41 2    
    83   40   42 1    
    84   42   43 1    
    85   42   44 1    
    86   42  165 1    
    87   43  166 1    
    88   43  167 1    
    89   43  168 1    
    90   44   45 am   BACKBONE|DICT|INTERRES
    91   44  169 1    
    92   45   46 2    
    93   45   47 1    
    94   47   48 1    
    95   47   49 1    
    96   47  170 1    
    97   48  171 1    
    98   48  172 1    
    99   48  173 1    
   100   49   50 am   BACKBONE|DICT|INTERRES
   101   49  174 1    
   102   50   51 2    
   103   50   52 1    
   104   52   53 1    
   105   52   54 1    
   106   52  175 1    
   107   53  176 1    
   108   53  177 1    
   109   53  178 1    
   110   54   55 am   BACKBONE|DICT|INTERRES
   111   54  179 1    
   112   55   56 2    
   113   55   57 1    
   114   57   58 1    
   115   57   59 1    
   116   57  180 1    
   117   58  181 1    
   118   58  182 1    
   119   58  183 1    
   120   59   60 am   BACKBONE|DICT|INTERRES
   121   59  184 1    
   122   60   61 2    
   123   60   62 1    
   124   62   63 1    
   125   62   64 1    
   126   62  185 1    
   127   63  186 1    
   128   63  187 1    
   129   63  188 1    
   130   64   65 am   BACKBONE|DICT|INTERRES
   131   64  189 1    
   132   65   66 2    
   133   67   68 2    
   134   67   69 am   BACKBONE|DICT|INTERRES
   135   69   70 1    
   136   69  190 1    
   137   70   71 1    
   138   70   72 1    
   139   70  191 1    
   140   71  192 1    
   141   71  193 1    
   142   71  194 1    
   143   72   73 2    
   144   72   74 am   BACKBONE|DICT|INTERRES
   145   74   75 1    
   146   74  195 1    
   147   75   76 1    
   148   75   77 1    
   149   75  196 1    
   150   76  197 1    
   151   76  198 1    
   152   76  199 1    
   153   77   78 2    
   154   77   79 am   BACKBONE|DICT|INTERRES
   155   79   80 1    
   156   79  200 1    
   157   80   81 1    
   158   80   82 1    
   159   80  201 1    
   160   81  202 1    
   161   81  203 1    
   162   81  204 1    
   163   82   83 2    
   164   82   84 am   BACKBONE|DICT|INTERRES
   165   84   85 1    
   166   84  205 1    
   167   85   86 1    
   168   85   87 1    
   169   85  206 1    
   170   86  207 1    
   171   86  208 1    
   172   86  209 1    
   173   87   88 2    
   174   87   89 am   BACKBONE|DICT|INTERRES
   175   89   90 1    
   176   89  210 1    
   177   90   91 1    
   178   90   92 1    
   179   90  211 1    
   180   91  212 1    
   181   91  213 1    
   182   91  214 1    
   183   92   93 2    
   184   92   94 am   BACKBONE|DICT|INTERRES
   185   94   95 1    
   186   94  215 1    
   187   95   96 1    
   188   95   97 1    
   189   95  216 1    
   190   96  217 1    
   191   96  218 1    
   192   96  219 1    
   193   97   98 2    
   194   97   99 am   BACKBONE|DICT|INTERRES
   195   99  100 1    
   196   99  220 1    
   197  100  101 1    
   198  100  102 1    
   199  100  221 1    
   200  101  222 1    
   201  101  223 1    
   202  101  224 1    
   203  102  103 2    
   204  102  104 am   BACKBONE|DICT|INTERRES
   205  104  105 1    
   206  104  225 1    
   207  105  106 1    
   208  105  107 1    
   209  105  226 1    
   210  106  227 1    
   211  106  228 1    
   212  106  229 1    
   213  107  108 2    
   214  107  109 am   BACKBONE|DICT|INTERRES
   215  109  110 1    
   216  109  230 1    
   217  110  111 1    
   218  110  112 1    
   219  110  231 1    
   220  111  232 1    
   221  111  233 1    
   222  111  234 1    
   223  112  113 2    
   224  112  114 am   BACKBONE|DICT|INTERRES
   225  114  115 1    
   226  114  235 1    
   227  115  116 1    
   228  115  117 1    
   229  115  236 1    
   230  116  237 1    
   231  116  238 1    
   232  116  239 1    
   233  117  118 2    
   234  117  119 am   BACKBONE|DICT|INTERRES
   235  119  120 1    
   236  119  240 1    
   237  120  121 1    
   238  120  124 1    
   239  120  241 1    
   240  121  122 am   BACKBONE|DICT|INTERRES
   241  121  123 2    
   242  122  242 1    
   243  122  243 1    
   244  124  125 1    
   245  124  244 1    
   246  124  245 1    
   247  125  126 1    
   248  126  246 1    
   249  126  247 1    
@<TRIPOS>SUBSTRUCTURE
     1 UNK         1 GROUP             0       ****    0 ROOT    
