@<TRIPOS>MOLECULE
3R540
247   249    1
SMALL
USER_CHARGES


@<TRIPOS>ATOM
      1 CA          3.3951  -13.0680  -47.3755 C.3       0 UNK        -0.1800 
      2 C           2.1963  -13.2076  -46.4505 C.2       0 UNK         0.5000 
      3 O           2.3555  -13.5638  -45.2838 O.2       0 UNK        -0.5000 
      4 N           0.9897  -12.9468  -46.9670 N.am      1 UNK        -0.5000 
      5 CA         -0.2554  -12.9460  -46.1881 C.3       1 UNK         0.1400 
      6 C6         -1.5110  -13.0773  -47.0840 C.3       23 UNK        -0.0398 
      7 S7         -1.6723  -14.7394  -47.8234 S.3       23 UNK        -0.2404 
      8 C8         -0.9025  -14.5048  -49.4591 C.3       23 UNK        -0.0205 
      9 C9         -0.9864  -15.7232  -50.3781 C.ar      23 UNK        -0.0193 
     10 C10        -1.0994  -15.5181  -51.7570 C.ar      23 UNK        -0.1150 
     11 C11        -1.1275  -16.5976  -52.6435 C.ar      23 UNK        -0.0193 
     12 C12        -1.0427  -17.8981  -52.1424 C.ar      23 UNK        -0.1150 
     13 C13        -0.9364  -18.1250  -50.7676 C.ar      23 UNK        -0.0193 
     14 C14        -0.9035  -17.0357  -49.8909 C.ar      23 UNK        -0.1150 
     15 C15        -0.8222  -19.5494  -50.2466 C.3       23 UNK        -0.0205 
     16 S16        -2.4564  -20.3145  -49.9935 S.3       23 UNK        -0.2404 
     17 C17        -2.5588  -20.3756  -48.1746 C.3       23 UNK        -0.0398 
     18 CA         -1.9673  -21.6971  -47.6011 C.3       11 UNK         0.1400 
     19 N          -0.7791  -21.4745  -46.7732 N.am      11 UNK        -0.5000 
     20 C           0.0171  -22.4423  -46.2953 C.2       10 UNK         0.5000 
     21 O          -0.1304  -23.6371  -46.5495 O.2       10 UNK        -0.5000 
     22 CA          1.1288  -22.0098  -45.3216 C.3       10 UNK         0.1400 
     23 CB          2.3460  -21.4557  -46.0770 C.3       10 UNK        -0.1800 
     24 N           0.6551  -21.0276  -44.3447 N.am      10 UNK        -0.5000 
     25 C          -0.2661  -21.2878  -43.4049 C.2       9 UNK         0.5000 
     26 O          -0.7668  -22.3982  -43.2283 O.2       9 UNK        -0.5000 
     27 CA         -0.7457  -20.0998  -42.5519 C.3       9 UNK         0.1400 
     28 CB          0.2255  -19.8360  -41.3922 C.3       9 UNK        -0.1800 
     29 N          -0.9115  -18.8765  -43.3356 N.am      9 UNK        -0.5000 
     30 C          -1.7858  -18.7226  -44.3404 C.2       8 UNK         0.5000 
     31 O          -2.5975  -19.5814  -44.6828 O.2       8 UNK        -0.5000 
     32 CA         -1.6863  -17.4146  -45.1427 C.3       8 UNK         0.1400 
     33 CB         -2.3945  -16.2651  -44.4122 C.3       8 UNK        -0.1800 
     34 N          -0.2953  -17.0547  -45.4234 N.am      8 UNK        -0.5000 
     35 C           0.5204  -17.7718  -46.2093 C.2       7 UNK         0.5000 
     36 O           0.1736  -18.7970  -46.7906 O.2       7 UNK        -0.5000 
     37 CA          1.9701  -17.2877  -46.3584 C.3       7 UNK         0.1400 
     38 CB          2.1208  -16.4526  -47.6358 C.3       7 UNK        -0.1800 
     39 N           2.4266  -16.5390  -45.1836 N.am      7 UNK        -0.5000 
     40 C           2.7844  -17.1394  -44.0394 C.2       6 UNK         0.5000 
     41 O           2.7862  -18.3619  -43.8827 O.2       6 UNK        -0.5000 
     42 CA          3.1596  -16.2222  -42.8620 C.3       6 UNK         0.1400 
     43 CB          4.5242  -15.5576  -43.0981 C.3       6 UNK        -0.1800 
     44 N           2.1524  -15.1974  -42.5754 N.am      6 UNK        -0.5000 
     45 C           0.8794  -15.4487  -42.2344 C.2       5 UNK         0.5000 
     46 O           0.4064  -16.5848  -42.1955 O.2       5 UNK        -0.5000 
     47 CA         -0.0325  -14.2448  -41.9118 C.3       5 UNK         0.1400 
     48 CB         -1.1471  -14.5952  -40.9005 C.3       5 UNK        -0.1800 
     49 N           0.6861  -13.0370  -41.4904 N.am      5 UNK        -0.5000 
     50 C           1.4248  -12.8813  -40.3800 C.2       4 UNK         0.5000 
     51 O           1.6118  -13.7724  -39.5497 O.2       4 UNK        -0.5000 
     52 CA          2.0576  -11.4874  -40.1710 C.3       4 UNK         0.1400 
     53 CB          3.2078  -11.5002  -39.1421 C.3       4 UNK        -0.1800 
     54 N           2.4967  -10.8482  -41.4172 N.am      4 UNK        -0.5000 
     55 C           3.3828  -11.3238  -42.3030 C.2       3 UNK         0.5000 
     56 O           3.9189  -12.4282  -42.2086 O.2       3 UNK        -0.5000 
     57 CA          3.6848  -10.4116  -43.5079 C.3       3 UNK         0.1400 
     58 CB          4.8096  -10.9640  -44.4021 C.3       3 UNK        -0.1800 
     59 N           2.4893  -10.2029  -44.3242 N.am      3 UNK        -0.5000 
     60 C           1.4974   -9.3408  -44.0601 C.2       2 UNK         0.5000 
     61 O           1.4835   -8.6063  -43.0714 O.2       2 UNK        -0.5000 
     62 CA          0.3175   -9.3053  -45.0517 C.3       2 UNK         0.1400 
     63 CB          0.4869   -8.1449  -46.0440 C.3       2 UNK        -0.1800 
     64 N           0.1724  -10.5555  -45.8012 N.am      2 UNK        -0.5000 
     65 C          -0.3305  -11.6904  -45.2930 C.2       1 UNK         0.5000 
     66 O          -0.7876  -11.7796  -44.1539 O.2       1 UNK        -0.5000 
     67 C          -3.0289  -22.5320  -46.8564 C.2       11 UNK         0.5000 
     68 O          -3.5499  -23.4894  -47.4257 O.2       11 UNK        -0.5000 
     69 N          -3.2961  -22.1926  -45.5873 N.am      12 UNK        -0.5000 
     70 CA         -4.2126  -22.9200  -44.7075 C.3       12 UNK         0.1400 
     71 CB         -4.3853  -22.1540  -43.3877 C.3       12 UNK        -0.1800 
     72 C          -3.7700  -24.3723  -44.4500 C.2       12 UNK         0.5000 
     73 O          -4.5965  -25.2799  -44.5462 O.2       12 UNK        -0.5000 
     74 N          -2.4709  -24.5763  -44.1861 N.am      13 UNK        -0.5000 
     75 CA         -1.8510  -25.8946  -44.0157 C.3       13 UNK         0.1400 
     76 CB         -0.3996  -25.7194  -43.5446 C.3       13 UNK        -0.1800 
     77 C          -1.9092  -26.7634  -45.2886 C.2       13 UNK         0.5000 
     78 O          -2.0626  -27.9810  -45.1897 O.2       13 UNK        -0.5000 
     79 N          -1.8278  -26.1169  -46.4581 N.am      14 UNK        -0.5000 
     80 CA         -1.9771  -26.7234  -47.7817 C.3       14 UNK         0.1400 
     81 CB         -1.2501  -25.8330  -48.8015 C.3       14 UNK        -0.1800 
     82 C          -3.4478  -26.9451  -48.2010 C.2       14 UNK         0.5000 
     83 O          -3.6829  -27.4277  -49.3096 O.2       14 UNK        -0.5000 
     84 N          -4.4079  -26.5727  -47.3384 N.am      15 UNK        -0.5000 
     85 CA         -5.8608  -26.6199  -47.5464 C.3       15 UNK         0.1400 
     86 CB         -6.3549  -28.0771  -47.6588 C.3       15 UNK        -0.1800 
     87 C          -6.3279  -25.7310  -48.7193 C.2       15 UNK         0.5000 
     88 O          -7.2832  -26.0745  -49.4191 O.2       15 UNK        -0.5000 
     89 N          -5.6279  -24.6044  -48.9108 N.am      16 UNK        -0.5000 
     90 CA         -5.7493  -23.5939  -49.9608 C.3       16 UNK         0.1400 
     91 CB         -7.1214  -22.8953  -49.9300 C.3       16 UNK        -0.1800 
     92 C          -5.4060  -24.1204  -51.3630 C.2       16 UNK         0.5000 
     93 O          -4.4621  -23.6249  -51.9736 O.2       16 UNK        -0.5000 
     94 N          -6.1641  -25.1095  -51.8490 N.am      17 UNK        -0.5000 
     95 CA         -6.1853  -25.5988  -53.2311 C.3       17 UNK         0.1400 
     96 CB         -7.1773  -26.7680  -53.3235 C.3       17 UNK        -0.1800 
     97 C          -4.8227  -26.0057  -53.8268 C.2       17 UNK         0.5000 
     98 O          -4.6301  -25.8620  -55.0348 O.2       17 UNK        -0.5000 
     99 N          -3.9053  -26.4955  -52.9838 N.am      18 UNK        -0.5000 
    100 CA        -2.5665  -26.9217  -53.3907 C.3       18 UNK         0.1400 
    101 CB        -2.1032  -28.0498  -52.4553 C.3       18 UNK        -0.1800 
    102 C         -1.5296  -25.7789  -53.4291 C.2       18 UNK         0.5000 
    103 O         -0.4302  -26.0081  -53.9361 O.2       18 UNK        -0.5000 
    104 N         -1.8597  -24.5944  -52.8915 N.am      19 UNK        -0.5000 
    105 CA        -0.9255  -23.4727  -52.7391 C.3       19 UNK         0.1400 
    106 CB        -0.5793  -23.3176  -51.2515 C.3       19 UNK        -0.1800 
    107 C         -1.4503  -22.1455  -53.3144 C.2       19 UNK         0.5000 
    108 O         -0.6397  -21.3113  -53.7211 O.2       19 UNK        -0.5000 
    109 N         -2.7751  -21.9551  -53.3574 N.am      20 UNK        -0.5000 
    110 CA        -3.4605  -20.7460  -53.8206 C.3       20 UNK         0.1400 
    111 CB        -4.8795  -20.7157  -53.2245 C.3       20 UNK        -0.1800 
    112 C         -3.4619  -20.6092  -55.3578 C.2       20 UNK         0.5000 
    113 O         -4.5220  -20.4767  -55.9731 O.2       20 UNK        -0.5000 
    114 N         -2.2647  -20.6209  -55.9579 N.am      21 UNK        -0.5000 
    115 CA        -2.0186  -20.4873  -57.3982 C.3       21 UNK         0.1400 
    116 CB        -0.5202  -20.6952  -57.6644 C.3       21 UNK        -0.1800 
    117 C         -2.4935  -19.1443  -57.9907 C.2       21 UNK         0.5000 
    118 O         -2.7688  -19.0690  -59.1886 O.2       21 UNK        -0.5000 
    119 N         -2.6029  -18.1227  -57.1341 N.am      22 UNK        -0.5000 
    120 CA        -3.2268  -16.8248  -57.4205 C.3       22 UNK         0.1400 
    121 C         -4.7836  -16.8513  -57.5169 C.2       22 UNK         0.5000 
    122 N         -5.4666  -17.9390  -57.1760 N.am      22 UNK        -0.7600 
    123 O         -5.3863  -15.8633  -57.9281 O.2       22 UNK        -0.5000 
    124 C124       -2.7233  -15.7322  -56.4411 C.3       23 UNK        -0.0398 
    125 S125       -2.9504  -16.1512  -54.6730 S.3       23 UNK        -0.2404 
    126 C126       -1.2225  -16.3531  -54.1411 C.3       23 UNK        -0.0205 
    127 H127        4.1427  -13.8263  -47.1429 H         1 UNK         0.0600 
    128 H128        3.8542  -12.0876  -47.2510 H         1 UNK         0.0600 
    129 H129        3.1081  -13.1850  -48.4206 H         1 UNK         0.0600 
    130 H130        0.9114  -12.6767  -47.9366 H         1 UNK         0.3000 
    131 H131       -0.2376  -13.8067  -45.5157 H         1 UNK         0.0600 
    132 H132       -2.4148  -12.9125  -46.4943 H         1 UNK         0.0800 
    133 H133       -1.5204  -12.3158  -47.8654 H         1 UNK         0.0800 
    134 H134        0.1490  -14.2495  -49.3308 H         1 UNK         0.0800 
    135 H135       -1.3779  -13.6481  -49.9393 H         1 UNK         0.0800 
    136 H136       -1.1544  -14.5115  -52.1478 H         1 UNK         0.1150 
    137 H137       -1.0464  -18.7367  -52.8234 H         1 UNK         0.1150 
    138 H138       -0.8035  -17.2153  -48.8308 H         1 UNK         0.1150 
    139 H139       -0.2362  -19.5758  -49.3271 H         1 UNK         0.0800 
    140 H140       -0.2667  -20.1487  -50.9682 H         1 UNK         0.0800 
    141 H141       -3.6114  -20.2495  -47.9135 H         1 UNK         0.0800 
    142 H142       -2.0696  -19.4954  -47.7604 H         1 UNK         0.0800 
    143 H143       -1.6310  -22.3234  -48.4291 H         1 UNK         0.0600 
    144 H144       -0.5453  -20.5071  -46.5650 H         1 UNK         0.3000 
    145 H145        1.4512  -22.8960  -44.7709 H         1 UNK         0.0600 
    146 H146        2.7661  -22.2129  -46.7401 H         1 UNK         0.0600 
    147 H147        3.1344  -21.1518  -45.3881 H         1 UNK         0.0600 
    148 H148        2.0879  -20.5944  -46.6918 H         1 UNK         0.0600 
    149 H149        1.0239  -20.0894  -44.4179 H         1 UNK         0.3000 
    150 H150       -1.7182  -20.3619  -42.1307 H         1 UNK         0.0600 
    151 H151        1.2074  -19.5261  -41.7525 H         1 UNK         0.0600 
    152 H152        0.3632  -20.7314  -40.7847 H         1 UNK         0.0600 
    153 H153       -0.1505  -19.0511  -40.7356 H         1 UNK         0.0600 
    154 H154       -0.3096  -18.0959  -43.0841 H         1 UNK         0.3000 
    155 H155       -2.1914  -17.5671  -46.0989 H         1 UNK         0.0600 
    156 H156       -2.3436  -15.3362  -44.9784 H         1 UNK         0.0600 
    157 H157       -1.9587  -16.0843  -43.4327 H         1 UNK         0.0600 
    158 H158       -3.4498  -16.4951  -44.2613 H         1 UNK         0.0600 
    159 H159        0.0798  -16.2482  -44.9503 H         1 UNK         0.3000 
    160 H160        2.6042  -18.1696  -46.4716 H         1 UNK         0.0600 
    161 H161        1.4064  -15.6322  -47.6663 H         1 UNK         0.0600 
    162 H162        1.9357  -17.0661  -48.5185 H         1 UNK         0.0600 
    163 H163        3.1267  -16.0450  -47.7312 H         1 UNK         0.0600 
    164 H164        2.4345  -15.5239  -45.2304 H         1 UNK         0.3000 
    165 H165        3.2432  -16.8521  -41.9741 H         1 UNK         0.0600 
    166 H166        5.2859  -16.2987  -43.3435 H         1 UNK         0.0600 
    167 H167        4.4872  -14.8376  -43.9167 H         1 UNK         0.0600 
    168 H168        4.8618  -15.0298  -42.2061 H         1 UNK         0.0600 
    169 H169        2.4697  -14.2363  -42.6104 H         1 UNK         0.3000 
    170 H170       -0.5212  -13.9965  -42.8529 H         1 UNK         0.0600 
    171 H171       -1.7957  -13.7383  -40.7189 H         1 UNK         0.0600 
    172 H172       -0.7401  -14.9169  -39.9418 H         1 UNK         0.0600 
    173 H173       -1.7803  -15.4042  -41.2629 H         1 UNK         0.0600 
    174 H174        0.6020  -12.2484  -42.1180 H         1 UNK         0.3000 
    175 H175        1.2645  -10.8561  -39.7682 H         1 UNK         0.0600 
    176 H176        4.0202  -12.1582  -39.4524 H         1 UNK         0.0600 
    177 H177        2.8599  -11.8465  -38.1682 H         1 UNK         0.0600 
    178 H178        3.6209  -10.5016  -38.9999 H         1 UNK         0.0600 
    179 H179        2.0783   -9.9473  -41.6261 H         1 UNK         0.3000 
    180 H180        4.0188   -9.4490  -43.1147 H         1 UNK         0.0600 
    181 H181        4.5646  -11.9487  -44.8004 H         1 UNK         0.0600 
    182 H182        5.7386  -11.0636  -43.8394 H         1 UNK         0.0600 
    183 H183        5.0096  -10.3003  -45.2434 H         1 UNK         0.0600 
    184 H184        2.3891  -10.8089  -45.1234 H         1 UNK         0.3000 
    185 H185       -0.5945   -9.1324  -44.4761 H         1 UNK         0.0600 
    186 H186        0.5713   -7.1920  -45.5197 H         1 UNK         0.0600 
    187 H187        1.3826   -8.2636  -46.6550 H         1 UNK         0.0600 
    188 H188       -0.3700   -8.0705  -46.7138 H         1 UNK         0.0600 
    189 H189        0.5302  -10.5606  -46.7451 H         1 UNK         0.3000 
    190 H190       -2.8630  -21.3565  -45.2016 H         1 UNK         0.3000 
    191 H191       -5.1839  -22.9557  -45.2053 H         1 UNK         0.0600 
    192 H192       -4.7659  -21.1477  -43.5632 H         1 UNK         0.0600 
    193 H193       -5.0946  -22.6609  -42.7323 H         1 UNK         0.0600 
    194 H194       -3.4440  -22.0650  -42.8460 H         1 UNK         0.0600 
    195 H195       -1.8604  -23.7707  -44.0789 H         1 UNK         0.3000 
    196 H196       -2.4010  -26.4210  -43.2330 H         1 UNK         0.0600 
    197 H197        0.0799  -26.6861  -43.3857 H         1 UNK         0.0600 
    198 H198       -0.3546  -25.1748  -42.6013 H         1 UNK         0.0600 
    199 H199        0.1970  -25.1722  -44.2749 H         1 UNK         0.0600 
    200 H200       -1.6449  -25.1193  -46.4437 H         1 UNK         0.3000 
    201 H201       -1.4913  -27.7010  -47.7775 H         1 UNK         0.0600 
    202 H202       -1.2687  -26.2697  -49.7991 H         1 UNK         0.0600 
    203 H203       -0.2033  -25.6951  -48.5305 H         1 UNK         0.0600 
    204 H204       -1.7100  -24.8474  -48.8676 H         1 UNK         0.0600 
    205 H205       -4.1172  -26.1603  -46.4600 H         1 UNK         0.3000 
    206 H206       -6.3078  -26.1906  -46.6489 H         1 UNK         0.0600 
    207 H207       -6.0101  -28.6759  -46.8158 H         1 UNK         0.0600 
    208 H208       -7.4445  -28.1208  -47.6624 H         1 UNK         0.0600 
    209 H209       -6.0070  -28.5549  -48.5751 H         1 UNK         0.0600 
    210 H210       -4.8512  -24.4275  -48.2752 H         1 UNK         0.3000 
    211 H211       -4.9998  -22.8363  -49.7249 H         1 UNK         0.0600 
    212 H212       -7.3105  -22.4477  -48.9543 H         1 UNK         0.0600 
    213 H213       -7.1635  -22.0938  -50.6687 H         1 UNK         0.0600 
    214 H214       -7.9404  -23.5811  -50.1475 H         1 UNK         0.0600 
    215 H215       -6.8497  -25.5084  -51.2139 H         1 UNK         0.3000 
    216 H216       -6.5669  -24.7820  -53.8468 H         1 UNK         0.0600 
    217 H217       -6.8774  -27.5980  -52.6824 H         1 UNK         0.0600 
    218 H218       -7.2450  -27.1473  -54.3441 H         1 UNK         0.0600 
    219 H219       -8.1798  -26.4599  -53.0257 H         1 UNK         0.0600 
    220 H220       -4.1346  -26.5742  -52.0023 H         1 UNK         0.3000 
    221 H221       -2.6159  -27.3371  -54.3996 H         1 UNK         0.0600 
    222 H222       -2.0296  -27.7127  -51.4228 H         1 UNK         0.0600 
    223 H223       -2.7946  -28.8922  -52.4820 H         1 UNK         0.0600 
    224 H224       -1.1226  -28.4270  -52.7479 H         1 UNK         0.0600 
    225 H225       -2.7976  -24.4615  -52.5264 H         1 UNK         0.3000 
    226 H226        0.0049  -23.6770  -53.2724 H         1 UNK         0.0600 
    227 H227       -0.0801  -24.2087  -50.8722 H         1 UNK         0.0600 
    228 H228        0.0962  -22.4785  -51.0859 H         1 UNK         0.0600 
    229 H229       -1.4748  -23.1502  -50.6533 H         1 UNK         0.0600 
    230 H230       -3.3838  -22.6673  -52.9596 H         1 UNK         0.3000 
    231 H231       -2.9307  -19.8786  -53.4258 H         1 UNK         0.0600 
    232 H232       -5.4821  -21.5532  -53.5780 H         1 UNK         0.0600 
    233 H233       -5.3995  -19.7960  -53.4954 H         1 UNK         0.0600 
    234 H234       -4.8497  -20.7602  -52.1356 H         1 UNK         0.0600 
    235 H235       -1.4518  -20.7564  -55.3628 H         1 UNK         0.3000 
    236 H236       -2.5725  -21.2806  -57.9040 H         1 UNK         0.0600 
    237 H237        0.0854  -19.9431  -57.1573 H         1 UNK         0.0600 
    238 H238       -0.1914  -21.6769  -57.3228 H         1 UNK         0.0600 
    239 H239       -0.2991  -20.6320  -58.7307 H         1 UNK         0.0600 
    240 H240       -2.3678  -18.2872  -56.1672 H         1 UNK         0.3000 
    241 H241       -2.8916  -16.5270  -58.4159 H         1 UNK         0.0600 
    242 H242       -5.0046  -18.7728  -56.8277 H         1 UNK         0.3800 
    243 H243       -6.4709  -17.9307  -57.2553 H         1 UNK         0.3800 
    244 H244       -1.6659  -15.5454  -56.6325 H         1 UNK         0.0800 
    245 H245       -3.2188  -14.7795  -56.6362 H         1 UNK         0.0800 
    246 H246       -0.7648  -17.1779  -54.6897 H         1 UNK         0.0800 
    247 H247       -0.6548  -15.4578  -54.4000 H         1 UNK         0.0800 
@<TRIPOS>BOND
     1    1    2 1    
     2    1  127 1    
     3    1  128 1    
     4    1  129 1    
     5    2    3 2    
     6    2    4 am   BACKBONE|DICT|INTERRES
     7    4    5 1    
     8    4  130 1    
     9    5    6 1    
    10    5   65 1    
    11    5  131 1    
    12    6    7 1    
    13    6  132 1    
    14    6  133 1    
    15    7    8 1    
    16    8    9 1    
    17    8  134 1    
    18    8  135 1    
    19    9   10 ar   
    20    9   14 ar   
    21   10   11 ar   
    22   10  136 1    
    23   11   12 ar   
    24   11  126 1    
    25   12   13 ar   
    26   12  137 1    
    27   13   14 ar   
    28   13   15 1    
    29   14  138 1    
    30   15   16 1    
    31   15  139 1    
    32   15  140 1    
    33   16   17 1    
    34   17   18 1    
    35   17  141 1    
    36   17  142 1    
    37   18   19 1    
    38   18   67 1    
    39   18  143 1    
    40   19   20 am   BACKBONE|DICT|INTERRES
    41   19  144 1    
    42   20   21 2    
    43   20   22 1    
    44   22   23 1    
    45   22   24 1    
    46   22  145 1    
    47   23  146 1    
    48   23  147 1    
    49   23  148 1    
    50   24   25 am   BACKBONE|DICT|INTERRES
    51   24  149 1    
    52   25   26 2    
    53   25   27 1    
    54   27   28 1    
    55   27   29 1    
    56   27  150 1    
    57   28  151 1    
    58   28  152 1    
    59   28  153 1    
    60   29   30 am   BACKBONE|DICT|INTERRES
    61   29  154 1    
    62   30   31 2    
    63   30   32 1    
    64   32   33 1    
    65   32   34 1    
    66   32  155 1    
    67   33  156 1    
    68   33  157 1    
    69   33  158 1    
    70   34   35 am   BACKBONE|DICT|INTERRES
    71   34  159 1    
    72   35   36 2    
    73   35   37 1    
    74   37   38 1    
    75   37   39 1    
    76   37  160 1    
    77   38  161 1    
    78   38  162 1    
    79   38  163 1    
    80   39   40 am   BACKBONE|DICT|INTERRES
    81   39  164 1    
    82   40   41 2    
    83   40   42 1    
    84   42   43 1    
    85   42   44 1    
    86   42  165 1    
    87   43  166 1    
    88   43  167 1    
    89   43  168 1    
    90   44   45 am   BACKBONE|DICT|INTERRES
    91   44  169 1    
    92   45   46 2    
    93   45   47 1    
    94   47   48 1    
    95   47   49 1    
    96   47  170 1    
    97   48  171 1    
    98   48  172 1    
    99   48  173 1    
   100   49   50 am   BACKBONE|DICT|INTERRES
   101   49  174 1    
   102   50   51 2    
   103   50   52 1    
   104   52   53 1    
   105   52   54 1    
   106   52  175 1    
   107   53  176 1    
   108   53  177 1    
   109   53  178 1    
   110   54   55 am   BACKBONE|DICT|INTERRES
   111   54  179 1    
   112   55   56 2    
   113   55   57 1    
   114   57   58 1    
   115   57   59 1    
   116   57  180 1    
   117   58  181 1    
   118   58  182 1    
   119   58  183 1    
   120   59   60 am   BACKBONE|DICT|INTERRES
   121   59  184 1    
   122   60   61 2    
   123   60   62 1    
   124   62   63 1    
   125   62   64 1    
   126   62  185 1    
   127   63  186 1    
   128   63  187 1    
   129   63  188 1    
   130   64   65 am   BACKBONE|DICT|INTERRES
   131   64  189 1    
   132   65   66 2    
   133   67   68 2    
   134   67   69 am   BACKBONE|DICT|INTERRES
   135   69   70 1    
   136   69  190 1    
   137   70   71 1    
   138   70   72 1    
   139   70  191 1    
   140   71  192 1    
   141   71  193 1    
   142   71  194 1    
   143   72   73 2    
   144   72   74 am   BACKBONE|DICT|INTERRES
   145   74   75 1    
   146   74  195 1    
   147   75   76 1    
   148   75   77 1    
   149   75  196 1    
   150   76  197 1    
   151   76  198 1    
   152   76  199 1    
   153   77   78 2    
   154   77   79 am   BACKBONE|DICT|INTERRES
   155   79   80 1    
   156   79  200 1    
   157   80   81 1    
   158   80   82 1    
   159   80  201 1    
   160   81  202 1    
   161   81  203 1    
   162   81  204 1    
   163   82   83 2    
   164   82   84 am   BACKBONE|DICT|INTERRES
   165   84   85 1    
   166   84  205 1    
   167   85   86 1    
   168   85   87 1    
   169   85  206 1    
   170   86  207 1    
   171   86  208 1    
   172   86  209 1    
   173   87   88 2    
   174   87   89 am   BACKBONE|DICT|INTERRES
   175   89   90 1    
   176   89  210 1    
   177   90   91 1    
   178   90   92 1    
   179   90  211 1    
   180   91  212 1    
   181   91  213 1    
   182   91  214 1    
   183   92   93 2    
   184   92   94 am   BACKBONE|DICT|INTERRES
   185   94   95 1    
   186   94  215 1    
   187   95   96 1    
   188   95   97 1    
   189   95  216 1    
   190   96  217 1    
   191   96  218 1    
   192   96  219 1    
   193   97   98 2    
   194   97   99 am   BACKBONE|DICT|INTERRES
   195   99  100 1    
   196   99  220 1    
   197  100  101 1    
   198  100  102 1    
   199  100  221 1    
   200  101  222 1    
   201  101  223 1    
   202  101  224 1    
   203  102  103 2    
   204  102  104 am   BACKBONE|DICT|INTERRES
   205  104  105 1    
   206  104  225 1    
   207  105  106 1    
   208  105  107 1    
   209  105  226 1    
   210  106  227 1    
   211  106  228 1    
   212  106  229 1    
   213  107  108 2    
   214  107  109 am   BACKBONE|DICT|INTERRES
   215  109  110 1    
   216  109  230 1    
   217  110  111 1    
   218  110  112 1    
   219  110  231 1    
   220  111  232 1    
   221  111  233 1    
   222  111  234 1    
   223  112  113 2    
   224  112  114 am   BACKBONE|DICT|INTERRES
   225  114  115 1    
   226  114  235 1    
   227  115  116 1    
   228  115  117 1    
   229  115  236 1    
   230  116  237 1    
   231  116  238 1    
   232  116  239 1    
   233  117  118 2    
   234  117  119 am   BACKBONE|DICT|INTERRES
   235  119  120 1    
   236  119  240 1    
   237  120  121 1    
   238  120  124 1    
   239  120  241 1    
   240  121  122 am   BACKBONE|DICT|INTERRES
   241  121  123 2    
   242  122  242 1    
   243  122  243 1    
   244  124  125 1    
   245  124  244 1    
   246  124  245 1    
   247  125  126 1    
   248  126  246 1    
   249  126  247 1    
@<TRIPOS>SUBSTRUCTURE
     1 UNK         1 GROUP             0       ****    0 ROOT    
