@<TRIPOS>MOLECULE
3R540
247   249    1
SMALL
USER_CHARGES


@<TRIPOS>ATOM
      1 CA          3.2885  -10.6232  -53.4531 C.3       0 UNK        -0.1800 
      2 C           3.6191  -11.3727  -52.1699 C.2       0 UNK         0.5000 
      3 O           4.7894  -11.4700  -51.8004 O.2       0 UNK        -0.5000 
      4 N           2.5965  -11.9013  -51.4920 N.am      1 UNK        -0.5000 
      5 CA          2.6995  -12.6343  -50.2333 C.3       1 UNK         0.1400 
      6 C6          3.0720  -14.1215  -50.4627 C.3       23 UNK        -0.0398 
      7 S7          3.8928  -14.8857  -49.0245 S.3       23 UNK        -0.2404 
      8 C8          2.5407  -15.8501  -48.2860 C.3       23 UNK        -0.0205 
      9 C9          2.1386  -17.0534  -49.1261 C.ar      23 UNK        -0.0193 
     10 C10         0.9936  -17.0018  -49.9287 C.ar      23 UNK        -0.1150 
     11 C11         0.5814  -18.1251  -50.6489 C.ar      23 UNK        -0.0193 
     12 C12         1.3447  -19.2920  -50.5925 C.ar      23 UNK        -0.1150 
     13 C13         2.4823  -19.3640  -49.7854 C.ar      23 UNK        -0.0193 
     14 C14         2.8765  -18.2388  -49.0547 C.ar      23 UNK        -0.1150 
     15 C15         3.2660  -20.6662  -49.6860 C.3       23 UNK        -0.0205 
     16 S16         2.2165  -22.0794  -49.2043 S.3       23 UNK        -0.2404 
     17 C17         1.6377  -21.5411  -47.5622 C.3       23 UNK        -0.0398 
     18 CA          0.6163  -22.5245  -46.9427 C.3       11 UNK         0.1400 
     19 N           0.6444  -22.4543  -45.4841 N.am      11 UNK        -0.5000 
     20 C           0.2034  -23.3939  -44.6405 C.2       10 UNK         0.5000 
     21 O          -0.2965  -24.4545  -45.0139 O.2       10 UNK        -0.5000 
     22 CA          0.3000  -23.0674  -43.1334 C.3       10 UNK         0.1400 
     23 CB          0.5562  -24.3174  -42.2679 C.3       10 UNK        -0.1800 
     24 N           1.2615  -21.9980  -42.8321 N.am      10 UNK        -0.5000 
     25 C           2.5923  -22.0103  -43.0134 C.2       9 UNK         0.5000 
     26 O           3.2255  -23.0013  -43.3776 O.2       9 UNK        -0.5000 
     27 CA          3.3453  -20.6792  -42.8081 C.3       9 UNK         0.1400 
     28 CB          3.8140  -20.1272  -44.1650 C.3       9 UNK        -0.1800 
     29 N           2.5462  -19.6499  -42.1410 N.am      9 UNK        -0.5000 
     30 C           2.2577  -19.6282  -40.8333 C.2       8 UNK         0.5000 
     31 O           2.6892  -20.4493  -40.0235 O.2       8 UNK        -0.5000 
     32 CA          1.2910  -18.5258  -40.3601 C.3       8 UNK         0.1400 
     33 CB          2.0525  -17.2224  -40.0764 C.3       8 UNK        -0.1800 
     34 N           0.2041  -18.2637  -41.3092 N.am      8 UNK        -0.5000 
     35 C          -0.7337  -19.1565  -41.6605 C.2       7 UNK         0.5000 
     36 O          -0.7850  -20.3040  -41.2189 O.2       7 UNK        -0.5000 
     37 CA         -1.7600  -18.7157  -42.7172 C.3       7 UNK         0.1400 
     38 CB         -2.8401  -17.8170  -42.0979 C.3       7 UNK        -0.1800 
     39 N          -1.1335  -18.0297  -43.8446 N.am      7 UNK        -0.5000 
     40 C          -0.3167  -18.6113  -44.7328 C.2       6 UNK         0.5000 
     41 O          -0.0622  -19.8155  -44.7447 O.2       6 UNK        -0.5000 
     42 CA          0.3375  -17.6930  -45.7778 C.3       6 UNK         0.1400 
     43 CB         -0.6461  -17.4139  -46.9191 C.3       6 UNK        -0.1800 
     44 N           0.7893  -16.4260  -45.2064 N.am      6 UNK        -0.5000 
     45 C           1.7159  -16.3045  -44.2460 C.2       5 UNK         0.5000 
     46 O           2.3267  -17.2534  -43.7565 O.2       5 UNK        -0.5000 
     47 CA          1.9557  -14.8870  -43.7027 C.3       5 UNK         0.1400 
     48 CB          2.9056  -14.0984  -44.6179 C.3       5 UNK        -0.1800 
     49 N           0.6994  -14.1553  -43.5356 N.am      5 UNK        -0.5000 
     50 C          -0.2320  -14.4566  -42.6189 C.2       4 UNK         0.5000 
     51 O          -0.1074  -15.3551  -41.7868 O.2       4 UNK        -0.5000 
     52 CA         -1.5407  -13.6477  -42.6726 C.3       4 UNK         0.1400 
     53 CB         -1.3754  -12.2995  -41.9556 C.3       4 UNK        -0.1800 
     54 N          -1.9994  -13.4164  -44.0431 N.am      4 UNK        -0.5000 
     55 C          -2.4214  -14.3809  -44.8738 C.2       3 UNK         0.5000 
     56 O          -2.5132  -15.5641  -44.5516 O.2       3 UNK        -0.5000 
     57 CA         -2.7479  -13.9566  -46.3192 C.3       3 UNK         0.1400 
     58 CB         -4.2117  -13.5037  -46.4234 C.3       3 UNK        -0.1800 
     59 N          -1.8708  -12.8928  -46.8214 N.am      3 UNK        -0.5000 
     60 C          -0.5428  -13.0067  -46.9543 C.2       2 UNK         0.5000 
     61 O           0.0867  -14.0175  -46.6405 O.2       2 UNK        -0.5000 
     62 CA          0.2150  -11.7539  -47.4219 C.3       2 UNK         0.1400 
     63 CB          0.6645  -10.9319  -46.2034 C.3       2 UNK        -0.1800 
     64 N           1.3939  -12.0826  -48.2256 N.am      2 UNK        -0.5000 
     65 C           1.3525  -12.4520  -49.5113 C.2       1 UNK         0.5000 
     66 O           0.3061  -12.5997  -50.1477 O.2       1 UNK        -0.5000 
     67 C          -0.8136  -22.2926  -47.4713 C.2       11 UNK         0.5000 
     68 O          -1.2303  -22.9592  -48.4158 O.2       11 UNK        -0.5000 
     69 N          -1.5718  -21.4082  -46.8052 N.am      12 UNK        -0.5000 
     70 CA         -2.9958  -21.1870  -47.0739 C.3       12 UNK         0.1400 
     71 CB         -3.4666  -19.9276  -46.3330 C.3       12 UNK        -0.1800 
     72 C          -3.8708  -22.3912  -46.6752 C.2       12 UNK         0.5000 
     73 O          -4.9053  -22.6231  -47.2978 O.2       12 UNK        -0.5000 
     74 N          -3.4365  -23.1325  -45.6471 N.am      13 UNK        -0.5000 
     75 CA         -4.1234  -24.3097  -45.1155 C.3       13 UNK         0.1400 
     76 CB         -3.7212  -24.4871  -43.6424 C.3       13 UNK        -0.1800 
     77 C          -3.8311  -25.5971  -45.9109 C.2       13 UNK         0.5000 
     78 O          -4.5970  -26.5544  -45.7955 O.2       13 UNK        -0.5000 
     79 N          -2.7288  -25.6101  -46.6743 N.am      14 UNK        -0.5000 
     80 CA         -2.2390  -26.7490  -47.4518 C.3       14 UNK         0.1400 
     81 CB         -0.8682  -26.4257  -48.0678 C.3       14 UNK        -0.1800 
     82 C          -3.2304  -27.3444  -48.4827 C.2       14 UNK         0.5000 
     83 O          -3.4032  -28.5627  -48.4705 O.2       14 UNK        -0.5000 
     84 N          -3.9235  -26.5755  -49.3385 N.am      15 UNK        -0.5000 
     85 CA         -3.7299  -25.1708  -49.7053 C.3       15 UNK         0.1400 
     86 CB         -5.0855  -24.6084  -50.1659 C.3       15 UNK        -0.1800 
     87 C          -2.6781  -25.0254  -50.8215 C.2       15 UNK         0.5000 
     88 O          -2.1858  -26.0237  -51.3530 O.2       15 UNK        -0.5000 
     89 N          -2.3575  -23.7708  -51.1573 N.am      16 UNK        -0.5000 
     90 CA         -1.3293  -23.3822  -52.1238 C.3       16 UNK         0.1400 
     91 CB         -1.1181  -21.8653  -52.0184 C.3       16 UNK        -0.1800 
     92 C          -1.6345  -23.7732  -53.5831 C.2       16 UNK         0.5000 
     93 O          -0.7166  -23.7766  -54.4037 O.2       16 UNK        -0.5000 
     94 N          -2.9100  -24.0515  -53.8927 N.am      17 UNK        -0.5000 
     95 CA         -3.4881  -24.4525  -55.1854 C.3       17 UNK         0.1400 
     96 CB         -2.8250  -25.7279  -55.7392 C.3       17 UNK        -0.1800 
     97 C          -3.5189  -23.3286  -56.2397 C.2       17 UNK         0.5000 
     98 O          -4.4958  -23.2262  -56.9821 O.2       17 UNK        -0.5000 
     99 N          -2.4902  -22.4712  -56.2520 N.am      18 UNK        -0.5000 
    100 CA        -2.4441  -21.2052  -56.9881 C.3       18 UNK         0.1400 
    101 CB        -1.0135  -20.6487  -56.9292 C.3       18 UNK        -0.1800 
    102 C         -3.4498  -20.1696  -56.4423 C.2       18 UNK         0.5000 
    103 O         -3.8836  -19.2881  -57.1849 O.2       18 UNK        -0.5000 
    104 N         -3.8175  -20.3176  -55.1651 N.am      19 UNK        -0.5000 
    105 CA        -4.8899  -19.6104  -54.4845 C.3       19 UNK         0.1400 
    106 CB        -4.3310  -18.3543  -53.7996 C.3       19 UNK        -0.1800 
    107 C         -5.5062  -20.5816  -53.4671 C.2       19 UNK         0.5000 
    108 O         -4.8104  -21.4773  -52.9778 O.2       19 UNK        -0.5000 
    109 N         -6.7984  -20.3939  -53.1739 N.am      20 UNK        -0.5000 
    110 CA        -7.5656  -21.2538  -52.2687 C.3       20 UNK         0.1400 
    111 CB        -9.0648  -21.0768  -52.5561 C.3       20 UNK        -0.1800 
    112 C         -7.2689  -20.9867  -50.7819 C.2       20 UNK         0.5000 
    113 O         -7.3263  -21.9193  -49.9813 O.2       20 UNK        -0.5000 
    114 N         -6.9724  -19.7256  -50.4422 N.am      21 UNK        -0.5000 
    115 CA        -6.6819  -19.2784  -49.0762 C.3       21 UNK         0.1400 
    116 CB        -7.9976  -18.9030  -48.3688 C.3       21 UNK        -0.1800 
    117 C         -5.6636  -18.1228  -49.0304 C.2       21 UNK         0.5000 
    118 O         -5.3862  -17.6148  -47.9445 O.2       21 UNK        -0.5000 
    119 N         -5.1260  -17.7231  -50.1930 N.am      22 UNK        -0.5000 
    120 CA        -4.0763  -16.6959  -50.3590 C.3       22 UNK         0.1400 
    121 C         -4.4860  -15.2415  -49.9699 C.2       22 UNK         0.5000 
    122 N         -5.7655  -14.9373  -49.7915 N.am      22 UNK        -0.7600 
    123 O         -3.6371  -14.3609  -49.8707 O.2       22 UNK        -0.5000 
    124 C124       -2.7236  -17.1250  -49.7266 C.3       23 UNK        -0.0398 
    125 S125       -2.1074  -18.6863  -50.4467 S.3       23 UNK        -0.2404 
    126 C126       -0.7061  -18.1065  -51.4559 C.3       23 UNK        -0.0205 
    127 H127        3.6241   -9.5887  -53.3806 H         1 UNK         0.0600 
    128 H128        2.2173  -10.6198  -53.6562 H         1 UNK         0.0600 
    129 H129        3.7934  -11.0881  -54.2999 H         1 UNK         0.0600 
    130 H130        1.6453  -11.7785  -51.8174 H         1 UNK         0.3000 
    131 H131        3.4767  -12.1573  -49.6314 H         1 UNK         0.0600 
    132 H132        2.2093  -14.7032  -50.7856 H         1 UNK         0.0800 
    133 H133        3.7874  -14.1986  -51.2824 H         1 UNK         0.0800 
    134 H134        1.6848  -15.1971  -48.1322 H         1 UNK         0.0800 
    135 H135        2.8491  -16.1863  -47.2954 H         1 UNK         0.0800 
    136 H136        0.4042  -16.0967  -49.9649 H         1 UNK         0.1150 
    137 H137        1.0336  -20.1629  -51.1495 H         1 UNK         0.1150 
    138 H138        3.7509  -18.2847  -48.4209 H         1 UNK         0.1150 
    139 H139        3.7210  -20.8776  -50.6544 H         1 UNK         0.0800 
    140 H140        4.0859  -20.5743  -48.9719 H         1 UNK         0.0800 
    141 H141        1.2298  -20.5299  -47.6163 H         1 UNK         0.0800 
    142 H142        2.5235  -21.4730  -46.9286 H         1 UNK         0.0800 
    143 H143        0.9055  -23.5416  -47.2179 H         1 UNK         0.0600 
    144 H144        0.9152  -21.5639  -45.0832 H         1 UNK         0.3000 
    145 H145       -0.6775  -22.6726  -42.8533 H         1 UNK         0.0600 
    146 H146        0.6212  -24.0578  -41.2112 H         1 UNK         0.0600 
    147 H147       -0.2546  -25.0389  -42.3744 H         1 UNK         0.0600 
    148 H148        1.4797  -24.8245  -42.5478 H         1 UNK         0.0600 
    149 H149        0.8443  -21.1321  -42.5145 H         1 UNK         0.3000 
    150 H150        4.2263  -20.8891  -42.1982 H         1 UNK         0.0600 
    151 H151        4.4342  -20.8518  -44.6943 H         1 UNK         0.0600 
    152 H152        4.4100  -19.2234  -44.0374 H         1 UNK         0.0600 
    153 H153        2.9703  -19.8811  -44.8111 H         1 UNK         0.0600 
    154 H154        2.2144  -18.8868  -42.7254 H         1 UNK         0.3000 
    155 H155        0.8387  -18.8638  -39.4255 H         1 UNK         0.0600 
    156 H156        2.8548  -17.3867  -39.3560 H         1 UNK         0.0600 
    157 H157        1.3916  -16.4626  -39.6591 H         1 UNK         0.0600 
    158 H158        2.5020  -16.8143  -40.9819 H         1 UNK         0.0600 
    159 H159        0.1553  -17.3242  -41.6920 H         1 UNK         0.3000 
    160 H160       -2.2481  -19.6151  -43.0973 H         1 UNK         0.0600 
    161 H161       -2.4236  -16.8795  -41.7288 H         1 UNK         0.0600 
    162 H162       -3.3289  -18.3138  -41.2590 H         1 UNK         0.0600 
    163 H163       -3.6128  -17.5736  -42.8274 H         1 UNK         0.0600 
    164 H164       -1.3606  -17.0468  -43.9617 H         1 UNK         0.3000 
    165 H165        1.2121  -18.2021  -46.1877 H         1 UNK         0.0600 
    166 H166       -0.2902  -16.6202  -47.5718 H         1 UNK         0.0600 
    167 H167       -0.7894  -18.3054  -47.5310 H         1 UNK         0.0600 
    168 H168       -1.6216  -17.1039  -46.5460 H         1 UNK         0.0600 
    169 H169        0.3729  -15.5794  -45.5850 H         1 UNK         0.3000 
    170 H170        2.4290  -14.9790  -42.7230 H         1 UNK         0.0600 
    171 H171        3.8629  -14.6117  -44.7163 H         1 UNK         0.0600 
    172 H172        2.5002  -13.9751  -45.6220 H         1 UNK         0.0600 
    173 H173        3.1092  -13.1067  -44.2141 H         1 UNK         0.0600 
    174 H174        0.4925  -13.4472  -44.2234 H         1 UNK         0.3000 
    175 H175       -2.3087  -14.2215  -42.1494 H         1 UNK         0.0600 
    176 H176       -1.0468  -12.4438  -40.9255 H         1 UNK         0.0600 
    177 H177       -0.6379  -11.6658  -42.4499 H         1 UNK         0.0600 
    178 H178       -2.3183  -11.7535  -41.9210 H         1 UNK         0.0600 
    179 H179       -1.9601  -12.4685  -44.3864 H         1 UNK         0.3000 
    180 H180       -2.6134  -14.8290  -46.9623 H         1 UNK         0.0600 
    181 H181       -4.4136  -12.6382  -45.7913 H         1 UNK         0.0600 
    182 H182       -4.8879  -14.3026  -46.1159 H         1 UNK         0.0600 
    183 H183       -4.4717  -13.2381  -47.4478 H         1 UNK         0.0600 
    184 H184       -2.3205  -12.0295  -47.0896 H         1 UNK         0.3000 
    185 H185       -0.4586  -11.1405  -48.0245 H         1 UNK         0.0600 
    186 H186       -0.1874  -10.6449  -45.5855 H         1 UNK         0.0600 
    187 H187        1.3554  -11.4909  -45.5711 H         1 UNK         0.0600 
    188 H188        1.1629  -10.0125  -46.5112 H         1 UNK         0.0600 
    189 H189        2.2865  -12.0152  -47.7592 H         1 UNK         0.3000 
    190 H190       -1.1575  -20.8973  -46.0330 H         1 UNK         0.3000 
    191 H191       -3.1255  -21.0225  -48.1461 H         1 UNK         0.0600 
    192 H192       -3.2498  -19.9792  -45.2664 H         1 UNK         0.0600 
    193 H193       -4.5431  -19.7889  -46.4392 H         1 UNK         0.0600 
    194 H194       -2.9919  -19.0345  -46.7341 H         1 UNK         0.0600 
    195 H195       -2.5668  -22.8782  -45.2052 H         1 UNK         0.3000 
    196 H196       -5.2012  -24.1372  -45.1536 H         1 UNK         0.0600 
    197 H197       -4.2535  -25.3254  -43.1911 H         1 UNK         0.0600 
    198 H198       -3.9607  -23.5992  -43.0569 H         1 UNK         0.0600 
    199 H199       -2.6539  -24.6831  -43.5358 H         1 UNK         0.0600 
    200 H200       -2.1420  -24.7883  -46.6720 H         1 UNK         0.3000 
    201 H201       -2.0624  -27.5422  -46.7222 H         1 UNK         0.0600 
    202 H202       -0.1234  -26.2516  -47.2909 H         1 UNK         0.0600 
    203 H203       -0.8964  -25.5390  -48.6970 H         1 UNK         0.0600 
    204 H204       -0.5090  -27.2522  -48.6821 H         1 UNK         0.0600 
    205 H205       -4.5536  -27.0646  -49.9553 H         1 UNK         0.3000 
    206 H206       -3.3961  -24.5824  -48.8547 H         1 UNK         0.0600 
    207 H207       -5.8355  -24.7015  -49.3799 H         1 UNK         0.0600 
    208 H208       -5.0155  -23.5471  -50.4083 H         1 UNK         0.0600 
    209 H209       -5.4604  -25.1236  -51.0511 H         1 UNK         0.0600 
    210 H210       -2.7871  -23.0110  -50.6495 H         1 UNK         0.3000 
    211 H211       -0.3996  -23.8790  -51.8393 H         1 UNK         0.0600 
    212 H212       -0.8400  -21.5803  -51.0033 H         1 UNK         0.0600 
    213 H213       -2.0204  -21.3132  -52.2847 H         1 UNK         0.0600 
    214 H214       -0.3199  -21.5315  -52.6824 H         1 UNK         0.0600 
    215 H215       -3.5824  -23.9367  -53.1468 H         1 UNK         0.3000 
    216 H216       -4.5290  -24.6980  -54.9690 H         1 UNK         0.0600 
    217 H217       -3.3557  -26.0876  -56.6215 H         1 UNK         0.0600 
    218 H218       -2.8380  -26.5305  -55.0016 H         1 UNK         0.0600 
    219 H219       -1.7890  -25.5578  -56.0328 H         1 UNK         0.0600 
    220 H220       -1.7070  -22.6809  -55.6404 H         1 UNK         0.3000 
    221 H221       -2.6992  -21.4034  -58.0310 H         1 UNK         0.0600 
    222 H222       -0.9344  -19.7142  -57.4861 H         1 UNK         0.0600 
    223 H223       -0.7023  -20.4480  -55.9031 H         1 UNK         0.0600 
    224 H224       -0.3002  -21.3482  -57.3654 H         1 UNK         0.0600 
    225 H225       -3.4489  -21.0988  -54.6384 H         1 UNK         0.3000 
    226 H226       -5.6579  -19.3256  -55.2068 H         1 UNK         0.0600 
    227 H227       -3.8684  -17.6837  -54.5239 H         1 UNK         0.0600 
    228 H228       -5.1235  -17.7954  -53.3020 H         1 UNK         0.0600 
    229 H229       -3.5776  -18.6089  -53.0542 H         1 UNK         0.0600 
    230 H230       -7.3069  -19.6498  -53.6300 H         1 UNK         0.3000 
    231 H231       -7.3046  -22.2946  -52.4740 H         1 UNK         0.0600 
    232 H232       -9.3021  -21.3382  -53.5875 H         1 UNK         0.0600 
    233 H233       -9.3910  -20.0501  -52.3854 H         1 UNK         0.0600 
    234 H234       -9.6642  -21.7225  -51.9127 H         1 UNK         0.0600 
    235 H235       -7.0092  -19.0157  -51.1576 H         1 UNK         0.3000 
    236 H236       -6.2170  -20.0984  -48.5241 H         1 UNK         0.0600 
    237 H237       -7.8184  -18.5916  -47.3389 H         1 UNK         0.0600 
    238 H238       -8.5057  -18.0835  -48.8780 H         1 UNK         0.0600 
    239 H239       -8.6820  -19.7507  -48.3325 H         1 UNK         0.0600 
    240 H240       -5.3712  -18.2256  -51.0295 H         1 UNK         0.3000 
    241 H241       -3.9090  -16.6284  -51.4338 H         1 UNK         0.0600 
    242 H242       -6.0214  -13.9908  -49.5605 H         1 UNK         0.3800 
    243 H243       -6.4772  -15.6448  -49.8699 H         1 UNK         0.3800 
    244 H244       -1.9669  -16.3501  -49.8513 H         1 UNK         0.0800 
    245 H245       -2.8386  -17.2591  -48.6519 H         1 UNK         0.0800 
    246 H246       -0.6061  -18.7618  -52.3225 H         1 UNK         0.0800 
    247 H247       -0.9037  -17.1097  -51.8526 H         1 UNK         0.0800 
@<TRIPOS>BOND
     1    1    2 1    
     2    1  127 1    
     3    1  128 1    
     4    1  129 1    
     5    2    3 2    
     6    2    4 am   BACKBONE|DICT|INTERRES
     7    4    5 1    
     8    4  130 1    
     9    5    6 1    
    10    5   65 1    
    11    5  131 1    
    12    6    7 1    
    13    6  132 1    
    14    6  133 1    
    15    7    8 1    
    16    8    9 1    
    17    8  134 1    
    18    8  135 1    
    19    9   10 ar   
    20    9   14 ar   
    21   10   11 ar   
    22   10  136 1    
    23   11   12 ar   
    24   11  126 1    
    25   12   13 ar   
    26   12  137 1    
    27   13   14 ar   
    28   13   15 1    
    29   14  138 1    
    30   15   16 1    
    31   15  139 1    
    32   15  140 1    
    33   16   17 1    
    34   17   18 1    
    35   17  141 1    
    36   17  142 1    
    37   18   19 1    
    38   18   67 1    
    39   18  143 1    
    40   19   20 am   BACKBONE|DICT|INTERRES
    41   19  144 1    
    42   20   21 2    
    43   20   22 1    
    44   22   23 1    
    45   22   24 1    
    46   22  145 1    
    47   23  146 1    
    48   23  147 1    
    49   23  148 1    
    50   24   25 am   BACKBONE|DICT|INTERRES
    51   24  149 1    
    52   25   26 2    
    53   25   27 1    
    54   27   28 1    
    55   27   29 1    
    56   27  150 1    
    57   28  151 1    
    58   28  152 1    
    59   28  153 1    
    60   29   30 am   BACKBONE|DICT|INTERRES
    61   29  154 1    
    62   30   31 2    
    63   30   32 1    
    64   32   33 1    
    65   32   34 1    
    66   32  155 1    
    67   33  156 1    
    68   33  157 1    
    69   33  158 1    
    70   34   35 am   BACKBONE|DICT|INTERRES
    71   34  159 1    
    72   35   36 2    
    73   35   37 1    
    74   37   38 1    
    75   37   39 1    
    76   37  160 1    
    77   38  161 1    
    78   38  162 1    
    79   38  163 1    
    80   39   40 am   BACKBONE|DICT|INTERRES
    81   39  164 1    
    82   40   41 2    
    83   40   42 1    
    84   42   43 1    
    85   42   44 1    
    86   42  165 1    
    87   43  166 1    
    88   43  167 1    
    89   43  168 1    
    90   44   45 am   BACKBONE|DICT|INTERRES
    91   44  169 1    
    92   45   46 2    
    93   45   47 1    
    94   47   48 1    
    95   47   49 1    
    96   47  170 1    
    97   48  171 1    
    98   48  172 1    
    99   48  173 1    
   100   49   50 am   BACKBONE|DICT|INTERRES
   101   49  174 1    
   102   50   51 2    
   103   50   52 1    
   104   52   53 1    
   105   52   54 1    
   106   52  175 1    
   107   53  176 1    
   108   53  177 1    
   109   53  178 1    
   110   54   55 am   BACKBONE|DICT|INTERRES
   111   54  179 1    
   112   55   56 2    
   113   55   57 1    
   114   57   58 1    
   115   57   59 1    
   116   57  180 1    
   117   58  181 1    
   118   58  182 1    
   119   58  183 1    
   120   59   60 am   BACKBONE|DICT|INTERRES
   121   59  184 1    
   122   60   61 2    
   123   60   62 1    
   124   62   63 1    
   125   62   64 1    
   126   62  185 1    
   127   63  186 1    
   128   63  187 1    
   129   63  188 1    
   130   64   65 am   BACKBONE|DICT|INTERRES
   131   64  189 1    
   132   65   66 2    
   133   67   68 2    
   134   67   69 am   BACKBONE|DICT|INTERRES
   135   69   70 1    
   136   69  190 1    
   137   70   71 1    
   138   70   72 1    
   139   70  191 1    
   140   71  192 1    
   141   71  193 1    
   142   71  194 1    
   143   72   73 2    
   144   72   74 am   BACKBONE|DICT|INTERRES
   145   74   75 1    
   146   74  195 1    
   147   75   76 1    
   148   75   77 1    
   149   75  196 1    
   150   76  197 1    
   151   76  198 1    
   152   76  199 1    
   153   77   78 2    
   154   77   79 am   BACKBONE|DICT|INTERRES
   155   79   80 1    
   156   79  200 1    
   157   80   81 1    
   158   80   82 1    
   159   80  201 1    
   160   81  202 1    
   161   81  203 1    
   162   81  204 1    
   163   82   83 2    
   164   82   84 am   BACKBONE|DICT|INTERRES
   165   84   85 1    
   166   84  205 1    
   167   85   86 1    
   168   85   87 1    
   169   85  206 1    
   170   86  207 1    
   171   86  208 1    
   172   86  209 1    
   173   87   88 2    
   174   87   89 am   BACKBONE|DICT|INTERRES
   175   89   90 1    
   176   89  210 1    
   177   90   91 1    
   178   90   92 1    
   179   90  211 1    
   180   91  212 1    
   181   91  213 1    
   182   91  214 1    
   183   92   93 2    
   184   92   94 am   BACKBONE|DICT|INTERRES
   185   94   95 1    
   186   94  215 1    
   187   95   96 1    
   188   95   97 1    
   189   95  216 1    
   190   96  217 1    
   191   96  218 1    
   192   96  219 1    
   193   97   98 2    
   194   97   99 am   BACKBONE|DICT|INTERRES
   195   99  100 1    
   196   99  220 1    
   197  100  101 1    
   198  100  102 1    
   199  100  221 1    
   200  101  222 1    
   201  101  223 1    
   202  101  224 1    
   203  102  103 2    
   204  102  104 am   BACKBONE|DICT|INTERRES
   205  104  105 1    
   206  104  225 1    
   207  105  106 1    
   208  105  107 1    
   209  105  226 1    
   210  106  227 1    
   211  106  228 1    
   212  106  229 1    
   213  107  108 2    
   214  107  109 am   BACKBONE|DICT|INTERRES
   215  109  110 1    
   216  109  230 1    
   217  110  111 1    
   218  110  112 1    
   219  110  231 1    
   220  111  232 1    
   221  111  233 1    
   222  111  234 1    
   223  112  113 2    
   224  112  114 am   BACKBONE|DICT|INTERRES
   225  114  115 1    
   226  114  235 1    
   227  115  116 1    
   228  115  117 1    
   229  115  236 1    
   230  116  237 1    
   231  116  238 1    
   232  116  239 1    
   233  117  118 2    
   234  117  119 am   BACKBONE|DICT|INTERRES
   235  119  120 1    
   236  119  240 1    
   237  120  121 1    
   238  120  124 1    
   239  120  241 1    
   240  121  122 am   BACKBONE|DICT|INTERRES
   241  121  123 2    
   242  122  242 1    
   243  122  243 1    
   244  124  125 1    
   245  124  244 1    
   246  124  245 1    
   247  125  126 1    
   248  126  246 1    
   249  126  247 1    
@<TRIPOS>SUBSTRUCTURE
     1 UNK         1 GROUP             0       ****    0 ROOT    
