@<TRIPOS>MOLECULE
3R540
247   249    1
SMALL
USER_CHARGES


@<TRIPOS>ATOM
      1 CA          6.2199  -10.9241  -47.7309 C.3       0 UNK        -0.1800 
      2 C           5.0551  -11.3094  -48.6410 C.2       0 UNK         0.5000 
      3 O           4.1609  -10.4929  -48.8488 O.2       0 UNK        -0.5000 
      4 N           5.0094  -12.5253  -49.2045 N.am      1 UNK        -0.5000 
      5 CA          5.9291  -13.6505  -48.9889 C.3       1 UNK         0.1400 
      6 C6          5.7616  -14.7486  -50.0726 C.3       23 UNK        -0.0398 
      7 S7          4.0523  -15.3823  -50.2290 S.3       23 UNK        -0.2404 
      8 C8          4.2972  -16.8601  -51.2595 C.3       23 UNK        -0.0205 
      9 C9          3.1966  -17.8813  -51.0149 C.ar      23 UNK        -0.0193 
     10 C10         1.8734  -17.5906  -51.3606 C.ar      23 UNK        -0.1150 
     11 C11         0.8531  -18.5136  -51.1132 C.ar      23 UNK        -0.0193 
     12 C12         1.1692  -19.7440  -50.5293 C.ar      23 UNK        -0.1150 
     13 C13         2.4922  -20.0566  -50.2006 C.ar      23 UNK        -0.0193 
     14 C14         3.4996  -19.1183  -50.4392 C.ar      23 UNK        -0.1150 
     15 C15         2.8428  -21.4191  -49.6214 C.3       23 UNK        -0.0205 
     16 S16         3.2500  -21.3573  -47.8444 S.3       23 UNK        -0.2404 
     17 C17         1.6863  -20.8058  -47.0817 C.3       23 UNK        -0.0398 
     18 CA          0.7670  -21.9745  -46.6468 C.3       11 UNK         0.1400 
     19 N          -0.1715  -21.5754  -45.5967 N.am      11 UNK        -0.5000 
     20 C          -1.0124  -22.4010  -44.9564 C.2       10 UNK         0.5000 
     21 O          -1.0484  -23.6189  -45.1324 O.2       10 UNK        -0.5000 
     22 CA         -2.0264  -21.7459  -44.0011 C.3       10 UNK         0.1400 
     23 CB         -1.3791  -21.4266  -42.6456 C.3       10 UNK        -0.1800 
     24 N          -2.6243  -20.5337  -44.5641 N.am      10 UNK        -0.5000 
     25 C          -3.3598  -20.5069  -45.6852 C.2       9 UNK         0.5000 
     26 O          -3.6487  -21.5100  -46.3374 O.2       9 UNK        -0.5000 
     27 CA         -3.7974  -19.1248  -46.1954 C.3       9 UNK         0.1400 
     28 CB         -4.9838  -18.5812  -45.3855 C.3       9 UNK        -0.1800 
     29 N          -2.7086  -18.1477  -46.1938 N.am      9 UNK        -0.5000 
     30 C          -1.5870  -18.2457  -46.9216 C.2       8 UNK         0.5000 
     31 O          -1.3760  -19.1461  -47.7320 O.2       8 UNK        -0.5000 
     32 CA         -0.4992  -17.1850  -46.6717 C.3       8 UNK         0.1400 
     33 CB         -0.8094  -15.8940  -47.4432 C.3       8 UNK        -0.1800 
     34 N          -0.3248  -16.8876  -45.2481 N.am      8 UNK        -0.5000 
     35 C           0.0753  -17.7850  -44.3344 C.2       7 UNK         0.5000 
     36 O           0.3993  -18.9394  -44.6079 O.2       7 UNK        -0.5000 
     37 CA          0.0511  -17.3428  -42.8624 C.3       7 UNK         0.1400 
     38 CB          1.3080  -16.5420  -42.4944 C.3       7 UNK        -0.1800 
     39 N          -1.1474  -16.5651  -42.5536 N.am      7 UNK        -0.5000 
     40 C          -2.3810  -17.0861  -42.4884 C.2       6 UNK         0.5000 
     41 O          -2.6255  -18.2832  -42.6378 O.2       6 UNK        -0.5000 
     42 CA         -3.5380  -16.0968  -42.2583 C.3       6 UNK         0.1400 
     43 CB         -3.7186  -15.8152  -40.7593 C.3       6 UNK        -0.1800 
     44 N          -3.3442  -14.8323  -42.9693 N.am      6 UNK        -0.5000 
     45 C          -3.3386  -14.7055  -44.3042 C.2       5 UNK         0.5000 
     46 O          -3.5411  -15.6378  -45.0796 O.2       5 UNK        -0.5000 
     47 CA         -2.9936  -13.3142  -44.8649 C.3       5 UNK         0.1400 
     48 CB         -4.2584  -12.4524  -44.9900 C.3       5 UNK        -0.1800 
     49 N          -1.9964  -12.6081  -44.0553 N.am      5 UNK        -0.5000 
     50 C          -0.7312  -13.0164  -43.8944 C.2       4 UNK         0.5000 
     51 O          -0.2703  -14.0367  -44.4134 O.2       4 UNK        -0.5000 
     52 CA          0.1420  -12.1814  -42.9461 C.3       4 UNK         0.1400 
     53 CB          0.2079  -12.8362  -41.5580 C.3       4 UNK        -0.1800 
     54 N           1.4935  -12.0580  -43.4813 N.am      4 UNK        -0.5000 
     55 C           1.8795  -11.1277  -44.3595 C.2       3 UNK         0.5000 
     56 O           1.1457  -10.2229  -44.7598 O.2       3 UNK        -0.5000 
     57 CA          3.3198  -11.2217  -44.8953 C.3       3 UNK         0.1400 
     58 CB          4.3510  -10.7810  -43.8389 C.3       3 UNK        -0.1800 
     59 N           3.6576  -12.5272  -45.4741 N.am      3 UNK        -0.5000 
     60 C           3.8122  -13.7195  -44.8773 C.2       2 UNK         0.5000 
     61 O           3.6678  -13.9082  -43.6690 O.2       2 UNK        -0.5000 
     62 CA          4.1830  -14.9061  -45.7904 C.3       2 UNK         0.1400 
     63 CB          3.0060  -15.8852  -45.9111 C.3       2 UNK        -0.1800 
     64 N           4.5531  -14.4658  -47.1367 N.am      2 UNK        -0.5000 
     65 C           5.8000  -14.2192  -47.5586 C.2       1 UNK         0.5000 
     66 O           6.8054  -14.3672  -46.8637 O.2       1 UNK        -0.5000 
     67 C           0.0329  -22.5920  -47.8524 C.2       11 UNK         0.5000 
     68 O           0.3909  -23.6883  -48.2790 O.2       11 UNK        -0.5000 
     69 N          -0.9942  -21.8967  -48.3610 N.am      12 UNK        -0.5000 
     70 CA         -1.8084  -22.3325  -49.4945 C.3       12 UNK         0.1400 
     71 CB         -2.7914  -21.2224  -49.8825 C.3       12 UNK        -0.1800 
     72 C          -2.5516  -23.6509  -49.2265 C.2       12 UNK         0.5000 
     73 O          -2.5610  -24.5236  -50.0938 O.2       12 UNK        -0.5000 
     74 N          -3.1155  -23.7922  -48.0194 N.am      13 UNK        -0.5000 
     75 CA         -3.7591  -25.0163  -47.5468 C.3       13 UNK         0.1400 
     76 CB         -4.4435  -24.7507  -46.1979 C.3       13 UNK        -0.1800 
     77 C          -2.7780  -26.1999  -47.4480 C.2       13 UNK         0.5000 
     78 O          -3.1033  -27.2914  -47.9157 O.2       13 UNK        -0.5000 
     79 N          -1.5839  -25.9581  -46.8860 N.am      14 UNK        -0.5000 
     80 CA         -0.5029  -26.9423  -46.7733 C.3       14 UNK         0.1400 
     81 CB          0.6066  -26.3864  -45.8678 C.3       14 UNK        -0.1800 
     82 C           0.0715  -27.3701  -48.1380 C.2       14 UNK         0.5000 
     83 O           0.3831  -28.5466  -48.3259 O.2       14 UNK        -0.5000 
     84 N           0.1708  -26.4163  -49.0728 N.am      15 UNK        -0.5000 
     85 CA          0.6021  -26.6242  -50.4568 C.3       15 UNK         0.1400 
     86 CB          0.9913  -25.2639  -51.0597 C.3       15 UNK        -0.1800 
     87 C          -0.4545  -27.3184  -51.3421 C.2       15 UNK         0.5000 
     88 O          -0.1266  -27.7076  -52.4638 O.2       15 UNK        -0.5000 
     89 N          -1.6927  -27.4434  -50.8401 N.am      16 UNK        -0.5000 
     90 CA         -2.8856  -27.9603  -51.5192 C.3       16 UNK         0.1400 
     91 CB         -2.7236  -29.4515  -51.8819 C.3       16 UNK        -0.1800 
     92 C          -3.3212  -27.0815  -52.7121 C.2       16 UNK         0.5000 
     93 O          -3.8261  -27.5930  -53.7139 O.2       16 UNK        -0.5000 
     94 N          -3.1270  -25.7660  -52.5674 N.am      17 UNK        -0.5000 
     95 CA         -3.6205  -24.7238  -53.4610 C.3       17 UNK         0.1400 
     96 CB         -2.5779  -23.5889  -53.4957 C.3       17 UNK        -0.1800 
     97 C          -4.9980  -24.2301  -52.9715 C.2       17 UNK         0.5000 
     98 O          -5.6211  -24.8651  -52.1151 O.2       17 UNK        -0.5000 
     99 N          -5.4591  -23.0966  -53.5162 N.am      18 UNK        -0.5000 
    100 CA        -6.6475  -22.3836  -53.0494 C.3       18 UNK         0.1400 
    101 CB        -7.0087  -21.2804  -54.0574 C.3       18 UNK        -0.1800 
    102 C         -6.3937  -21.8034  -51.6465 C.2       18 UNK         0.5000 
    103 O         -5.6499  -20.8301  -51.5193 O.2       18 UNK        -0.5000 
    104 N         -6.9884  -22.4300  -50.6222 N.am      19 UNK        -0.5000 
    105 CA        -6.7562  -22.1565  -49.1989 C.3       19 UNK         0.1400 
    106 CB        -7.5499  -23.1663  -48.3574 C.3       19 UNK        -0.1800 
    107 C         -7.0636  -20.7142  -48.7512 C.2       19 UNK         0.5000 
    108 O         -6.5330  -20.2746  -47.7331 O.2       19 UNK        -0.5000 
    109 N         -7.8624  -19.9770  -49.5333 N.am      20 UNK        -0.5000 
    110 CA        -8.1063  -18.5408  -49.3932 C.3       20 UNK         0.1400 
    111 CB        -9.4105  -18.1916  -50.1324 C.3       20 UNK        -0.1800 
    112 C         -6.9009  -17.7025  -49.8816 C.2       20 UNK         0.5000 
    113 O         -7.0481  -16.8708  -50.7791 O.2       20 UNK        -0.5000 
    114 N         -5.7233  -17.9624  -49.2949 N.am      21 UNK        -0.5000 
    115 CA        -4.4352  -17.2919  -49.5114 C.3       21 UNK         0.1400 
    116 CB        -4.4355  -15.9200  -48.8072 C.3       21 UNK        -0.1800 
    117 C         -4.0044  -17.2149  -50.9913 C.2       21 UNK         0.5000 
    118 O         -3.5331  -16.1696  -51.4420 O.2       21 UNK        -0.5000 
    119 N         -4.1869  -18.3257  -51.7176 N.am      22 UNK        -0.5000 
    120 CA        -3.9423  -18.4752  -53.1626 C.3       22 UNK         0.1400 
    121 C         -4.9759  -17.7386  -54.0713 C.2       22 UNK         0.5000 
    122 N         -6.0616  -17.1788  -53.5495 N.am      22 UNK        -0.7600 
    123 O         -4.8124  -17.7026  -55.2879 O.2       22 UNK        -0.5000 
    124 C124       -2.4734  -18.1871  -53.5914 C.3       23 UNK        -0.0398 
    125 S125       -1.2378  -19.2599  -52.7784 S.3       23 UNK        -0.2404 
    126 C126       -0.5871  -18.1726  -51.4670 C.3       23 UNK        -0.0205 
    127 H127        6.2201   -9.8488  -47.5515 H         1 UNK         0.0600 
    128 H128        7.1793  -11.1794  -48.1796 H         1 UNK         0.0600 
    129 H129        6.1393  -11.4202  -46.7641 H         1 UNK         0.0600 
    130 H130        4.2342  -12.7356  -49.8177 H         1 UNK         0.3000 
    131 H131        6.9476  -13.2715  -49.0893 H         1 UNK         0.0600 
    132 H132        6.4399  -15.5801  -49.8726 H         1 UNK         0.0800 
    133 H133        6.0606  -14.3495  -51.0429 H         1 UNK         0.0800 
    134 H134        4.3049  -16.5717  -52.3115 H         1 UNK         0.0800 
    135 H135        5.2735  -17.2999  -51.0504 H         1 UNK         0.0800 
    136 H136        1.6398  -16.6346  -51.8080 H         1 UNK         0.1150 
    137 H137        0.3826  -20.4609  -50.3460 H         1 UNK         0.1150 
    138 H138        4.5209  -19.3568  -50.1770 H         1 UNK         0.1150 
    139 H139        2.0378  -22.1319  -49.7985 H         1 UNK         0.0800 
    140 H140        3.7063  -21.8164  -50.1567 H         1 UNK         0.0800 
    141 H141        1.1684  -20.0952  -47.7262 H         1 UNK         0.0800 
    142 H142        1.9818  -20.2329  -46.2028 H         1 UNK         0.0800 
    143 H143        1.3939  -22.7556  -46.2113 H         1 UNK         0.0600 
    144 H144       -0.1780  -20.5893  -45.3491 H         1 UNK         0.3000 
    145 H145       -2.8319  -22.4633  -43.8314 H         1 UNK         0.0600 
    146 H146       -2.1126  -21.0319  -41.9424 H         1 UNK         0.0600 
    147 H147       -0.9484  -22.3232  -42.1982 H         1 UNK         0.0600 
    148 H148       -0.5802  -20.6914  -42.7422 H         1 UNK         0.0600 
    149 H149       -2.4643  -19.6680  -44.0581 H         1 UNK         0.3000 
    150 H150       -4.1231  -19.2590  -47.2261 H         1 UNK         0.0600 
    151 H151       -5.7967  -19.3068  -45.3438 H         1 UNK         0.0600 
    152 H152       -5.3826  -17.6722  -45.8357 H         1 UNK         0.0600 
    153 H153       -4.7014  -18.3509  -44.3591 H         1 UNK         0.0600 
    154 H154       -2.8367  -17.3311  -45.6025 H         1 UNK         0.3000 
    155 H155        0.4457  -17.5845  -47.0464 H         1 UNK         0.0600 
    156 H156       -1.7423  -15.4407  -47.1097 H         1 UNK         0.0600 
    157 H157       -0.9030  -16.0925  -48.5118 H         1 UNK         0.0600 
    158 H158       -0.0188  -15.1548  -47.3177 H         1 UNK         0.0600 
    159 H159       -0.5257  -15.9390  -44.9467 H         1 UNK         0.3000 
    160 H160        0.0393  -18.2439  -42.2454 H         1 UNK         0.0600 
    161 H161        1.3941  -15.6264  -43.0790 H         1 UNK         0.0600 
    162 H162        2.2088  -17.1303  -42.6732 H         1 UNK         0.0600 
    163 H163        1.3064  -16.2687  -41.4393 H         1 UNK         0.0600 
    164 H164       -1.0350  -15.5663  -42.4724 H         1 UNK         0.3000 
    165 H165       -4.4535  -16.5599  -42.6320 H         1 UNK         0.0600 
    166 H166       -4.5821  -15.1744  -40.5799 H         1 UNK         0.0600 
    167 H167       -3.8819  -16.7410  -40.2059 H         1 UNK         0.0600 
    168 H168       -2.8424  -15.3266  -40.3310 H         1 UNK         0.0600 
    169 H169       -3.1749  -14.0120  -42.4068 H         1 UNK         0.3000 
    170 H170       -2.5773  -13.4545  -45.8645 H         1 UNK         0.0600 
    171 H171       -5.0087  -12.9496  -45.6065 H         1 UNK         0.0600 
    172 H172       -4.7108  -12.2545  -44.0175 H         1 UNK         0.0600 
    173 H173       -4.0375  -11.4938  -45.4598 H         1 UNK         0.0600 
    174 H174       -2.3045  -11.7632  -43.5957 H         1 UNK         0.3000 
    175 H175       -0.2982  -11.1881  -42.8341 H         1 UNK         0.0600 
    176 H176       -0.7887  -12.9575  -41.1317 H         1 UNK         0.0600 
    177 H177        0.6732  -13.8206  -41.5957 H         1 UNK         0.0600 
    178 H178        0.7845  -12.2241  -40.8643 H         1 UNK         0.0600 
    179 H179        2.1459  -12.8094  -43.2756 H         1 UNK         0.3000 
    180 H180        3.3890  -10.5133  -45.7227 H         1 UNK         0.0600 
    181 H181        4.3436  -11.4277  -42.9613 H         1 UNK         0.0600 
    182 H182        4.1437   -9.7669  -43.4954 H         1 UNK         0.0600 
    183 H183        5.3608  -10.7848  -44.2493 H         1 UNK         0.0600 
    184 H184        3.7614  -12.5223  -46.4773 H         1 UNK         0.3000 
    185 H185        5.0210  -15.4332  -45.3297 H         1 UNK         0.0600 
    186 H186        3.2267  -16.6916  -46.6111 H         1 UNK         0.0600 
    187 H187        2.7881  -16.3468  -44.9495 H         1 UNK         0.0600 
    188 H188        2.0994  -15.3837  -46.2494 H         1 UNK         0.0600 
    189 H189        3.7977  -14.3535  -47.7987 H         1 UNK         0.3000 
    190 H190       -1.2153  -20.9826  -47.9718 H         1 UNK         0.3000 
    191 H191       -1.1339  -22.4960  -50.3373 H         1 UNK         0.0600 
    192 H192       -3.5341  -21.0403  -49.1053 H         1 UNK         0.0600 
    193 H193       -3.3184  -21.4904  -50.7966 H         1 UNK         0.0600 
    194 H194       -2.2747  -20.2844  -50.0742 H         1 UNK         0.0600 
    195 H195       -3.0992  -23.0056  -47.3742 H         1 UNK         0.3000 
    196 H196       -4.5315  -25.2837  -48.2712 H         1 UNK         0.0600 
    197 H197       -4.9519  -25.6444  -45.8343 H         1 UNK         0.0600 
    198 H198       -5.1912  -23.9623  -46.2852 H         1 UNK         0.0600 
    199 H199       -3.7262  -24.4453  -45.4355 H         1 UNK         0.0600 
    200 H200       -1.3984  -25.0372  -46.4993 H         1 UNK         0.3000 
    201 H201       -0.9136  -27.8339  -46.2952 H         1 UNK         0.0600 
    202 H202        0.2263  -26.1649  -44.8705 H         1 UNK         0.0600 
    203 H203        1.0354  -25.4693  -46.2727 H         1 UNK         0.0600 
    204 H204        1.4174  -27.1070  -45.7543 H         1 UNK         0.0600 
    205 H205       -0.0298  -25.4554  -48.8052 H         1 UNK         0.3000 
    206 H206        1.4892  -27.2605  -50.4484 H         1 UNK         0.0600 
    207 H207        1.7824  -24.7871  -50.4807 H         1 UNK         0.0600 
    208 H208        1.3593  -25.3756  -52.0803 H         1 UNK         0.0600 
    209 H209        0.1408  -24.5821  -51.0904 H         1 UNK         0.0600 
    210 H210       -1.8553  -27.0690  -49.9142 H         1 UNK         0.3000 
    211 H211       -3.6935  -27.8900  -50.7894 H         1 UNK         0.0600 
    212 H212       -1.9846  -29.6019  -52.6692 H         1 UNK         0.0600 
    213 H213       -3.6659  -29.8703  -52.2366 H         1 UNK         0.0600 
    214 H214       -2.4156  -30.0362  -51.0151 H         1 UNK         0.0600 
    215 H215       -2.7866  -25.4331  -51.6672 H         1 UNK         0.3000 
    216 H216       -3.7402  -25.1217  -54.4705 H         1 UNK         0.0600 
    217 H217       -2.5035  -23.0797  -52.5346 H         1 UNK         0.0600 
    218 H218       -2.8242  -22.8391  -54.2480 H         1 UNK         0.0600 
    219 H219       -1.5880  -23.9733  -53.7429 H         1 UNK         0.0600 
    220 H220       -4.8934  -22.6203  -54.2027 H         1 UNK         0.3000 
    221 H221       -7.4834  -23.0848  -53.0017 H         1 UNK         0.0600 
    222 H222       -7.2616  -21.7037  -55.0296 H         1 UNK         0.0600 
    223 H223       -6.1885  -20.5777  -54.2034 H         1 UNK         0.0600 
    224 H224       -7.8727  -20.7080  -53.7173 H         1 UNK         0.0600 
    225 H225       -7.5545  -23.2412  -50.8264 H         1 UNK         0.3000 
    226 H226       -5.6941  -22.3240  -49.0083 H         1 UNK         0.0600 
    227 H227       -7.2439  -24.1894  -48.5775 H         1 UNK         0.0600 
    228 H228       -7.3848  -23.0031  -47.2915 H         1 UNK         0.0600 
    229 H229       -8.6222  -23.0867  -48.5401 H         1 UNK         0.0600 
    230 H230       -8.2243  -20.4112  -50.3690 H         1 UNK         0.3000 
    231 H231       -8.2515  -18.3105  -48.3357 H         1 UNK         0.0600 
    232 H232       -9.3365  -18.4005  -51.2005 H         1 UNK         0.0600 
    233 H233       -9.6538  -17.1344  -50.0194 H         1 UNK         0.0600 
    234 H234      -10.2522  -18.7603  -49.7368 H         1 UNK         0.0600 
    235 H235       -5.7287  -18.7055  -48.6033 H         1 UNK         0.3000 
    236 H236       -3.6774  -17.9083  -49.0302 H         1 UNK         0.0600 
    237 H237       -3.4672  -15.4278  -48.8991 H         1 UNK         0.0600 
    238 H238       -5.1848  -15.2511  -49.2315 H         1 UNK         0.0600 
    239 H239       -4.6421  -16.0247  -47.7419 H         1 UNK         0.0600 
    240 H240       -4.6346  -19.1310  -51.2906 H         1 UNK         0.3000 
    241 H241       -4.1198  -19.5318  -53.3625 H         1 UNK         0.0600 
    242 H242       -6.2294  -17.1727  -52.5485 H         1 UNK         0.3800 
    243 H243       -6.7178  -16.7209  -54.1610 H         1 UNK         0.3800 
    244 H244       -2.3599  -18.3627  -54.6622 H         1 UNK         0.0800 
    245 H245       -2.2201  -17.1370  -53.4471 H         1 UNK         0.0800 
    246 H246       -0.6576  -17.1301  -51.7797 H         1 UNK         0.0800 
    247 H247       -1.2058  -18.2643  -50.5742 H         1 UNK         0.0800 
@<TRIPOS>BOND
     1    1    2 1    
     2    1  127 1    
     3    1  128 1    
     4    1  129 1    
     5    2    3 2    
     6    2    4 am   BACKBONE|DICT|INTERRES
     7    4    5 1    
     8    4  130 1    
     9    5    6 1    
    10    5   65 1    
    11    5  131 1    
    12    6    7 1    
    13    6  132 1    
    14    6  133 1    
    15    7    8 1    
    16    8    9 1    
    17    8  134 1    
    18    8  135 1    
    19    9   10 ar   
    20    9   14 ar   
    21   10   11 ar   
    22   10  136 1    
    23   11   12 ar   
    24   11  126 1    
    25   12   13 ar   
    26   12  137 1    
    27   13   14 ar   
    28   13   15 1    
    29   14  138 1    
    30   15   16 1    
    31   15  139 1    
    32   15  140 1    
    33   16   17 1    
    34   17   18 1    
    35   17  141 1    
    36   17  142 1    
    37   18   19 1    
    38   18   67 1    
    39   18  143 1    
    40   19   20 am   BACKBONE|DICT|INTERRES
    41   19  144 1    
    42   20   21 2    
    43   20   22 1    
    44   22   23 1    
    45   22   24 1    
    46   22  145 1    
    47   23  146 1    
    48   23  147 1    
    49   23  148 1    
    50   24   25 am   BACKBONE|DICT|INTERRES
    51   24  149 1    
    52   25   26 2    
    53   25   27 1    
    54   27   28 1    
    55   27   29 1    
    56   27  150 1    
    57   28  151 1    
    58   28  152 1    
    59   28  153 1    
    60   29   30 am   BACKBONE|DICT|INTERRES
    61   29  154 1    
    62   30   31 2    
    63   30   32 1    
    64   32   33 1    
    65   32   34 1    
    66   32  155 1    
    67   33  156 1    
    68   33  157 1    
    69   33  158 1    
    70   34   35 am   BACKBONE|DICT|INTERRES
    71   34  159 1    
    72   35   36 2    
    73   35   37 1    
    74   37   38 1    
    75   37   39 1    
    76   37  160 1    
    77   38  161 1    
    78   38  162 1    
    79   38  163 1    
    80   39   40 am   BACKBONE|DICT|INTERRES
    81   39  164 1    
    82   40   41 2    
    83   40   42 1    
    84   42   43 1    
    85   42   44 1    
    86   42  165 1    
    87   43  166 1    
    88   43  167 1    
    89   43  168 1    
    90   44   45 am   BACKBONE|DICT|INTERRES
    91   44  169 1    
    92   45   46 2    
    93   45   47 1    
    94   47   48 1    
    95   47   49 1    
    96   47  170 1    
    97   48  171 1    
    98   48  172 1    
    99   48  173 1    
   100   49   50 am   BACKBONE|DICT|INTERRES
   101   49  174 1    
   102   50   51 2    
   103   50   52 1    
   104   52   53 1    
   105   52   54 1    
   106   52  175 1    
   107   53  176 1    
   108   53  177 1    
   109   53  178 1    
   110   54   55 am   BACKBONE|DICT|INTERRES
   111   54  179 1    
   112   55   56 2    
   113   55   57 1    
   114   57   58 1    
   115   57   59 1    
   116   57  180 1    
   117   58  181 1    
   118   58  182 1    
   119   58  183 1    
   120   59   60 am   BACKBONE|DICT|INTERRES
   121   59  184 1    
   122   60   61 2    
   123   60   62 1    
   124   62   63 1    
   125   62   64 1    
   126   62  185 1    
   127   63  186 1    
   128   63  187 1    
   129   63  188 1    
   130   64   65 am   BACKBONE|DICT|INTERRES
   131   64  189 1    
   132   65   66 2    
   133   67   68 2    
   134   67   69 am   BACKBONE|DICT|INTERRES
   135   69   70 1    
   136   69  190 1    
   137   70   71 1    
   138   70   72 1    
   139   70  191 1    
   140   71  192 1    
   141   71  193 1    
   142   71  194 1    
   143   72   73 2    
   144   72   74 am   BACKBONE|DICT|INTERRES
   145   74   75 1    
   146   74  195 1    
   147   75   76 1    
   148   75   77 1    
   149   75  196 1    
   150   76  197 1    
   151   76  198 1    
   152   76  199 1    
   153   77   78 2    
   154   77   79 am   BACKBONE|DICT|INTERRES
   155   79   80 1    
   156   79  200 1    
   157   80   81 1    
   158   80   82 1    
   159   80  201 1    
   160   81  202 1    
   161   81  203 1    
   162   81  204 1    
   163   82   83 2    
   164   82   84 am   BACKBONE|DICT|INTERRES
   165   84   85 1    
   166   84  205 1    
   167   85   86 1    
   168   85   87 1    
   169   85  206 1    
   170   86  207 1    
   171   86  208 1    
   172   86  209 1    
   173   87   88 2    
   174   87   89 am   BACKBONE|DICT|INTERRES
   175   89   90 1    
   176   89  210 1    
   177   90   91 1    
   178   90   92 1    
   179   90  211 1    
   180   91  212 1    
   181   91  213 1    
   182   91  214 1    
   183   92   93 2    
   184   92   94 am   BACKBONE|DICT|INTERRES
   185   94   95 1    
   186   94  215 1    
   187   95   96 1    
   188   95   97 1    
   189   95  216 1    
   190   96  217 1    
   191   96  218 1    
   192   96  219 1    
   193   97   98 2    
   194   97   99 am   BACKBONE|DICT|INTERRES
   195   99  100 1    
   196   99  220 1    
   197  100  101 1    
   198  100  102 1    
   199  100  221 1    
   200  101  222 1    
   201  101  223 1    
   202  101  224 1    
   203  102  103 2    
   204  102  104 am   BACKBONE|DICT|INTERRES
   205  104  105 1    
   206  104  225 1    
   207  105  106 1    
   208  105  107 1    
   209  105  226 1    
   210  106  227 1    
   211  106  228 1    
   212  106  229 1    
   213  107  108 2    
   214  107  109 am   BACKBONE|DICT|INTERRES
   215  109  110 1    
   216  109  230 1    
   217  110  111 1    
   218  110  112 1    
   219  110  231 1    
   220  111  232 1    
   221  111  233 1    
   222  111  234 1    
   223  112  113 2    
   224  112  114 am   BACKBONE|DICT|INTERRES
   225  114  115 1    
   226  114  235 1    
   227  115  116 1    
   228  115  117 1    
   229  115  236 1    
   230  116  237 1    
   231  116  238 1    
   232  116  239 1    
   233  117  118 2    
   234  117  119 am   BACKBONE|DICT|INTERRES
   235  119  120 1    
   236  119  240 1    
   237  120  121 1    
   238  120  124 1    
   239  120  241 1    
   240  121  122 am   BACKBONE|DICT|INTERRES
   241  121  123 2    
   242  122  242 1    
   243  122  243 1    
   244  124  125 1    
   245  124  244 1    
   246  124  245 1    
   247  125  126 1    
   248  126  246 1    
   249  126  247 1    
@<TRIPOS>SUBSTRUCTURE
     1 UNK         1 GROUP             0       ****    0 ROOT    
