@<TRIPOS>MOLECULE
3R540
247   249    1
SMALL
USER_CHARGES


@<TRIPOS>ATOM
      1 CA          1.9737  -16.2069  -49.8914 C.3       0 UNK        -0.1800 
      2 C           2.2687  -16.9468  -48.5879 C.2       0 UNK         0.5000 
      3 O           2.9088  -17.9942  -48.6352 O.2       0 UNK        -0.5000 
      4 N           1.8393  -16.4721  -47.4085 N.am      1 UNK        -0.5000 
      5 CA          1.0856  -15.2431  -47.1028 C.3       1 UNK         0.1400 
      6 C6         -0.3361  -15.1774  -47.7232 C.3       23 UNK        -0.0398 
      7 S7         -1.3608  -16.6361  -47.3250 S.3       23 UNK        -0.2404 
      8 C8         -2.6892  -15.9008  -46.3210 C.3       23 UNK        -0.0205 
      9 C9         -3.9296  -16.7774  -46.3443 C.ar      23 UNK        -0.0193 
     10 C10        -4.8086  -16.6976  -47.4272 C.ar      23 UNK        -0.1150 
     11 C11        -5.9481  -17.5031  -47.4789 C.ar      23 UNK        -0.0193 
     12 C12        -6.2121  -18.3860  -46.4278 C.ar      23 UNK        -0.1150 
     13 C13        -5.3437  -18.4727  -45.3350 C.ar      23 UNK        -0.0193 
     14 C14        -4.2053  -17.6611  -45.2967 C.ar      23 UNK        -0.1150 
     15 C15        -5.6521  -19.4318  -44.1939 C.3       23 UNK        -0.0205 
     16 S16        -5.3781  -21.1707  -44.6661 S.3       23 UNK        -0.2404 
     17 C17        -3.5694  -21.3470  -44.4806 C.3       23 UNK        -0.0398 
     18 CA         -2.7634  -21.0374  -45.7690 C.3       11 UNK         0.1400 
     19 N          -1.3257  -20.9581  -45.4813 N.am      11 UNK        -0.5000 
     20 C          -0.4392  -21.9623  -45.3815 C.2       10 UNK         0.5000 
     21 O          -0.6831  -23.1395  -45.6434 O.2       10 UNK        -0.5000 
     22 CA          0.9593  -21.5909  -44.8545 C.3       10 UNK         0.1400 
     23 CB          1.8063  -20.9584  -45.9690 C.3       10 UNK        -0.1800 
     24 N           0.8991  -20.6849  -43.7054 N.am      10 UNK        -0.5000 
     25 C           0.3183  -20.9789  -42.5294 C.2       9 UNK         0.5000 
     26 O          -0.1249  -22.0947  -42.2545 O.2       9 UNK        -0.5000 
     27 CA          0.1847  -19.8526  -41.4802 C.3       9 UNK         0.1400 
     28 CB          1.1398  -20.0960  -40.3013 C.3       9 UNK        -0.1800 
     29 N           0.4059  -18.5014  -41.9985 N.am      9 UNK        -0.5000 
     30 C          -0.3205  -17.8992  -42.9497 C.2       8 UNK         0.5000 
     31 O          -1.3034  -18.4103  -43.4851 O.2       8 UNK        -0.5000 
     32 CA          0.1799  -16.5272  -43.4345 C.3       8 UNK         0.1400 
     33 CB         -0.4868  -15.3888  -42.6510 C.3       8 UNK        -0.1800 
     34 N           1.6382  -16.3860  -43.3606 N.am      8 UNK        -0.5000 
     35 C           2.5144  -17.1177  -44.0639 C.2       7 UNK         0.5000 
     36 O           2.1761  -17.9392  -44.9135 O.2       7 UNK        -0.5000 
     37 CA          4.0083  -16.9174  -43.7636 C.3       7 UNK         0.1400 
     38 CB          4.5789  -15.7347  -44.5589 C.3       7 UNK        -0.1800 
     39 N           4.2358  -16.7100  -42.3356 N.am      7 UNK        -0.5000 
     40 C           4.3509  -17.7035  -41.4429 C.2       6 UNK         0.5000 
     41 O           4.3553  -18.8961  -41.7469 O.2       6 UNK        -0.5000 
     42 CA          4.4666  -17.3042  -39.9587 C.3       6 UNK         0.1400 
     43 CB          5.9418  -17.2251  -39.5380 C.3       6 UNK        -0.1800 
     44 N           3.8150  -16.0299  -39.6519 N.am      6 UNK        -0.5000 
     45 C           2.4917  -15.8202  -39.6888 C.2       5 UNK         0.5000 
     46 O           1.6678  -16.6948  -39.9532 O.2       5 UNK        -0.5000 
     47 CA          2.0219  -14.3714  -39.4549 C.3       5 UNK         0.1400 
     48 CB          1.8441  -14.0963  -37.9545 C.3       5 UNK        -0.1800 
     49 N           2.9302  -13.3731  -40.0308 N.am      5 UNK        -0.5000 
     50 C           3.2101  -13.2680  -41.3365 C.2       4 UNK         0.5000 
     51 O           2.7412  -14.0182  -42.1952 O.2       4 UNK        -0.5000 
     52 CA          4.2452  -12.2037  -41.7368 C.3       4 UNK         0.1400 
     53 CB          5.6540  -12.8170  -41.7386 C.3       4 UNK        -0.1800 
     54 N           3.9772  -11.6463  -43.0609 N.am      4 UNK        -0.5000 
     55 C           2.9381  -10.8684  -43.3807 C.2       3 UNK         0.5000 
     56 O           2.0858  -10.5075  -42.5675 O.2       3 UNK        -0.5000 
     57 CA          2.8273  -10.3910  -44.8436 C.3       3 UNK         0.1400 
     58 CB          3.6689   -9.1207  -45.0697 C.3       3 UNK        -0.1800 
     59 N           3.1118  -11.4017  -45.8729 N.am      3 UNK        -0.5000 
     60 C           4.2557  -12.0315  -46.1721 C.2       2 UNK         0.5000 
     61 O           5.2973  -11.9032  -45.5264 O.2       2 UNK        -0.5000 
     62 CA          4.2090  -12.9765  -47.3947 C.3       2 UNK         0.1400 
     63 CB          5.5808  -13.5956  -47.7181 C.3       2 UNK        -0.1800 
     64 N           3.2368  -14.0604  -47.2353 N.am      2 UNK        -0.5000 
     65 C           1.9047  -13.9515  -47.3230 C.2       1 UNK         0.5000 
     66 O           1.3315  -12.8862  -47.5562 O.2       1 UNK        -0.5000 
     67 C          -3.0936  -21.9394  -46.9822 C.2       11 UNK         0.5000 
     68 O          -2.9930  -21.4760  -48.1171 O.2       11 UNK        -0.5000 
     69 N          -3.4290  -23.2160  -46.7435 N.am      12 UNK        -0.5000 
     70 CA         -3.6945  -24.2236  -47.7737 C.3       12 UNK         0.1400 
     71 CB         -4.1464  -25.5269  -47.1002 C.3       12 UNK        -0.1800 
     72 C          -2.4997  -24.4908  -48.7121 C.2       12 UNK         0.5000 
     73 O          -2.7129  -24.8055  -49.8839 O.2       12 UNK        -0.5000 
     74 N          -1.2701  -24.3314  -48.2019 N.am      13 UNK        -0.5000 
     75 CA         -0.0399  -24.4265  -48.9879 C.3       13 UNK         0.1400 
     76 CB          1.1561  -24.6669  -48.0555 C.3       13 UNK        -0.1800 
     77 C           0.1852  -23.1815  -49.8654 C.2       13 UNK         0.5000 
     78 O           0.6804  -23.3184  -50.9834 O.2       13 UNK        -0.5000 
     79 N          -0.2271  -22.0011  -49.3779 N.am      14 UNK        -0.5000 
     80 CA         -0.2228  -20.7472  -50.1394 C.3       14 UNK         0.1400 
     81 CB         -0.3732  -19.5550  -49.1840 C.3       14 UNK        -0.1800 
     82 C          -1.3221  -20.7326  -51.2182 C.2       14 UNK         0.5000 
     83 O          -1.1065  -20.2036  -52.3082 O.2       14 UNK        -0.5000 
     84 N          -2.4604  -21.3711  -50.9128 N.am      15 UNK        -0.5000 
     85 CA         -3.5519  -21.6578  -51.8428 C.3       15 UNK         0.1400 
     86 CB         -4.8056  -22.0420  -51.0421 C.3       15 UNK        -0.1800 
     87 C          -3.2222  -22.7677  -52.8591 C.2       15 UNK         0.5000 
     88 O          -4.0207  -22.9846  -53.7729 O.2       15 UNK        -0.5000 
     89 N          -2.0872  -23.4584  -52.6751 N.am      16 UNK        -0.5000 
     90 CA         -1.5651  -24.5623  -53.4835 C.3       16 UNK         0.1400 
     91 CB         -1.1338  -24.0500  -54.8735 C.3       16 UNK        -0.1800 
     92 C          -2.5458  -25.7488  -53.5507 C.2       16 UNK         0.5000 
     93 O          -2.8304  -26.2536  -54.6361 O.2       16 UNK        -0.5000 
     94 N          -3.0976  -26.1288  -52.3878 N.am      17 UNK        -0.5000 
     95 CA         -4.1524  -27.1364  -52.2103 C.3       17 UNK         0.1400 
     96 CB         -3.6326  -28.5489  -52.5497 C.3       17 UNK        -0.1800 
     97 C          -5.4490  -26.7651  -52.9650 C.2       17 UNK         0.5000 
     98 O          -6.1180  -27.6328  -53.5279 O.2       17 UNK        -0.5000 
     99 N          -5.7506  -25.4589  -52.9658 N.am      18 UNK        -0.5000 
    100 CA        -6.8609  -24.7764  -53.6348 C.3       18 UNK         0.1400 
    101 CB        -8.2285  -25.3326  -53.1873 C.3       18 UNK        -0.1800 
    102 C         -6.7252  -24.6799  -55.1700 C.2       18 UNK         0.5000 
    103 O         -7.6951  -24.3022  -55.8285 O.2       18 UNK        -0.5000 
    104 N         -5.5370  -24.9690  -55.7240 N.am      19 UNK        -0.5000 
    105 CA        -5.2385  -24.7774  -57.1465 C.3       19 UNK         0.1400 
    106 CB        -4.0028  -25.5979  -57.5429 C.3       19 UNK        -0.1800 
    107 C         -5.0396  -23.2922  -57.5032 C.2       19 UNK         0.5000 
    108 O         -5.4817  -22.8632  -58.5697 O.2       19 UNK        -0.5000 
    109 N         -4.3997  -22.5341  -56.6014 N.am      20 UNK        -0.5000 
    110 CA        -4.2537  -21.0794  -56.6970 C.3       20 UNK         0.1400 
    111 CB        -2.8913  -20.6607  -56.1214 C.3       20 UNK        -0.1800 
    112 C         -5.3997  -20.3592  -55.9634 C.2       20 UNK         0.5000 
    113 O         -5.7624  -19.2478  -56.3483 O.2       20 UNK        -0.5000 
    114 N         -5.9498  -21.0129  -54.9275 N.am      21 UNK        -0.5000 
    115 CA        -7.1336  -20.6268  -54.1473 C.3       21 UNK         0.1400 
    116 CB        -8.3884  -20.5840  -55.0439 C.3       21 UNK        -0.1800 
    117 C         -6.9659  -19.3493  -53.2955 C.2       21 UNK         0.5000 
    118 O         -7.9692  -18.7943  -52.8476 O.2       21 UNK        -0.5000 
    119 N         -5.7096  -18.9325  -53.0737 N.am      22 UNK        -0.5000 
    120 CA        -5.2446  -17.8256  -52.2114 C.3       22 UNK         0.1400 
    121 C         -5.8806  -16.4202  -52.4522 C.2       22 UNK         0.5000 
    122 N         -6.4691  -16.1562  -53.6119 N.am      22 UNK        -0.7600 
    123 O         -5.7974  -15.5370  -51.6031 O.2       22 UNK        -0.5000 
    124 C124       -5.0956  -18.2207  -50.7101 C.3       23 UNK        -0.0398 
    125 S125       -6.6223  -18.7566  -49.8574 S.3       23 UNK        -0.2404 
    126 C126       -6.8993  -17.4129  -48.6625 C.3       23 UNK        -0.0205 
    127 H127        2.0379  -15.1258  -49.7909 H         1 UNK         0.0600 
    128 H128        0.9801  -16.4680  -50.2543 H         1 UNK         0.0600 
    129 H129        2.6919  -16.5000  -50.6574 H         1 UNK         0.0600 
    130 H130        2.0147  -17.0558  -46.5949 H         1 UNK         0.3000 
    131 H131        0.9471  -15.2635  -46.0239 H         1 UNK         0.0600 
    132 H132       -0.8526  -14.2817  -47.3755 H         1 UNK         0.0800 
    133 H133       -0.2892  -15.0793  -48.8071 H         1 UNK         0.0800 
    134 H134       -2.9499  -14.9136  -46.7049 H         1 UNK         0.0800 
    135 H135       -2.3387  -15.7543  -45.2988 H         1 UNK         0.0800 
    136 H136       -4.5985  -16.0101  -48.2345 H         1 UNK         0.1150 
    137 H137       -7.0925  -19.0125  -46.4633 H         1 UNK         0.1150 
    138 H138       -3.5321  -17.7208  -44.4545 H         1 UNK         0.1150 
    139 H139       -5.0662  -19.1878  -43.3064 H         1 UNK         0.0800 
    140 H140       -6.6975  -19.3110  -43.9065 H         1 UNK         0.0800 
    141 H141       -3.3518  -22.3534  -44.1203 H         1 UNK         0.0800 
    142 H142       -3.2420  -20.6813  -43.6803 H         1 UNK         0.0800 
    143 H143       -3.0341  -20.0300  -46.0842 H         1 UNK         0.0600 
    144 H144       -1.0065  -20.0357  -45.2147 H         1 UNK         0.3000 
    145 H145        1.4511  -22.5104  -44.5309 H         1 UNK         0.0600 
    146 H146        2.8166  -20.7410  -45.6220 H         1 UNK         0.0600 
    147 H147        1.8940  -21.6231  -46.8282 H         1 UNK         0.0600 
    148 H148        1.3698  -20.0251  -46.3250 H         1 UNK         0.0600 
    149 H149        1.2480  -19.7466  -43.8539 H         1 UNK         0.3000 
    150 H150       -0.8386  -19.8915  -41.1019 H         1 UNK         0.0600 
    151 H151        0.9723  -21.0776  -39.8562 H         1 UNK         0.0600 
    152 H152        0.9939  -19.3561  -39.5142 H         1 UNK         0.0600 
    153 H153        2.1827  -20.0524  -40.6150 H         1 UNK         0.0600 
    154 H154        1.1519  -17.9703  -41.5642 H         1 UNK         0.3000 
    155 H155       -0.1177  -16.4406  -44.4787 H         1 UNK         0.0600 
    156 H156       -0.1656  -14.4142  -43.0193 H         1 UNK         0.0600 
    157 H157       -1.5724  -15.4334  -42.7465 H         1 UNK         0.0600 
    158 H158       -0.2494  -15.4419  -41.5887 H         1 UNK         0.0600 
    159 H159        1.9955  -15.6630  -42.7417 H         1 UNK         0.3000 
    160 H160        4.5383  -17.8173  -44.0836 H         1 UNK         0.0600 
    161 H161        4.5369  -15.9433  -45.6274 H         1 UNK         0.0600 
    162 H162        4.0302  -14.8103  -44.3765 H         1 UNK         0.0600 
    163 H163        5.6249  -15.5575  -44.3085 H         1 UNK         0.0600 
    164 H164        4.1865  -15.7574  -42.0036 H         1 UNK         0.3000 
    165 H165        3.9818  -18.0849  -39.3685 H         1 UNK         0.0600 
    166 H166        6.0378  -17.0162  -38.4724 H         1 UNK         0.0600 
    167 H167        6.4538  -18.1690  -39.7300 H         1 UNK         0.0600 
    168 H168        6.4751  -16.4454  -40.0835 H         1 UNK         0.0600 
    169 H169        4.4182  -15.2534  -39.4246 H         1 UNK         0.3000 
    170 H170        1.0506  -14.2557  -39.9390 H         1 UNK         0.0600 
    171 H171        1.1568  -14.8144  -37.5052 H         1 UNK         0.0600 
    172 H172        2.7900  -14.1658  -37.4160 H         1 UNK         0.0600 
    173 H173        1.4311  -13.1022  -37.7821 H         1 UNK         0.0600 
    174 H174        3.3625  -12.7309  -39.3820 H         1 UNK         0.3000 
    175 H175        4.2146  -11.3893  -41.0102 H         1 UNK         0.0600 
    176 H176        5.7409  -13.6236  -42.4678 H         1 UNK         0.0600 
    177 H177        6.4085  -12.0679  -41.9797 H         1 UNK         0.0600 
    178 H178        5.9073  -13.2281  -40.7605 H         1 UNK         0.0600 
    179 H179        4.6224  -11.8886  -43.8083 H         1 UNK         0.3000 
    180 H180        1.7823  -10.1160  -44.9954 H         1 UNK         0.0600 
    181 H181        3.3859   -8.3362  -44.3668 H         1 UNK         0.0600 
    182 H182        3.5224   -8.7243  -46.0744 H         1 UNK         0.0600 
    183 H183        4.7346   -9.3083  -44.9348 H         1 UNK         0.0600 
    184 H184        2.3126  -11.6551  -46.4480 H         1 UNK         0.3000 
    185 H185        3.9119  -12.3712  -48.2537 H         1 UNK         0.0600 
    186 H186        6.3263  -12.8203  -47.8993 H         1 UNK         0.0600 
    187 H187        5.9471  -14.2180  -46.9010 H         1 UNK         0.0600 
    188 H188        5.5335  -14.2131  -48.6153 H         1 UNK         0.0600 
    189 H189        3.6200  -14.9736  -47.0429 H         1 UNK         0.3000 
    190 H190       -3.4476  -23.5397  -45.7880 H         1 UNK         0.3000 
    191 H191       -4.5188  -23.8556  -48.3864 H         1 UNK         0.0600 
    192 H192       -3.3732  -25.9296  -46.4446 H         1 UNK         0.0600 
    193 H193       -4.3781  -26.2910  -47.8436 H         1 UNK         0.0600 
    194 H194       -5.0461  -25.3719  -46.5042 H         1 UNK         0.0600 
    195 H195       -1.1717  -24.0498  -47.2290 H         1 UNK         0.3000 
    196 H196       -0.1214  -25.2892  -49.6528 H         1 UNK         0.0600 
    197 H197        2.0788  -24.7793  -48.6262 H         1 UNK         0.0600 
    198 H198        1.0221  -25.5774  -47.4713 H         1 UNK         0.0600 
    199 H199        1.3007  -23.8426  -47.3589 H         1 UNK         0.0600 
    200 H200       -0.6903  -21.9815  -48.4810 H         1 UNK         0.3000 
    201 H201        0.7411  -20.6535  -50.6442 H         1 UNK         0.0600 
    202 H202        0.4349  -19.5302  -48.4543 H         1 UNK         0.0600 
    203 H203       -1.3159  -19.5783  -48.6382 H         1 UNK         0.0600 
    204 H204       -0.3413  -18.6128  -49.7320 H         1 UNK         0.0600 
    205 H205       -2.5915  -21.6755  -49.9514 H         1 UNK         0.3000 
    206 H206       -3.7600  -20.7499  -52.4083 H         1 UNK         0.0600 
    207 H207       -5.0111  -21.3268  -50.2463 H         1 UNK         0.0600 
    208 H208       -5.6858  -22.0742  -51.6834 H         1 UNK         0.0600 
    209 H209       -4.7024  -23.0244  -50.5830 H         1 UNK         0.0600 
    210 H210       -1.5182  -23.2070  -51.8791 H         1 UNK         0.3000 
    211 H211       -0.6737  -24.9289  -52.9729 H         1 UNK         0.0600 
    212 H212       -1.9804  -23.6866  -55.4550 H         1 UNK         0.0600 
    213 H213       -0.6557  -24.8416  -55.4514 H         1 UNK         0.0600 
    214 H214       -0.4165  -23.2342  -54.7851 H         1 UNK         0.0600 
    215 H215       -2.8340  -25.6265  -51.5412 H         1 UNK         0.3000 
    216 H216       -4.4060  -27.1261  -51.1492 H         1 UNK         0.0600 
    217 H217       -4.3688  -29.3090  -52.2858 H         1 UNK         0.0600 
    218 H218       -2.7209  -28.7759  -51.9972 H         1 UNK         0.0600 
    219 H219       -3.4174  -28.6594  -53.6128 H         1 UNK         0.0600 
    220 H220       -5.0883  -24.8433  -52.5162 H         1 UNK         0.3000 
    221 H221       -6.8095  -23.7477  -53.2798 H         1 UNK         0.0600 
    222 H222       -8.4118  -26.3311  -53.5843 H         1 UNK         0.0600 
    223 H223       -8.2985  -25.3832  -52.1007 H         1 UNK         0.0600 
    224 H224       -9.0418  -24.6934  -53.5328 H         1 UNK         0.0600 
    225 H225       -4.7761  -25.2845  -55.1348 H         1 UNK         0.3000 
    226 H226       -6.0839  -25.1518  -57.7280 H         1 UNK         0.0600 
    227 H227       -4.1206  -26.6476  -57.2732 H         1 UNK         0.0600 
    228 H228       -3.8381  -25.5541  -58.6201 H         1 UNK         0.0600 
    229 H229       -3.0982  -25.2265  -57.0616 H         1 UNK         0.0600 
    230 H230       -4.1024  -22.9592  -55.7291 H         1 UNK         0.3000 
    231 H231       -4.2822  -20.7718  -57.7444 H         1 UNK         0.0600 
    232 H232       -2.0746  -21.1662  -56.6370 H         1 UNK         0.0600 
    233 H233       -2.8052  -20.8869  -55.0594 H         1 UNK         0.0600 
    234 H234       -2.7342  -19.5878  -56.2386 H         1 UNK         0.0600 
    235 H235       -5.5170  -21.8892  -54.6609 H         1 UNK         0.3000 
    236 H236       -7.2881  -21.4298  -53.4270 H         1 UNK         0.0600 
    237 H237       -8.3550  -19.7534  -55.7494 H         1 UNK         0.0600 
    238 H238       -8.4952  -21.5062  -55.6154 H         1 UNK         0.0600 
    239 H239       -9.2943  -20.4688  -54.4479 H         1 UNK         0.0600 
    240 H240       -4.9807  -19.4321  -53.5583 H         1 UNK         0.3000 
    241 H241       -4.2214  -17.6659  -52.5536 H         1 UNK         0.0600 
    242 H242       -6.8660  -15.2438  -53.7715 H         1 UNK         0.3800 
    243 H243       -6.5499  -16.8712  -54.3180 H         1 UNK         0.3800 
    244 H244       -4.6309  -17.4066  -50.1548 H         1 UNK         0.0800 
    245 H245       -4.3832  -19.0410  -50.6293 H         1 UNK         0.0800 
    246 H246       -7.9278  -17.4705  -48.3035 H         1 UNK         0.0800 
    247 H247       -6.8074  -16.4484  -49.1642 H         1 UNK         0.0800 
@<TRIPOS>BOND
     1    1    2 1    
     2    1  127 1    
     3    1  128 1    
     4    1  129 1    
     5    2    3 2    
     6    2    4 am   BACKBONE|DICT|INTERRES
     7    4    5 1    
     8    4  130 1    
     9    5    6 1    
    10    5   65 1    
    11    5  131 1    
    12    6    7 1    
    13    6  132 1    
    14    6  133 1    
    15    7    8 1    
    16    8    9 1    
    17    8  134 1    
    18    8  135 1    
    19    9   10 ar   
    20    9   14 ar   
    21   10   11 ar   
    22   10  136 1    
    23   11   12 ar   
    24   11  126 1    
    25   12   13 ar   
    26   12  137 1    
    27   13   14 ar   
    28   13   15 1    
    29   14  138 1    
    30   15   16 1    
    31   15  139 1    
    32   15  140 1    
    33   16   17 1    
    34   17   18 1    
    35   17  141 1    
    36   17  142 1    
    37   18   19 1    
    38   18   67 1    
    39   18  143 1    
    40   19   20 am   BACKBONE|DICT|INTERRES
    41   19  144 1    
    42   20   21 2    
    43   20   22 1    
    44   22   23 1    
    45   22   24 1    
    46   22  145 1    
    47   23  146 1    
    48   23  147 1    
    49   23  148 1    
    50   24   25 am   BACKBONE|DICT|INTERRES
    51   24  149 1    
    52   25   26 2    
    53   25   27 1    
    54   27   28 1    
    55   27   29 1    
    56   27  150 1    
    57   28  151 1    
    58   28  152 1    
    59   28  153 1    
    60   29   30 am   BACKBONE|DICT|INTERRES
    61   29  154 1    
    62   30   31 2    
    63   30   32 1    
    64   32   33 1    
    65   32   34 1    
    66   32  155 1    
    67   33  156 1    
    68   33  157 1    
    69   33  158 1    
    70   34   35 am   BACKBONE|DICT|INTERRES
    71   34  159 1    
    72   35   36 2    
    73   35   37 1    
    74   37   38 1    
    75   37   39 1    
    76   37  160 1    
    77   38  161 1    
    78   38  162 1    
    79   38  163 1    
    80   39   40 am   BACKBONE|DICT|INTERRES
    81   39  164 1    
    82   40   41 2    
    83   40   42 1    
    84   42   43 1    
    85   42   44 1    
    86   42  165 1    
    87   43  166 1    
    88   43  167 1    
    89   43  168 1    
    90   44   45 am   BACKBONE|DICT|INTERRES
    91   44  169 1    
    92   45   46 2    
    93   45   47 1    
    94   47   48 1    
    95   47   49 1    
    96   47  170 1    
    97   48  171 1    
    98   48  172 1    
    99   48  173 1    
   100   49   50 am   BACKBONE|DICT|INTERRES
   101   49  174 1    
   102   50   51 2    
   103   50   52 1    
   104   52   53 1    
   105   52   54 1    
   106   52  175 1    
   107   53  176 1    
   108   53  177 1    
   109   53  178 1    
   110   54   55 am   BACKBONE|DICT|INTERRES
   111   54  179 1    
   112   55   56 2    
   113   55   57 1    
   114   57   58 1    
   115   57   59 1    
   116   57  180 1    
   117   58  181 1    
   118   58  182 1    
   119   58  183 1    
   120   59   60 am   BACKBONE|DICT|INTERRES
   121   59  184 1    
   122   60   61 2    
   123   60   62 1    
   124   62   63 1    
   125   62   64 1    
   126   62  185 1    
   127   63  186 1    
   128   63  187 1    
   129   63  188 1    
   130   64   65 am   BACKBONE|DICT|INTERRES
   131   64  189 1    
   132   65   66 2    
   133   67   68 2    
   134   67   69 am   BACKBONE|DICT|INTERRES
   135   69   70 1    
   136   69  190 1    
   137   70   71 1    
   138   70   72 1    
   139   70  191 1    
   140   71  192 1    
   141   71  193 1    
   142   71  194 1    
   143   72   73 2    
   144   72   74 am   BACKBONE|DICT|INTERRES
   145   74   75 1    
   146   74  195 1    
   147   75   76 1    
   148   75   77 1    
   149   75  196 1    
   150   76  197 1    
   151   76  198 1    
   152   76  199 1    
   153   77   78 2    
   154   77   79 am   BACKBONE|DICT|INTERRES
   155   79   80 1    
   156   79  200 1    
   157   80   81 1    
   158   80   82 1    
   159   80  201 1    
   160   81  202 1    
   161   81  203 1    
   162   81  204 1    
   163   82   83 2    
   164   82   84 am   BACKBONE|DICT|INTERRES
   165   84   85 1    
   166   84  205 1    
   167   85   86 1    
   168   85   87 1    
   169   85  206 1    
   170   86  207 1    
   171   86  208 1    
   172   86  209 1    
   173   87   88 2    
   174   87   89 am   BACKBONE|DICT|INTERRES
   175   89   90 1    
   176   89  210 1    
   177   90   91 1    
   178   90   92 1    
   179   90  211 1    
   180   91  212 1    
   181   91  213 1    
   182   91  214 1    
   183   92   93 2    
   184   92   94 am   BACKBONE|DICT|INTERRES
   185   94   95 1    
   186   94  215 1    
   187   95   96 1    
   188   95   97 1    
   189   95  216 1    
   190   96  217 1    
   191   96  218 1    
   192   96  219 1    
   193   97   98 2    
   194   97   99 am   BACKBONE|DICT|INTERRES
   195   99  100 1    
   196   99  220 1    
   197  100  101 1    
   198  100  102 1    
   199  100  221 1    
   200  101  222 1    
   201  101  223 1    
   202  101  224 1    
   203  102  103 2    
   204  102  104 am   BACKBONE|DICT|INTERRES
   205  104  105 1    
   206  104  225 1    
   207  105  106 1    
   208  105  107 1    
   209  105  226 1    
   210  106  227 1    
   211  106  228 1    
   212  106  229 1    
   213  107  108 2    
   214  107  109 am   BACKBONE|DICT|INTERRES
   215  109  110 1    
   216  109  230 1    
   217  110  111 1    
   218  110  112 1    
   219  110  231 1    
   220  111  232 1    
   221  111  233 1    
   222  111  234 1    
   223  112  113 2    
   224  112  114 am   BACKBONE|DICT|INTERRES
   225  114  115 1    
   226  114  235 1    
   227  115  116 1    
   228  115  117 1    
   229  115  236 1    
   230  116  237 1    
   231  116  238 1    
   232  116  239 1    
   233  117  118 2    
   234  117  119 am   BACKBONE|DICT|INTERRES
   235  119  120 1    
   236  119  240 1    
   237  120  121 1    
   238  120  124 1    
   239  120  241 1    
   240  121  122 am   BACKBONE|DICT|INTERRES
   241  121  123 2    
   242  122  242 1    
   243  122  243 1    
   244  124  125 1    
   245  124  244 1    
   246  124  245 1    
   247  125  126 1    
   248  126  246 1    
   249  126  247 1    
@<TRIPOS>SUBSTRUCTURE
     1 UNK         1 GROUP             0       ****    0 ROOT    
