@<TRIPOS>MOLECULE
3R540
247   249    1
SMALL
USER_CHARGES


@<TRIPOS>ATOM
      1 CA         -2.3714  -13.6408  -50.5139 C.3       0 UNK        -0.1800 
      2 C          -3.4604  -12.8352  -51.2247 C.2       0 UNK         0.5000 
      3 O          -3.1543  -12.1391  -52.1899 O.2       0 UNK        -0.5000 
      4 N          -4.7323  -12.8791  -50.7975 N.am      1 UNK        -0.5000 
      5 CA         -5.2735  -13.6541  -49.6698 C.3       1 UNK         0.1400 
      6 C6         -6.8160  -13.8175  -49.7319 C.3       23 UNK        -0.0398 
      7 S7         -7.4569  -14.3500  -51.3609 S.3       23 UNK        -0.2404 
      8 C8         -7.3228  -16.1689  -51.2784 C.3       23 UNK        -0.0205 
      9 C9         -5.8739  -16.6348  -51.2555 C.ar      23 UNK        -0.0193 
     10 C10        -5.0146  -16.3063  -52.3100 C.ar      23 UNK        -0.1150 
     11 C11        -3.6629  -16.6510  -52.2554 C.ar      23 UNK        -0.0193 
     12 C12        -3.1800  -17.3466  -51.1453 C.ar      23 UNK        -0.1150 
     13 C13        -4.0320  -17.7199  -50.1024 C.ar      23 UNK        -0.0193 
     14 C14        -5.3810  -17.3576  -50.1634 C.ar      23 UNK        -0.1150 
     15 C15        -3.4863  -18.4548  -48.8845 C.3       23 UNK        -0.0205 
     16 S16        -2.3885  -19.8426  -49.3258 S.3       23 UNK        -0.2404 
     17 C17        -1.5930  -20.1538  -47.7204 C.3       23 UNK        -0.0398 
     18 CA         -1.5537  -21.6497  -47.3293 C.3       11 UNK         0.1400 
     19 N          -0.4595  -21.9211  -46.3994 N.am      11 UNK        -0.5000 
     20 C          -0.0509  -23.1360  -46.0121 C.2       10 UNK         0.5000 
     21 O          -0.5424  -24.1892  -46.4177 O.2       10 UNK        -0.5000 
     22 CA          1.0698  -23.1689  -44.9570 C.3       10 UNK         0.1400 
     23 CB          2.4371  -22.8981  -45.6034 C.3       10 UNK        -0.1800 
     24 N           0.8432  -22.2096  -43.8741 N.am      10 UNK        -0.5000 
     25 C          -0.1969  -22.2546  -43.0287 C.2       9 UNK         0.5000 
     26 O          -1.0575  -23.1346  -43.0426 O.2       9 UNK        -0.5000 
     27 CA         -0.3287  -21.0880  -42.0363 C.3       9 UNK         0.1400 
     28 CB          0.6357  -21.2533  -40.8519 C.3       9 UNK        -0.1800 
     29 N          -0.1106  -19.7919  -42.6776 N.am      9 UNK        -0.5000 
     30 C          -0.9239  -19.2615  -43.6015 C.2       8 UNK         0.5000 
     31 O          -1.9436  -19.8083  -44.0159 O.2       8 UNK        -0.5000 
     32 CA         -0.5118  -17.9033  -44.1879 C.3       8 UNK         0.1400 
     33 CB         -0.8886  -16.7796  -43.2087 C.3       8 UNK        -0.1800 
     34 N           0.9141  -17.8197  -44.5043 N.am      8 UNK        -0.5000 
     35 C           1.5788  -18.6428  -45.3286 C.2       7 UNK         0.5000 
     36 O           1.0522  -19.5591  -45.9559 O.2       7 UNK        -0.5000 
     37 CA          3.1023  -18.4565  -45.4098 C.3       7 UNK         0.1400 
     38 CB          3.4622  -17.2878  -46.3396 C.3       7 UNK        -0.1800 
     39 N           3.7016  -18.2499  -44.0906 N.am      7 UNK        -0.5000 
     40 C           3.6595  -19.1258  -43.0771 C.2       6 UNK         0.5000 
     41 O           3.1497  -20.2439  -43.1691 O.2       6 UNK        -0.5000 
     42 CA          4.2235  -18.6670  -41.7162 C.3       6 UNK         0.1400 
     43 CB          5.7475  -18.8774  -41.6378 C.3       6 UNK        -0.1800 
     44 N           3.8313  -17.2996  -41.3379 N.am      6 UNK        -0.5000 
     45 C           4.2032  -16.1373  -41.8919 C.2       5 UNK         0.5000 
     46 O           5.0377  -16.0363  -42.7947 O.2       5 UNK        -0.5000 
     47 CA          3.4851  -14.8759  -41.3705 C.3       5 UNK         0.1400 
     48 CB          4.3357  -14.1767  -40.2996 C.3       5 UNK        -0.1800 
     49 N           3.1782  -13.9194  -42.4389 N.am      5 UNK        -0.5000 
     50 C           2.4601  -14.1938  -43.5367 C.2       4 UNK         0.5000 
     51 O           1.9388  -15.2903  -43.7527 O.2       4 UNK        -0.5000 
     52 CA          2.3480  -13.0642  -44.5787 C.3       4 UNK         0.1400 
     53 CB          3.6853  -12.8829  -45.3158 C.3       4 UNK        -0.1800 
     54 N           1.3108  -13.3366  -45.5743 N.am      4 UNK        -0.5000 
     55 C          -0.0059  -13.2021  -45.3767 C.2       3 UNK         0.5000 
     56 O          -0.5094  -12.7712  -44.3361 O.2       3 UNK        -0.5000 
     57 CA         -0.9019  -13.6616  -46.5432 C.3       3 UNK         0.1400 
     58 CB         -1.2295  -15.1561  -46.4250 C.3       3 UNK        -0.1800 
     59 N          -2.1648  -12.9365  -46.6304 N.am      3 UNK        -0.5000 
     60 C          -2.3176  -11.6451  -46.9380 C.2       2 UNK         0.5000 
     61 O          -1.3806  -10.8764  -47.1614 O.2       2 UNK        -0.5000 
     62 CA         -3.7792  -11.1744  -47.1015 C.3       2 UNK         0.1400 
     63 CB         -3.8976   -9.6495  -47.2731 C.3       2 UNK        -0.1800 
     64 N          -4.4018  -11.8287  -48.2557 N.am      2 UNK        -0.5000 
     65 C          -4.8429  -13.0951  -48.2962 C.2       1 UNK         0.5000 
     66 O          -4.8766  -13.8296  -47.3082 O.2       1 UNK        -0.5000 
     67 C          -2.9052  -22.1555  -46.7860 C.2       11 UNK         0.5000 
     68 O          -3.6207  -22.8482  -47.5086 O.2       11 UNK        -0.5000 
     69 N          -3.2073  -21.8550  -45.5142 N.am      12 UNK        -0.5000 
     70 CA         -4.4124  -22.3047  -44.8155 C.3       12 UNK         0.1400 
     71 CB         -4.5100  -21.6197  -43.4444 C.3       12 UNK        -0.1800 
     72 C          -4.4842  -23.8332  -44.6631 C.2       12 UNK         0.5000 
     73 O          -5.5416  -24.4114  -44.9147 O.2       12 UNK        -0.5000 
     74 N          -3.3572  -24.4665  -44.3050 N.am      13 UNK        -0.5000 
     75 CA         -3.2229  -25.9224  -44.1917 C.3       13 UNK         0.1400 
     76 CB         -1.8466  -26.2674  -43.6037 C.3       13 UNK        -0.1800 
     77 C          -3.4399  -26.6565  -45.5291 C.2       13 UNK         0.5000 
     78 O          -4.0060  -27.7499  -45.5397 O.2       13 UNK        -0.5000 
     79 N          -3.0192  -26.0243  -46.6315 N.am      14 UNK        -0.5000 
     80 CA         -3.2253  -26.4958  -47.9997 C.3       14 UNK         0.1400 
     81 CB         -2.1067  -25.9225  -48.8821 C.3       14 UNK        -0.1800 
     82 C          -4.6037  -26.1194  -48.5813 C.2       14 UNK         0.5000 
     83 O          -4.8799  -26.4814  -49.7249 O.2       14 UNK        -0.5000 
     84 N          -5.4216  -25.3616  -47.8327 N.am      15 UNK        -0.5000 
     85 CA         -6.7094  -24.7806  -48.2395 C.3       15 UNK         0.1400 
     86 CB         -7.7751  -25.8845  -48.3976 C.3       15 UNK        -0.1800 
     87 C          -6.5900  -23.8738  -49.4868 C.2       15 UNK         0.5000 
     88 O          -7.4835  -23.8563  -50.3344 O.2       15 UNK        -0.5000 
     89 N          -5.4519  -23.1722  -49.5835 N.am      16 UNK        -0.5000 
     90 CA         -4.9804  -22.3131  -50.6723 C.3       16 UNK         0.1400 
     91 CB         -5.9105  -21.0999  -50.8698 C.3       16 UNK        -0.1800 
     92 C          -4.6693  -23.0381  -51.9996 C.2       16 UNK         0.5000 
     93 O          -4.2603  -22.3748  -52.9529 O.2       16 UNK        -0.5000 
     94 N          -4.8065  -24.3724  -52.0528 N.am      17 UNK        -0.5000 
     95 CA         -4.5933  -25.1790  -53.2596 C.3       17 UNK         0.1400 
     96 CB         -5.1586  -26.5898  -53.0393 C.3       17 UNK        -0.1800 
     97 C          -3.1178  -25.2506  -53.6960 C.2       17 UNK         0.5000 
     98 O          -2.8441  -25.4015  -54.8870 O.2       17 UNK        -0.5000 
     99 N          -2.1967  -25.1201  -52.7312 N.am      18 UNK        -0.5000 
    100 CA        -0.7524  -25.0609  -52.9672 C.3       18 UNK         0.1400 
    101 CB        -0.0143  -25.4291  -51.6702 C.3       18 UNK        -0.1800 
    102 C         -0.2760  -23.6849  -53.4716 C.2       18 UNK         0.5000 
    103 O          0.8460  -23.5940  -53.9706 O.2       18 UNK        -0.5000 
    104 N         -1.1122  -22.6444  -53.3079 N.am      19 UNK        -0.5000 
    105 CA        -0.8534  -21.2379  -53.6449 C.3       19 UNK         0.1400 
    106 CB        -0.7586  -21.0677  -55.1763 C.3       19 UNK        -0.1800 
    107 C          0.3666  -20.6510  -52.8965 C.2       19 UNK         0.5000 
    108 O          1.0813  -19.8067  -53.4392 O.2       19 UNK        -0.5000 
    109 N          0.5929  -21.1294  -51.6629 N.am      20 UNK        -0.5000 
    110 CA         1.8124  -20.9218  -50.8755 C.3       20 UNK         0.1400 
    111 CB         1.7183  -21.7420  -49.5789 C.3       20 UNK        -0.1800 
    112 C          2.1392  -19.4515  -50.5570 C.2       20 UNK         0.5000 
    113 O          3.3169  -19.1010  -50.4763 O.2       20 UNK        -0.5000 
    114 N          1.1005  -18.6233  -50.3956 N.am      21 UNK        -0.5000 
    115 CA         1.2260  -17.1937  -50.1113 C.3       21 UNK         0.1400 
    116 CB         0.2165  -16.8179  -49.0178 C.3       21 UNK        -0.1800 
    117 C          1.0484  -16.3091  -51.3616 C.2       21 UNK         0.5000 
    118 O          1.1243  -15.0867  -51.2338 O.2       21 UNK        -0.5000 
    119 N          0.8119  -16.9091  -52.5376 N.am      22 UNK        -0.5000 
    120 CA         0.6064  -16.1823  -53.8051 C.3       22 UNK         0.1400 
    121 C          1.9221  -15.7498  -54.5169 C.2       22 UNK         0.5000 
    122 N          3.0972  -16.1679  -54.0622 N.am      22 UNK        -0.7600 
    123 O          1.8765  -15.0111  -55.4968 O.2       22 UNK        -0.5000 
    124 C124       -0.3302  -16.9352  -54.7921 C.3       23 UNK        -0.0398 
    125 S125       -1.8323  -17.6706  -54.0548 S.3       23 UNK        -0.2404 
    126 C126       -2.7046  -16.2322  -53.3598 C.3       23 UNK        -0.0205 
    127 H127       -1.5036  -13.7569  -51.1636 H         1 UNK         0.0600 
    128 H128       -2.7020  -14.6407  -50.2402 H         1 UNK         0.0600 
    129 H129       -2.0408  -13.1239  -49.6144 H         1 UNK         0.0600 
    130 H130       -5.4240  -12.3537  -51.3131 H         1 UNK         0.3000 
    131 H131       -4.8487  -14.6543  -49.7258 H         1 UNK         0.0600 
    132 H132       -7.3034  -12.8709  -49.4919 H         1 UNK         0.0800 
    133 H133       -7.1531  -14.5285  -48.9753 H         1 UNK         0.0800 
    134 H134       -7.8156  -16.5988  -52.1514 H         1 UNK         0.0800 
    135 H135       -7.8687  -16.5323  -50.4064 H         1 UNK         0.0800 
    136 H136       -5.3938  -15.7452  -53.1525 H         1 UNK         0.1150 
    137 H137       -2.1315  -17.6008  -51.1017 H         1 UNK         0.1150 
    138 H138       -6.0416  -17.6136  -49.3471 H         1 UNK         0.1150 
    139 H139       -2.9401  -17.7356  -48.2729 H         1 UNK         0.0800 
    140 H140       -4.3002  -18.8388  -48.2676 H         1 UNK         0.0800 
    141 H141       -2.0459  -19.5516  -46.9308 H         1 UNK         0.0800 
    142 H142       -0.5792  -19.7732  -47.8356 H         1 UNK         0.0800 
    143 H143       -1.3361  -22.2287  -48.2295 H         1 UNK         0.0600 
    144 H144        0.0354  -21.1073  -46.0409 H         1 UNK         0.3000 
    145 H145        1.0883  -24.1699  -44.5211 H         1 UNK         0.0600 
    146 H146        3.2416  -22.9844  -44.8729 H         1 UNK         0.0600 
    147 H147        2.6408  -23.6144  -46.4003 H         1 UNK         0.0600 
    148 H148        2.4888  -21.8997  -46.0388 H         1 UNK         0.0600 
    149 H149        1.5115  -21.4519  -43.7849 H         1 UNK         0.3000 
    150 H150       -1.3480  -21.1001  -41.6443 H         1 UNK         0.0600 
    151 H151        0.4573  -22.1977  -40.3361 H         1 UNK         0.0600 
    152 H152        0.5038  -20.4550  -40.1214 H         1 UNK         0.0600 
    153 H153        1.6780  -21.2480  -41.1706 H         1 UNK         0.0600 
    154 H154        0.7331  -19.2956  -42.4346 H         1 UNK         0.3000 
    155 H155       -1.0680  -17.7633  -45.1162 H         1 UNK         0.0600 
    156 H156       -0.3472  -16.8687  -42.2661 H         1 UNK         0.0600 
    157 H157       -1.9549  -16.8007  -42.9802 H         1 UNK         0.0600 
    158 H158       -0.6663  -15.7962  -43.6198 H         1 UNK         0.0600 
    159 H159        1.4192  -17.0409  -44.0863 H         1 UNK         0.3000 
    160 H160        3.5274  -19.3706  -45.8292 H         1 UNK         0.0600 
    161 H161        3.0704  -16.3396  -45.9713 H         1 UNK         0.0600 
    162 H162        3.0534  -17.4468  -47.3382 H         1 UNK         0.0600 
    163 H163        4.5424  -17.1855  -46.4434 H         1 UNK         0.0600 
    164 H164        4.1366  -17.3497  -43.9128 H         1 UNK         0.3000 
    165 H165        3.7722  -19.3154  -40.9633 H         1 UNK         0.0600 
    166 H166        6.2822  -18.3070  -42.3974 H         1 UNK         0.0600 
    167 H167        6.1362  -18.5857  -40.6623 H         1 UNK         0.0600 
    168 H168        5.9996  -19.9279  -41.7875 H         1 UNK         0.0600 
    169 H169        3.1320  -17.2583  -40.6094 H         1 UNK         0.3000 
    170 H170        2.5362  -15.1748  -40.9204 H         1 UNK         0.0600 
    171 H171        5.2858  -13.8279  -40.7065 H         1 UNK         0.0600 
    172 H172        3.8139  -13.3171  -39.8785 H         1 UNK         0.0600 
    173 H173        4.5612  -14.8543  -39.4749 H         1 UNK         0.0600 
    174 H174        3.6031  -13.0081  -42.3528 H         1 UNK         0.3000 
    175 H175        2.1020  -12.1365  -44.0576 H         1 UNK         0.0600 
    176 H176        3.9843  -13.7937  -45.8365 H         1 UNK         0.0600 
    177 H177        3.6253  -12.0801  -46.0510 H         1 UNK         0.0600 
    178 H178        4.4876  -12.6249  -44.6235 H         1 UNK         0.0600 
    179 H179        1.6326  -13.7371  -46.4424 H         1 UNK         0.3000 
    180 H180       -0.3598  -13.4982  -47.4771 H         1 UNK         0.0600 
    181 H181       -1.7441  -15.5175  -47.3153 H         1 UNK         0.0600 
    182 H182       -1.8772  -15.3548  -45.5713 H         1 UNK         0.0600 
    183 H183       -0.3226  -15.7489  -46.3022 H         1 UNK         0.0600 
    184 H184       -3.0074  -13.4844  -46.4993 H         1 UNK         0.3000 
    185 H185       -4.3216  -11.4523  -46.1953 H         1 UNK         0.0600 
    186 H186       -4.9413   -9.3402  -47.3316 H         1 UNK         0.0600 
    187 H187       -3.4514   -9.1259  -46.4267 H         1 UNK         0.0600 
    188 H188       -3.3946   -9.3034  -48.1770 H         1 UNK         0.0600 
    189 H189       -4.3898  -11.3081  -49.1212 H         1 UNK         0.3000 
    190 H190       -2.5835  -21.2515  -44.9829 H         1 UNK         0.3000 
    191 H191       -5.2733  -21.9926  -45.4103 H         1 UNK         0.0600 
    192 H192       -5.4001  -21.9460  -42.9051 H         1 UNK         0.0600 
    193 H193       -4.5739  -20.5366  -43.5498 H         1 UNK         0.0600 
    194 H194       -3.6447  -21.8448  -42.8198 H         1 UNK         0.0600 
    195 H195       -2.5333  -23.9170  -44.0761 H         1 UNK         0.3000 
    196 H196       -3.9878  -26.2733  -43.4960 H         1 UNK         0.0600 
    197 H197       -1.0366  -25.8993  -44.2343 H         1 UNK         0.0600 
    198 H198       -1.7221  -25.8326  -42.6118 H         1 UNK         0.0600 
    199 H199       -1.7221  -27.3463  -43.5033 H         1 UNK         0.0600 
    200 H200       -2.5202  -25.1480  -46.5275 H         1 UNK         0.3000 
    201 H201       -3.1494  -27.5848  -48.0194 H         1 UNK         0.0600 
    202 H202       -2.1879  -26.3015  -49.9006 H         1 UNK         0.0600 
    203 H203       -2.1464  -24.8334  -48.9267 H         1 UNK         0.0600 
    204 H204       -1.1227  -26.2061  -48.5081 H         1 UNK         0.0600 
    205 H205       -5.1057  -25.0969  -46.9075 H         1 UNK         0.3000 
    206 H206       -7.0229  -24.1312  -47.4212 H         1 UNK         0.0600 
    207 H207       -7.8413  -26.4982  -47.4992 H         1 UNK         0.0600 
    208 H208       -8.7623  -25.4538  -48.5686 H         1 UNK         0.0600 
    209 H209       -7.5553  -26.5429  -49.2385 H         1 UNK         0.0600 
    210 H210       -4.7993  -23.2420  -48.8029 H         1 UNK         0.3000 
    211 H211       -4.0196  -21.9329  -50.3303 H         1 UNK         0.0600 
    212 H212       -5.4771  -20.3842  -51.5698 H         1 UNK         0.0600 
    213 H213       -6.0697  -20.5703  -49.9305 H         1 UNK         0.0600 
    214 H214       -6.8841  -21.3932  -51.2625 H         1 UNK         0.0600 
    215 H215       -5.1141  -24.8699  -51.2255 H         1 UNK         0.3000 
    216 H216       -5.1544  -24.7147  -54.0734 H         1 UNK         0.0600 
    217 H217       -4.5980  -27.1345  -52.2792 H         1 UNK         0.0600 
    218 H218       -5.1127  -27.1746  -53.9588 H         1 UNK         0.0600 
    219 H219       -6.2025  -26.5548  -52.7269 H         1 UNK         0.0600 
    220 H220       -2.5145  -25.0161  -51.7795 H         1 UNK         0.3000 
    221 H221       -0.4887  -25.7983  -53.7284 H         1 UNK         0.0600 
    222 H222       -0.2677  -26.4381  -51.3454 H         1 UNK         0.0600 
    223 H223       -0.2507  -24.7389  -50.8597 H         1 UNK         0.0600 
    224 H224        1.0668  -25.4032  -51.8141 H         1 UNK         0.0600 
    225 H225       -2.0363  -22.8327  -52.9419 H         1 UNK         0.3000 
    226 H226       -1.7223  -20.6755  -53.3002 H         1 UNK         0.0600 
    227 H227        0.1188  -21.5673  -55.5874 H         1 UNK         0.0600 
    228 H228       -1.6400  -21.4754  -55.6711 H         1 UNK         0.0600 
    229 H229       -0.6907  -20.0174  -55.4561 H         1 UNK         0.0600 
    230 H230       -0.0612  -21.8051  -51.2990 H         1 UNK         0.3000 
    231 H231        2.6433  -21.3153  -51.4646 H         1 UNK         0.0600 
    232 H232        0.8979  -21.4010  -48.9494 H         1 UNK         0.0600 
    233 H233        2.6341  -21.6549  -48.9927 H         1 UNK         0.0600 
    234 H234        1.5666  -22.8015  -49.7867 H         1 UNK         0.0600 
    235 H235        0.1658  -18.9937  -50.4913 H         1 UNK         0.3000 
    236 H236        2.2213  -16.9761  -49.7188 H         1 UNK         0.0600 
    237 H237       -0.8115  -16.9650  -49.3437 H         1 UNK         0.0600 
    238 H238        0.3723  -17.4105  -48.1162 H         1 UNK         0.0600 
    239 H239        0.3255  -15.7693  -48.7408 H         1 UNK         0.0600 
    240 H240        0.8131  -17.9207  -52.6021 H         1 UNK         0.3000 
    241 H241        0.1128  -15.2396  -53.5664 H         1 UNK         0.0600 
    242 H242        3.9429  -15.8783  -54.5279 H         1 UNK         0.3800 
    243 H243        3.1471  -16.7819  -53.2649 H         1 UNK         0.3800 
    244 H244        0.2177  -17.7492  -55.2695 H         1 UNK         0.0800 
    245 H245       -0.6404  -16.2695  -55.5992 H         1 UNK         0.0800 
    246 H246       -1.9977  -15.5239  -52.9315 H         1 UNK         0.0800 
    247 H247       -3.2277  -15.7088  -54.1614 H         1 UNK         0.0800 
@<TRIPOS>BOND
     1    1    2 1    
     2    1  127 1    
     3    1  128 1    
     4    1  129 1    
     5    2    3 2    
     6    2    4 am   BACKBONE|DICT|INTERRES
     7    4    5 1    
     8    4  130 1    
     9    5    6 1    
    10    5   65 1    
    11    5  131 1    
    12    6    7 1    
    13    6  132 1    
    14    6  133 1    
    15    7    8 1    
    16    8    9 1    
    17    8  134 1    
    18    8  135 1    
    19    9   10 ar   
    20    9   14 ar   
    21   10   11 ar   
    22   10  136 1    
    23   11   12 ar   
    24   11  126 1    
    25   12   13 ar   
    26   12  137 1    
    27   13   14 ar   
    28   13   15 1    
    29   14  138 1    
    30   15   16 1    
    31   15  139 1    
    32   15  140 1    
    33   16   17 1    
    34   17   18 1    
    35   17  141 1    
    36   17  142 1    
    37   18   19 1    
    38   18   67 1    
    39   18  143 1    
    40   19   20 am   BACKBONE|DICT|INTERRES
    41   19  144 1    
    42   20   21 2    
    43   20   22 1    
    44   22   23 1    
    45   22   24 1    
    46   22  145 1    
    47   23  146 1    
    48   23  147 1    
    49   23  148 1    
    50   24   25 am   BACKBONE|DICT|INTERRES
    51   24  149 1    
    52   25   26 2    
    53   25   27 1    
    54   27   28 1    
    55   27   29 1    
    56   27  150 1    
    57   28  151 1    
    58   28  152 1    
    59   28  153 1    
    60   29   30 am   BACKBONE|DICT|INTERRES
    61   29  154 1    
    62   30   31 2    
    63   30   32 1    
    64   32   33 1    
    65   32   34 1    
    66   32  155 1    
    67   33  156 1    
    68   33  157 1    
    69   33  158 1    
    70   34   35 am   BACKBONE|DICT|INTERRES
    71   34  159 1    
    72   35   36 2    
    73   35   37 1    
    74   37   38 1    
    75   37   39 1    
    76   37  160 1    
    77   38  161 1    
    78   38  162 1    
    79   38  163 1    
    80   39   40 am   BACKBONE|DICT|INTERRES
    81   39  164 1    
    82   40   41 2    
    83   40   42 1    
    84   42   43 1    
    85   42   44 1    
    86   42  165 1    
    87   43  166 1    
    88   43  167 1    
    89   43  168 1    
    90   44   45 am   BACKBONE|DICT|INTERRES
    91   44  169 1    
    92   45   46 2    
    93   45   47 1    
    94   47   48 1    
    95   47   49 1    
    96   47  170 1    
    97   48  171 1    
    98   48  172 1    
    99   48  173 1    
   100   49   50 am   BACKBONE|DICT|INTERRES
   101   49  174 1    
   102   50   51 2    
   103   50   52 1    
   104   52   53 1    
   105   52   54 1    
   106   52  175 1    
   107   53  176 1    
   108   53  177 1    
   109   53  178 1    
   110   54   55 am   BACKBONE|DICT|INTERRES
   111   54  179 1    
   112   55   56 2    
   113   55   57 1    
   114   57   58 1    
   115   57   59 1    
   116   57  180 1    
   117   58  181 1    
   118   58  182 1    
   119   58  183 1    
   120   59   60 am   BACKBONE|DICT|INTERRES
   121   59  184 1    
   122   60   61 2    
   123   60   62 1    
   124   62   63 1    
   125   62   64 1    
   126   62  185 1    
   127   63  186 1    
   128   63  187 1    
   129   63  188 1    
   130   64   65 am   BACKBONE|DICT|INTERRES
   131   64  189 1    
   132   65   66 2    
   133   67   68 2    
   134   67   69 am   BACKBONE|DICT|INTERRES
   135   69   70 1    
   136   69  190 1    
   137   70   71 1    
   138   70   72 1    
   139   70  191 1    
   140   71  192 1    
   141   71  193 1    
   142   71  194 1    
   143   72   73 2    
   144   72   74 am   BACKBONE|DICT|INTERRES
   145   74   75 1    
   146   74  195 1    
   147   75   76 1    
   148   75   77 1    
   149   75  196 1    
   150   76  197 1    
   151   76  198 1    
   152   76  199 1    
   153   77   78 2    
   154   77   79 am   BACKBONE|DICT|INTERRES
   155   79   80 1    
   156   79  200 1    
   157   80   81 1    
   158   80   82 1    
   159   80  201 1    
   160   81  202 1    
   161   81  203 1    
   162   81  204 1    
   163   82   83 2    
   164   82   84 am   BACKBONE|DICT|INTERRES
   165   84   85 1    
   166   84  205 1    
   167   85   86 1    
   168   85   87 1    
   169   85  206 1    
   170   86  207 1    
   171   86  208 1    
   172   86  209 1    
   173   87   88 2    
   174   87   89 am   BACKBONE|DICT|INTERRES
   175   89   90 1    
   176   89  210 1    
   177   90   91 1    
   178   90   92 1    
   179   90  211 1    
   180   91  212 1    
   181   91  213 1    
   182   91  214 1    
   183   92   93 2    
   184   92   94 am   BACKBONE|DICT|INTERRES
   185   94   95 1    
   186   94  215 1    
   187   95   96 1    
   188   95   97 1    
   189   95  216 1    
   190   96  217 1    
   191   96  218 1    
   192   96  219 1    
   193   97   98 2    
   194   97   99 am   BACKBONE|DICT|INTERRES
   195   99  100 1    
   196   99  220 1    
   197  100  101 1    
   198  100  102 1    
   199  100  221 1    
   200  101  222 1    
   201  101  223 1    
   202  101  224 1    
   203  102  103 2    
   204  102  104 am   BACKBONE|DICT|INTERRES
   205  104  105 1    
   206  104  225 1    
   207  105  106 1    
   208  105  107 1    
   209  105  226 1    
   210  106  227 1    
   211  106  228 1    
   212  106  229 1    
   213  107  108 2    
   214  107  109 am   BACKBONE|DICT|INTERRES
   215  109  110 1    
   216  109  230 1    
   217  110  111 1    
   218  110  112 1    
   219  110  231 1    
   220  111  232 1    
   221  111  233 1    
   222  111  234 1    
   223  112  113 2    
   224  112  114 am   BACKBONE|DICT|INTERRES
   225  114  115 1    
   226  114  235 1    
   227  115  116 1    
   228  115  117 1    
   229  115  236 1    
   230  116  237 1    
   231  116  238 1    
   232  116  239 1    
   233  117  118 2    
   234  117  119 am   BACKBONE|DICT|INTERRES
   235  119  120 1    
   236  119  240 1    
   237  120  121 1    
   238  120  124 1    
   239  120  241 1    
   240  121  122 am   BACKBONE|DICT|INTERRES
   241  121  123 2    
   242  122  242 1    
   243  122  243 1    
   244  124  125 1    
   245  124  244 1    
   246  124  245 1    
   247  125  126 1    
   248  126  246 1    
   249  126  247 1    
@<TRIPOS>SUBSTRUCTURE
     1 UNK         1 GROUP             0       ****    0 ROOT    
