@<TRIPOS>MOLECULE
3R540
247   249    1
SMALL
USER_CHARGES


@<TRIPOS>ATOM
      1 CA         -5.1615  -11.5116  -47.0777 C.3       0 UNK        -0.1800 
      2 C          -3.9959  -12.4390  -46.7706 C.2       0 UNK         0.5000 
      3 O          -3.0138  -12.0101  -46.1651 O.2       0 UNK        -0.5000 
      4 N          -4.1025  -13.7147  -47.1640 N.am      1 UNK        -0.5000 
      5 CA         -3.0611  -14.7406  -47.0065 C.3       1 UNK         0.1400 
      6 C6         -3.4126  -16.0519  -47.7482 C.3       23 UNK        -0.0398 
      7 S7         -3.7235  -15.8356  -49.5306 S.3       23 UNK        -0.2404 
      8 C8         -2.0386  -15.5944  -50.1765 C.3       23 UNK        -0.0205 
      9 C9         -1.1495  -16.8157  -49.9914 C.ar      23 UNK        -0.0193 
     10 C10        -1.2489  -17.8944  -50.8735 C.ar      23 UNK        -0.1150 
     11 C11        -0.3735  -18.9797  -50.7717 C.ar      23 UNK        -0.0193 
     12 C12         0.5788  -18.9993  -49.7480 C.ar      23 UNK        -0.1150 
     13 C13         0.6716  -17.9377  -48.8426 C.ar      23 UNK        -0.0193 
     14 C14        -0.1919  -16.8461  -48.9728 C.ar      23 UNK        -0.1150 
     15 C15         1.7426  -17.9424  -47.7608 C.3       23 UNK        -0.0205 
     16 S16         1.4423  -19.1916  -46.4691 S.3       23 UNK        -0.2404 
     17 C17        -0.0667  -18.5673  -45.6545 C.3       23 UNK        -0.0398 
     18 CA         -1.2138  -19.6006  -45.6527 C.3       11 UNK         0.1400 
     19 N          -0.7895  -20.8747  -45.0657 N.am      11 UNK        -0.5000 
     20 C          -1.5301  -21.9726  -44.8665 C.2       10 UNK         0.5000 
     21 O          -2.6926  -22.0907  -45.2575 O.2       10 UNK        -0.5000 
     22 CA         -0.8805  -23.0989  -44.0379 C.3       10 UNK         0.1400 
     23 CB         -0.4117  -24.2351  -44.9583 C.3       10 UNK        -0.1800 
     24 N           0.2532  -22.6620  -43.2126 N.am      10 UNK        -0.5000 
     25 C           0.2425  -21.7161  -42.2626 C.2       9 UNK         0.5000 
     26 O          -0.7648  -21.0715  -41.9655 O.2       9 UNK        -0.5000 
     27 CA          1.5788  -21.3810  -41.5662 C.3       9 UNK         0.1400 
     28 CB          1.6650  -22.0570  -40.1852 C.3       9 UNK        -0.1800 
     29 N           2.7943  -21.6341  -42.3584 N.am      9 UNK        -0.5000 
     30 C           3.3137  -22.8061  -42.7624 C.2       8 UNK         0.5000 
     31 O           2.7627  -23.8924  -42.5852 O.2       8 UNK        -0.5000 
     32 CA          4.6577  -22.7702  -43.5208 C.3       8 UNK         0.1400 
     33 CB          4.4135  -22.9109  -45.0317 C.3       8 UNK        -0.1800 
     34 N           5.4373  -21.5548  -43.2855 N.am      8 UNK        -0.5000 
     35 C           5.9724  -21.1818  -42.1143 C.2       7 UNK         0.5000 
     36 O           5.9721  -21.8929  -41.1089 O.2       7 UNK        -0.5000 
     37 CA          6.5886  -19.7668  -42.0416 C.3       7 UNK         0.1400 
     38 CB          8.1218  -19.8518  -41.9807 C.3       7 UNK        -0.1800 
     39 N           6.2105  -18.8663  -43.1400 N.am      7 UNK        -0.5000 
     40 C           4.9660  -18.4710  -43.4412 C.2       6 UNK         0.5000 
     41 O           3.9597  -18.8633  -42.8416 O.2       6 UNK        -0.5000 
     42 CA          4.8325  -17.5342  -44.6543 C.3       6 UNK         0.1400 
     43 CB          5.1080  -18.3022  -45.9583 C.3       6 UNK        -0.1800 
     44 N           3.4776  -16.9952  -44.7124 N.am      6 UNK        -0.5000 
     45 C           3.1117  -15.7818  -44.2901 C.2       5 UNK         0.5000 
     46 O           3.8984  -14.9125  -43.9064 O.2       5 UNK        -0.5000 
     47 CA          1.5978  -15.5266  -44.2454 C.3       5 UNK         0.1400 
     48 CB          1.0196  -15.9307  -42.8801 C.3       5 UNK        -0.1800 
     49 N           1.2667  -14.1318  -44.5108 N.am      5 UNK        -0.5000 
     50 C           1.2008  -13.5858  -45.7303 C.2       4 UNK         0.5000 
     51 O           1.4650  -14.2047  -46.7632 O.2       4 UNK        -0.5000 
     52 CA          0.7248  -12.1180  -45.8056 C.3       4 UNK         0.1400 
     53 CB          0.3446  -11.6963  -47.2368 C.3       4 UNK        -0.1800 
     54 N          -0.4254  -11.8746  -44.9328 N.am      4 UNK        -0.5000 
     55 C          -0.3730  -11.5830  -43.6267 C.2       3 UNK         0.5000 
     56 O           0.6775  -11.4652  -42.9959 O.2       3 UNK        -0.5000 
     57 CA         -1.7204  -11.4704  -42.8972 C.3       3 UNK         0.1400 
     58 CB         -2.4374  -10.1579  -43.2518 C.3       3 UNK        -0.1800 
     59 N          -2.5748  -12.6081  -43.2352 N.am      3 UNK        -0.5000 
     60 C          -2.5538  -13.7850  -42.5929 C.2       2 UNK         0.5000 
     61 O          -1.8797  -13.9999  -41.5855 O.2       2 UNK        -0.5000 
     62 CA         -3.4245  -14.9197  -43.1683 C.3       2 UNK         0.1400 
     63 CB         -4.7851  -14.9749  -42.4576 C.3       2 UNK        -0.1800 
     64 N          -3.6431  -14.7958  -44.6094 N.am      2 UNK        -0.5000 
     65 C          -2.7057  -15.0436  -45.5350 C.2       1 UNK         0.5000 
     66 O          -1.5865  -15.4745  -45.2659 O.2       1 UNK        -0.5000 
     67 C          -2.4607  -18.9990  -44.9655 C.2       11 UNK         0.5000 
     68 O          -3.2221  -18.2994  -45.6281 O.2       11 UNK        -0.5000 
     69 N          -2.7129  -19.3416  -43.6918 N.am      12 UNK        -0.5000 
     70 CA         -3.9511  -19.0246  -42.9702 C.3       12 UNK         0.1400 
     71 CB         -3.8311  -19.5365  -41.5279 C.3       12 UNK        -0.1800 
     72 C          -5.2342  -19.5734  -43.6374 C.2       12 UNK         0.5000 
     73 O          -6.3057  -19.0000  -43.4411 O.2       12 UNK        -0.5000 
     74 N          -5.0964  -20.6414  -44.4349 N.am      13 UNK        -0.5000 
     75 CA         -6.1324  -21.2160  -45.2937 C.3       13 UNK         0.1400 
     76 CB         -6.3609  -22.6775  -44.8683 C.3       13 UNK        -0.1800 
     77 C          -5.7319  -21.1093  -46.7820 C.2       13 UNK         0.5000 
     78 O          -6.1764  -21.9247  -47.5920 O.2       13 UNK        -0.5000 
     79 N          -4.8551  -20.1450  -47.1130 N.am      14 UNK        -0.5000 
     80 CA         -4.2494  -19.8812  -48.4281 C.3       14 UNK         0.1400 
     81 CB         -5.3076  -19.3346  -49.4059 C.3       14 UNK        -0.1800 
     82 C          -3.4654  -21.0791  -49.0099 C.2       14 UNK         0.5000 
     83 O          -3.2880  -21.1651  -50.2243 O.2       14 UNK        -0.5000 
     84 N          -3.0341  -21.9951  -48.1284 N.am      15 UNK        -0.5000 
     85 CA         -2.4288  -23.2955  -48.4180 C.3       15 UNK         0.1400 
     86 CB         -0.9928  -23.1208  -48.9458 C.3       15 UNK        -0.1800 
     87 C          -3.3293  -24.2165  -49.2738 C.2       15 UNK         0.5000 
     88 O          -2.8259  -25.0352  -50.0459 O.2       15 UNK        -0.5000 
     89 N          -4.6533  -24.0799  -49.0911 N.am      16 UNK        -0.5000 
     90 CA         -5.7266  -24.8462  -49.7252 C.3       16 UNK         0.1400 
     91 CB         -5.7568  -26.2856  -49.1633 C.3       16 UNK        -0.1800 
     92 C          -5.6613  -24.7655  -51.2643 C.2       16 UNK         0.5000 
     93 O          -5.8161  -23.6761  -51.8172 O.2       16 UNK        -0.5000 
     94 N          -5.4214  -25.9034  -51.9303 N.am      17 UNK        -0.5000 
     95 CA         -5.3370  -26.0376  -53.3869 C.3       17 UNK         0.1400 
     96 CB         -5.1974  -27.5257  -53.7415 C.3       17 UNK        -0.1800 
     97 C          -4.2028  -25.2211  -54.0379 C.2       17 UNK         0.5000 
     98 O          -4.3031  -24.8928  -55.2211 O.2       17 UNK        -0.5000 
     99 N          -3.1627  -24.8776  -53.2629 N.am      18 UNK        -0.5000 
    100 CA        -2.0444  -24.0444  -53.7076 C.3       18 UNK         0.1400 
    101 CB        -0.9117  -24.1078  -52.6771 C.3       18 UNK        -0.1800 
    102 C         -2.4353  -22.5820  -53.9934 C.2       18 UNK         0.5000 
    103 O         -1.6917  -21.9013  -54.6979 O.2       18 UNK        -0.5000 
    104 N         -3.5999  -22.1255  -53.5055 N.am      19 UNK        -0.5000 
    105 CA        -4.1566  -20.7940  -53.7682 C.3       19 UNK         0.1400 
    106 CB        -5.5009  -20.6518  -53.0416 C.3       19 UNK        -0.1800 
    107 C         -4.3297  -20.4852  -55.2688 C.2       19 UNK         0.5000 
    108 O         -4.1458  -19.3388  -55.6784 O.2       19 UNK        -0.5000 
    109 N         -4.6266  -21.5219  -56.0659 N.am      20 UNK        -0.5000 
    110 CA        -4.7279  -21.4529  -57.5237 C.3       20 UNK         0.1400 
    111 CB        -5.3726  -22.7487  -58.0385 C.3       20 UNK        -0.1800 
    112 C         -3.3749  -21.2085  -58.2228 C.2       20 UNK         0.5000 
    113 O         -3.3609  -20.6477  -59.3193 O.2       20 UNK        -0.5000 
    114 N         -2.2705  -21.6244  -57.5873 N.am      21 UNK        -0.5000 
    115 CA        -0.9073  -21.3817  -58.0564 C.3       21 UNK         0.1400 
    116 CB         0.0063  -22.5352  -57.6110 C.3       21 UNK        -0.1800 
    117 C         -0.3801  -20.0310  -57.5440 C.2       21 UNK         0.5000 
    118 O          0.2570  -19.3038  -58.3075 O.2       21 UNK        -0.5000 
    119 N         -0.6593  -19.7172  -56.2712 N.am      22 UNK        -0.5000 
    120 CA        -0.2938  -18.4469  -55.6247 C.3       22 UNK         0.1400 
    121 C         -1.0320  -17.2092  -56.2091 C.2       22 UNK         0.5000 
    122 N         -2.3051  -17.3132  -56.5705 N.am      22 UNK        -0.7600 
    123 O         -0.4400  -16.1411  -56.3378 O.2       22 UNK        -0.5000 
    124 C124       -0.4800  -18.4949  -54.0888 C.3       23 UNK        -0.0398 
    125 S125        0.5446  -19.7656  -53.2721 S.3       23 UNK        -0.2404 
    126 C126       -0.4399  -20.1184  -51.7798 C.3       23 UNK        -0.0205 
    127 H127       -5.9651  -12.0299  -47.6013 H         1 UNK         0.0600 
    128 H128       -4.8254  -10.6842  -47.7024 H         1 UNK         0.0600 
    129 H129       -5.5659  -11.0998  -46.1531 H         1 UNK         0.0600 
    130 H130       -4.9278  -14.0095  -47.6669 H         1 UNK         0.3000 
    131 H131       -2.1509  -14.3361  -47.4528 H         1 UNK         0.0600 
    132 H132       -4.3054  -16.5032  -47.3120 H         1 UNK         0.0800 
    133 H133       -2.6172  -16.7872  -47.6274 H         1 UNK         0.0800 
    134 H134       -1.5882  -14.7171  -49.7107 H         1 UNK         0.0800 
    135 H135       -2.1071  -15.3613  -51.2401 H         1 UNK         0.0800 
    136 H136       -1.9913  -17.8722  -51.6581 H         1 UNK         0.1150 
    137 H137        1.2603  -19.8342  -49.6631 H         1 UNK         0.1150 
    138 H138       -0.1054  -16.0101  -48.2919 H         1 UNK         0.1150 
    139 H139        2.7085  -18.1475  -48.2242 H         1 UNK         0.0800 
    140 H140        1.8336  -16.9575  -47.3006 H         1 UNK         0.0800 
    141 H141       -0.3889  -17.6504  -46.1498 H         1 UNK         0.0800 
    142 H142        0.1916  -18.2923  -44.6309 H         1 UNK         0.0800 
    143 H143       -1.4863  -19.8048  -46.6900 H         1 UNK         0.0600 
    144 H144        0.1609  -20.8967  -44.7270 H         1 UNK         0.3000 
    145 H145       -1.6459  -23.4896  -43.3648 H         1 UNK         0.0600 
    146 H146        0.0258  -25.0527  -44.3849 H         1 UNK         0.0600 
    147 H147       -1.2462  -24.6506  -45.5234 H         1 UNK         0.0600 
    148 H148        0.3356  -23.8906  -45.6747 H         1 UNK         0.0600 
    149 H149        1.1201  -23.1779  -43.3235 H         1 UNK         0.3000 
    150 H150        1.5679  -20.3027  -41.3990 H         1 UNK         0.0600 
    151 H151        0.8232  -21.7647  -39.5563 H         1 UNK         0.0600 
    152 H152        2.5770  -21.7686  -39.6622 H         1 UNK         0.0600 
    153 H153        1.6507  -23.1445  -40.2612 H         1 UNK         0.0600 
    154 H154        3.3137  -20.7935  -42.5933 H         1 UNK         0.3000 
    155 H155        5.2492  -23.6236  -43.1831 H         1 UNK         0.0600 
    156 H156        3.8375  -22.0725  -45.4265 H         1 UNK         0.0600 
    157 H157        3.8597  -23.8236  -45.2561 H         1 UNK         0.0600 
    158 H158        5.3539  -22.9610  -45.5810 H         1 UNK         0.0600 
    159 H159        5.5011  -20.9065  -44.0556 H         1 UNK         0.3000 
    160 H160        6.2345  -19.3153  -41.1128 H         1 UNK         0.0600 
    161 H161        8.5372  -20.2721  -42.8975 H         1 UNK         0.0600 
    162 H162        8.4477  -20.4835  -41.1532 H         1 UNK         0.0600 
    163 H163        8.5668  -18.8682  -41.8289 H         1 UNK         0.0600 
    164 H164        6.9750  -18.5123  -43.6971 H         1 UNK         0.3000 
    165 H165        5.5630  -16.7284  -44.5567 H         1 UNK         0.0600 
    166 H166        4.9542  -17.6647  -46.8292 H         1 UNK         0.0600 
    167 H167        6.1384  -18.6568  -45.9988 H         1 UNK         0.0600 
    168 H168        4.4585  -19.1721  -46.0629 H         1 UNK         0.0600 
    169 H169        2.7621  -17.6675  -44.9504 H         1 UNK         0.3000 
    170 H170        1.1225  -16.1356  -45.0138 H         1 UNK         0.0600 
    171 H171        1.4124  -15.3073  -42.0760 H         1 UNK         0.0600 
    172 H172       -0.0669  -15.8425  -42.8733 H         1 UNK         0.0600 
    173 H173        1.2617  -16.9672  -42.6406 H         1 UNK         0.0600 
    174 H174        1.0862  -13.5413  -43.7103 H         1 UNK         0.3000 
    175 H175        1.5593  -11.4921  -45.4834 H         1 UNK         0.0600 
    176 H176       -0.4683  -12.3071  -47.6317 H         1 UNK         0.0600 
    177 H177        0.0249  -10.6546  -47.2686 H         1 UNK         0.0600 
    178 H178        1.1926  -11.7952  -47.9154 H         1 UNK         0.0600 
    179 H179       -1.3398  -11.9670  -45.3694 H         1 UNK         0.3000 
    180 H180       -1.5258  -11.4633  -41.8225 H         1 UNK         0.0600 
    181 H181       -3.3771  -10.0649  -42.7073 H         1 UNK         0.0600 
    182 H182       -2.6606  -10.0867  -44.3166 H         1 UNK         0.0600 
    183 H183       -1.8225   -9.2964  -42.9884 H         1 UNK         0.0600 
    184 H184       -3.1056  -12.5295  -44.0933 H         1 UNK         0.3000 
    185 H185       -2.9005  -15.8588  -42.9791 H         1 UNK         0.0600 
    186 H186       -5.3887  -15.8068  -42.8215 H         1 UNK         0.0600 
    187 H187       -4.6581  -15.1123  -41.3830 H         1 UNK         0.0600 
    188 H188       -5.3545  -14.0566  -42.6065 H         1 UNK         0.0600 
    189 H189       -4.5417  -14.4493  -44.9114 H         1 UNK         0.3000 
    190 H190       -2.0480  -19.9303  -43.2009 H         1 UNK         0.3000 
    191 H191       -4.0456  -17.9388  -42.9411 H         1 UNK         0.0600 
    192 H192       -4.7229  -19.2925  -40.9490 H         1 UNK         0.0600 
    193 H193       -2.9794  -19.0847  -41.0188 H         1 UNK         0.0600 
    194 H194       -3.7030  -20.6193  -41.4969 H         1 UNK         0.0600 
    195 H195       -4.1745  -21.0550  -44.5419 H         1 UNK         0.3000 
    196 H196       -7.0725  -20.6729  -45.1807 H         1 UNK         0.0600 
    197 H197       -5.4655  -23.2824  -45.0187 H         1 UNK         0.0600 
    198 H198       -6.6351  -22.7419  -43.8152 H         1 UNK         0.0600 
    199 H199       -7.1691  -23.1348  -45.4404 H         1 UNK         0.0600 
    200 H200       -4.5360  -19.5226  -46.3768 H         1 UNK         0.3000 
    201 H201       -3.5110  -19.0937  -48.2744 H         1 UNK         0.0600 
    202 H202       -4.8446  -18.9982  -50.3344 H         1 UNK         0.0600 
    203 H203       -5.8305  -18.4780  -48.9807 H         1 UNK         0.0600 
    204 H204       -6.0502  -20.0909  -49.6613 H         1 UNK         0.0600 
    205 H205       -3.2133  -21.8306  -47.1433 H         1 UNK         0.3000 
    206 H206       -2.3520  -23.8059  -47.4584 H         1 UNK         0.0600 
    207 H207       -0.3660  -22.6250  -48.2043 H         1 UNK         0.0600 
    208 H208       -0.5278  -24.0807  -49.1728 H         1 UNK         0.0600 
    209 H209       -0.9701  -22.5150  -49.8482 H         1 UNK         0.0600 
    210 H210       -4.9737  -23.3285  -48.4885 H         1 UNK         0.3000 
    211 H211       -6.6599  -24.3604  -49.4368 H         1 UNK         0.0600 
    212 H212       -6.5906  -26.8540  -49.5775 H         1 UNK         0.0600 
    213 H213       -5.8873  -26.2743  -48.0811 H         1 UNK         0.0600 
    214 H214       -4.8380  -26.8333  -49.3756 H         1 UNK         0.0600 
    215 H215       -5.2778  -26.7463  -51.3936 H         1 UNK         0.3000 
    216 H216       -6.2769  -25.6728  -53.8060 H         1 UNK         0.0600 
    217 H217       -4.2859  -27.9544  -53.3229 H         1 UNK         0.0600 
    218 H218       -5.1611  -27.6687  -54.8224 H         1 UNK         0.0600 
    219 H219       -6.0436  -28.1024  -53.3678 H         1 UNK         0.0600 
    220 H220       -3.1643  -25.1537  -52.2878 H         1 UNK         0.3000 
    221 H221       -1.6680  -24.4629  -54.6434 H         1 UNK         0.0600 
    222 H222       -0.5867  -25.1336  -52.5034 H         1 UNK         0.0600 
    223 H223       -1.2294  -23.6890  -51.7258 H         1 UNK         0.0600 
    224 H224       -0.0430  -23.5392  -53.0121 H         1 UNK         0.0600 
    225 H225       -4.1593  -22.7361  -52.9211 H         1 UNK         0.3000 
    226 H226       -3.4655  -20.0596  -53.3530 H         1 UNK         0.0600 
    227 H227       -6.2444  -21.3478  -53.4319 H         1 UNK         0.0600 
    228 H228       -5.3940  -20.8469  -51.9751 H         1 UNK         0.0600 
    229 H229       -5.9010  -19.6431  -53.1509 H         1 UNK         0.0600 
    230 H230       -4.7322  -22.4367  -55.6479 H         1 UNK         0.3000 
    231 H231       -5.3854  -20.6190  -57.7783 H         1 UNK         0.0600 
    232 H232       -4.7665  -23.6226  -57.7954 H         1 UNK         0.0600 
    233 H233       -5.4923  -22.7226  -59.1224 H         1 UNK         0.0600 
    234 H234       -6.3623  -22.8964  -57.6061 H         1 UNK         0.0600 
    235 H235       -2.3590  -22.0156  -56.6578 H         1 UNK         0.3000 
    236 H236       -0.8977  -21.3555  -59.1482 H         1 UNK         0.0600 
    237 H237        0.0766  -22.6071  -56.5256 H         1 UNK         0.0600 
    238 H238       -0.3560  -23.4920  -57.9872 H         1 UNK         0.0600 
    239 H239        1.0181  -22.3971  -57.9939 H         1 UNK         0.0600 
    240 H240       -1.1260  -20.4055  -55.6870 H         1 UNK         0.3000 
    241 H241        0.7697  -18.2899  -55.8159 H         1 UNK         0.0600 
    242 H242       -2.7740  -16.5086  -56.9541 H         1 UNK         0.3800 
    243 H243       -2.8390  -18.1593  -56.3903 H         1 UNK         0.3800 
    244 H244       -1.5297  -18.6744  -53.8543 H         1 UNK         0.0800 
    245 H245       -0.2221  -17.5328  -53.6420 H         1 UNK         0.0800 
    246 H246       -1.4745  -20.3262  -52.0523 H         1 UNK         0.0800 
    247 H247       -0.0568  -21.0340  -51.3303 H         1 UNK         0.0800 
@<TRIPOS>BOND
     1    1    2 1    
     2    1  127 1    
     3    1  128 1    
     4    1  129 1    
     5    2    3 2    
     6    2    4 am   BACKBONE|DICT|INTERRES
     7    4    5 1    
     8    4  130 1    
     9    5    6 1    
    10    5   65 1    
    11    5  131 1    
    12    6    7 1    
    13    6  132 1    
    14    6  133 1    
    15    7    8 1    
    16    8    9 1    
    17    8  134 1    
    18    8  135 1    
    19    9   10 ar   
    20    9   14 ar   
    21   10   11 ar   
    22   10  136 1    
    23   11   12 ar   
    24   11  126 1    
    25   12   13 ar   
    26   12  137 1    
    27   13   14 ar   
    28   13   15 1    
    29   14  138 1    
    30   15   16 1    
    31   15  139 1    
    32   15  140 1    
    33   16   17 1    
    34   17   18 1    
    35   17  141 1    
    36   17  142 1    
    37   18   19 1    
    38   18   67 1    
    39   18  143 1    
    40   19   20 am   BACKBONE|DICT|INTERRES
    41   19  144 1    
    42   20   21 2    
    43   20   22 1    
    44   22   23 1    
    45   22   24 1    
    46   22  145 1    
    47   23  146 1    
    48   23  147 1    
    49   23  148 1    
    50   24   25 am   BACKBONE|DICT|INTERRES
    51   24  149 1    
    52   25   26 2    
    53   25   27 1    
    54   27   28 1    
    55   27   29 1    
    56   27  150 1    
    57   28  151 1    
    58   28  152 1    
    59   28  153 1    
    60   29   30 am   BACKBONE|DICT|INTERRES
    61   29  154 1    
    62   30   31 2    
    63   30   32 1    
    64   32   33 1    
    65   32   34 1    
    66   32  155 1    
    67   33  156 1    
    68   33  157 1    
    69   33  158 1    
    70   34   35 am   BACKBONE|DICT|INTERRES
    71   34  159 1    
    72   35   36 2    
    73   35   37 1    
    74   37   38 1    
    75   37   39 1    
    76   37  160 1    
    77   38  161 1    
    78   38  162 1    
    79   38  163 1    
    80   39   40 am   BACKBONE|DICT|INTERRES
    81   39  164 1    
    82   40   41 2    
    83   40   42 1    
    84   42   43 1    
    85   42   44 1    
    86   42  165 1    
    87   43  166 1    
    88   43  167 1    
    89   43  168 1    
    90   44   45 am   BACKBONE|DICT|INTERRES
    91   44  169 1    
    92   45   46 2    
    93   45   47 1    
    94   47   48 1    
    95   47   49 1    
    96   47  170 1    
    97   48  171 1    
    98   48  172 1    
    99   48  173 1    
   100   49   50 am   BACKBONE|DICT|INTERRES
   101   49  174 1    
   102   50   51 2    
   103   50   52 1    
   104   52   53 1    
   105   52   54 1    
   106   52  175 1    
   107   53  176 1    
   108   53  177 1    
   109   53  178 1    
   110   54   55 am   BACKBONE|DICT|INTERRES
   111   54  179 1    
   112   55   56 2    
   113   55   57 1    
   114   57   58 1    
   115   57   59 1    
   116   57  180 1    
   117   58  181 1    
   118   58  182 1    
   119   58  183 1    
   120   59   60 am   BACKBONE|DICT|INTERRES
   121   59  184 1    
   122   60   61 2    
   123   60   62 1    
   124   62   63 1    
   125   62   64 1    
   126   62  185 1    
   127   63  186 1    
   128   63  187 1    
   129   63  188 1    
   130   64   65 am   BACKBONE|DICT|INTERRES
   131   64  189 1    
   132   65   66 2    
   133   67   68 2    
   134   67   69 am   BACKBONE|DICT|INTERRES
   135   69   70 1    
   136   69  190 1    
   137   70   71 1    
   138   70   72 1    
   139   70  191 1    
   140   71  192 1    
   141   71  193 1    
   142   71  194 1    
   143   72   73 2    
   144   72   74 am   BACKBONE|DICT|INTERRES
   145   74   75 1    
   146   74  195 1    
   147   75   76 1    
   148   75   77 1    
   149   75  196 1    
   150   76  197 1    
   151   76  198 1    
   152   76  199 1    
   153   77   78 2    
   154   77   79 am   BACKBONE|DICT|INTERRES
   155   79   80 1    
   156   79  200 1    
   157   80   81 1    
   158   80   82 1    
   159   80  201 1    
   160   81  202 1    
   161   81  203 1    
   162   81  204 1    
   163   82   83 2    
   164   82   84 am   BACKBONE|DICT|INTERRES
   165   84   85 1    
   166   84  205 1    
   167   85   86 1    
   168   85   87 1    
   169   85  206 1    
   170   86  207 1    
   171   86  208 1    
   172   86  209 1    
   173   87   88 2    
   174   87   89 am   BACKBONE|DICT|INTERRES
   175   89   90 1    
   176   89  210 1    
   177   90   91 1    
   178   90   92 1    
   179   90  211 1    
   180   91  212 1    
   181   91  213 1    
   182   91  214 1    
   183   92   93 2    
   184   92   94 am   BACKBONE|DICT|INTERRES
   185   94   95 1    
   186   94  215 1    
   187   95   96 1    
   188   95   97 1    
   189   95  216 1    
   190   96  217 1    
   191   96  218 1    
   192   96  219 1    
   193   97   98 2    
   194   97   99 am   BACKBONE|DICT|INTERRES
   195   99  100 1    
   196   99  220 1    
   197  100  101 1    
   198  100  102 1    
   199  100  221 1    
   200  101  222 1    
   201  101  223 1    
   202  101  224 1    
   203  102  103 2    
   204  102  104 am   BACKBONE|DICT|INTERRES
   205  104  105 1    
   206  104  225 1    
   207  105  106 1    
   208  105  107 1    
   209  105  226 1    
   210  106  227 1    
   211  106  228 1    
   212  106  229 1    
   213  107  108 2    
   214  107  109 am   BACKBONE|DICT|INTERRES
   215  109  110 1    
   216  109  230 1    
   217  110  111 1    
   218  110  112 1    
   219  110  231 1    
   220  111  232 1    
   221  111  233 1    
   222  111  234 1    
   223  112  113 2    
   224  112  114 am   BACKBONE|DICT|INTERRES
   225  114  115 1    
   226  114  235 1    
   227  115  116 1    
   228  115  117 1    
   229  115  236 1    
   230  116  237 1    
   231  116  238 1    
   232  116  239 1    
   233  117  118 2    
   234  117  119 am   BACKBONE|DICT|INTERRES
   235  119  120 1    
   236  119  240 1    
   237  120  121 1    
   238  120  124 1    
   239  120  241 1    
   240  121  122 am   BACKBONE|DICT|INTERRES
   241  121  123 2    
   242  122  242 1    
   243  122  243 1    
   244  124  125 1    
   245  124  244 1    
   246  124  245 1    
   247  125  126 1    
   248  126  246 1    
   249  126  247 1    
@<TRIPOS>SUBSTRUCTURE
     1 UNK         1 GROUP             0       ****    0 ROOT    
