@<TRIPOS>MOLECULE
3R540
247   249    1
SMALL
USER_CHARGES


@<TRIPOS>ATOM
      1 CA         -3.7321  -12.7644  -47.5123 C.3       0 UNK        -0.1800 
      2 C          -2.6471  -12.9326  -48.5671 C.2       0 UNK         0.5000 
      3 O          -2.8871  -12.6489  -49.7409 O.2       0 UNK        -0.5000 
      4 N          -1.4624  -13.3857  -48.1467 N.am      1 UNK        -0.5000 
      5 CA         -0.2657  -13.5696  -48.9730 C.3       1 UNK         0.1400 
      6 C6          0.0361  -15.0678  -49.2433 C.3       23 UNK        -0.0398 
      7 S7         -1.2620  -15.8467  -50.2657 S.3       23 UNK        -0.2404 
      8 C8         -1.3543  -17.5223  -49.5661 C.3       23 UNK        -0.0205 
      9 C9         -0.2344  -18.4046  -50.0921 C.ar      23 UNK        -0.0193 
     10 C10        -0.3961  -19.0945  -51.2964 C.ar      23 UNK        -0.1150 
     11 C11         0.6331  -19.8920  -51.8043 C.ar      23 UNK        -0.0193 
     12 C12         1.8274  -20.0079  -51.0904 C.ar      23 UNK        -0.1150 
     13 C13         1.9982  -19.3289  -49.8809 C.ar      23 UNK        -0.0193 
     14 C14         0.9651  -18.5260  -49.3867 C.ar      23 UNK        -0.1150 
     15 C15         3.3083  -19.4574  -49.1221 C.3       23 UNK        -0.0205 
     16 S16         3.3880  -21.0110  -48.1804 S.3       23 UNK        -0.2404 
     17 C17         2.2419  -20.6523  -46.8097 C.3       23 UNK        -0.0398 
     18 CA          1.2938  -21.8255  -46.4761 C.3       11 UNK         0.1400 
     19 N           0.7734  -21.7004  -45.1151 N.am      11 UNK        -0.5000 
     20 C           0.1631  -22.6765  -44.4337 C.2       10 UNK         0.5000 
     21 O          -0.0096  -23.8114  -44.8764 O.2       10 UNK        -0.5000 
     22 CA         -0.3776  -22.3086  -43.0400 C.3       10 UNK         0.1400 
     23 CB          0.7471  -22.3322  -41.9944 C.3       10 UNK        -0.1800 
     24 N          -1.0415  -21.0033  -43.0204 N.am      10 UNK        -0.5000 
     25 C          -2.1613  -20.7194  -43.7009 C.2       9 UNK         0.5000 
     26 O          -2.7674  -21.5419  -44.3871 O.2       9 UNK        -0.5000 
     27 CA         -2.6693  -19.2675  -43.6408 C.3       9 UNK         0.1400 
     28 CB         -3.4091  -19.0014  -42.3216 C.3       9 UNK        -0.1800 
     29 N          -1.6010  -18.2831  -43.8188 N.am      9 UNK        -0.5000 
     30 C          -0.8680  -18.1542  -44.9349 C.2       8 UNK         0.5000 
     31 O          -1.0337  -18.8304  -45.9478 O.2       8 UNK        -0.5000 
     32 CA          0.2839  -17.1381  -44.8998 C.3       8 UNK         0.1400 
     33 CB         -0.2443  -15.7070  -45.0898 C.3       8 UNK        -0.1800 
     34 N           1.0572  -17.2239  -43.6632 N.am      8 UNK        -0.5000 
     35 C           1.7250  -18.3055  -43.2403 C.2       7 UNK         0.5000 
     36 O           1.8056  -19.3537  -43.8773 O.2       7 UNK        -0.5000 
     37 CA          2.3607  -18.2213  -41.8440 C.3       7 UNK         0.1400 
     38 CB          3.6821  -17.4387  -41.8815 C.3       7 UNK        -0.1800 
     39 N           1.4536  -17.6171  -40.8691 N.am      7 UNK        -0.5000 
     40 C           0.3292  -18.1924  -40.4210 C.2       6 UNK         0.5000 
     41 O          -0.0546  -19.3089  -40.7698 O.2       6 UNK        -0.5000 
     42 CA         -0.5221  -17.3674  -39.4387 C.3       6 UNK         0.1400 
     43 CB          0.0046  -17.5218  -38.0042 C.3       6 UNK        -0.1800 
     44 N          -0.5700  -15.9464  -39.7880 N.am      6 UNK        -0.5000 
     45 C          -1.2045  -15.4598  -40.8631 C.2       5 UNK         0.5000 
     46 O          -1.8235  -16.1577  -41.6670 O.2       5 UNK        -0.5000 
     47 CA         -1.0831  -13.9424  -41.1074 C.3       5 UNK         0.1400 
     48 CB         -2.0568  -13.1687  -40.2055 C.3       5 UNK        -0.1800 
     49 N           0.2727  -13.3996  -40.9428 N.am      5 UNK        -0.5000 
     50 C           1.3564  -13.8536  -41.5858 C.2       4 UNK         0.5000 
     51 O           1.3580  -14.8747  -42.2727 O.2       4 UNK        -0.5000 
     52 CA          2.6670  -13.0566  -41.4364 C.3       4 UNK         0.1400 
     53 CB          3.4408  -13.5312  -40.1971 C.3       4 UNK        -0.1800 
     54 N           3.5129  -13.2324  -42.6222 N.am      4 UNK        -0.5000 
     55 C           3.1776  -12.8052  -43.8471 C.2       3 UNK         0.5000 
     56 O           2.2427  -12.0263  -44.0595 O.2       3 UNK        -0.5000 
     57 CA          3.9994  -13.3591  -45.0255 C.3       3 UNK         0.1400 
     58 CB          3.9666  -14.9015  -45.0734 C.3       3 UNK        -0.1800 
     59 N           3.4481  -12.8114  -46.2597 N.am      3 UNK        -0.5000 
     60 C           4.0448  -12.7292  -47.4496 C.2       2 UNK         0.5000 
     61 O           5.1654  -13.1870  -47.6820 O.2       2 UNK        -0.5000 
     62 CA          3.2467  -12.0061  -48.5589 C.3       2 UNK         0.1400 
     63 CB          4.1028  -11.7182  -49.8059 C.3       2 UNK        -0.1800 
     64 N           2.0419  -12.7289  -48.9807 N.am      2 UNK        -0.5000 
     65 C           0.9109  -12.8587  -48.2736 C.2       1 UNK         0.5000 
     66 O           0.7716  -12.4199  -47.1280 O.2       1 UNK        -0.5000 
     67 C           0.1601  -22.0135  -47.5107 C.2       11 UNK         0.5000 
     68 O           0.2933  -22.8476  -48.4059 O.2       11 UNK        -0.5000 
     69 N          -0.9668  -21.3066  -47.3315 N.am      12 UNK        -0.5000 
     70 CA         -2.1878  -21.4915  -48.1173 C.3       12 UNK         0.1400 
     71 CB         -3.2098  -20.3957  -47.7810 C.3       12 UNK        -0.1800 
     72 C          -2.8131  -22.8821  -47.9136 C.2       12 UNK         0.5000 
     73 O          -3.2259  -23.5042  -48.8906 O.2       12 UNK        -0.5000 
     74 N          -2.8470  -23.3636  -46.6626 N.am      13 UNK        -0.5000 
     75 CA         -3.3109  -24.7063  -46.3052 C.3       13 UNK         0.1400 
     76 CB         -3.4214  -24.8339  -44.7792 C.3       13 UNK        -0.1800 
     77 C          -2.4206  -25.8173  -46.8928 C.2       13 UNK         0.5000 
     78 O          -2.9470  -26.8184  -47.3788 O.2       13 UNK        -0.5000 
     79 N          -1.0971  -25.5995  -46.9013 N.am      14 UNK        -0.5000 
     80 CA         -0.1133  -26.4616  -47.5651 C.3       14 UNK         0.1400 
     81 CB          1.3057  -26.0232  -47.1737 C.3       14 UNK        -0.1800 
     82 C          -0.2790  -26.4929  -49.0993 C.2       14 UNK         0.5000 
     83 O          -0.0120  -27.5232  -49.7175 O.2       14 UNK        -0.5000 
     84 N          -0.7785  -25.3906  -49.6747 N.am      15 UNK        -0.5000 
     85 CA         -1.2011  -25.2602  -51.0715 C.3       15 UNK         0.1400 
     86 CB         -1.0064  -23.7992  -51.5181 C.3       15 UNK        -0.1800 
     87 C          -2.6445  -25.7659  -51.3213 C.2       15 UNK         0.5000 
     88 O          -3.2203  -25.4526  -52.3635 O.2       15 UNK        -0.5000 
     89 N          -3.1899  -26.5534  -50.3808 N.am      16 UNK        -0.5000 
     90 CA         -4.4794  -27.2540  -50.3993 C.3       16 UNK         0.1400 
     91 CB         -4.6322  -28.1448  -51.6513 C.3       16 UNK        -0.1800 
     92 C          -5.7082  -26.3591  -50.1365 C.2       16 UNK         0.5000 
     93 O          -6.8291  -26.7886  -50.4166 O.2       16 UNK        -0.5000 
     94 N          -5.4843  -25.1714  -49.5539 N.am      17 UNK        -0.5000 
     95 CA         -6.4605  -24.1489  -49.1564 C.3       17 UNK         0.1400 
     96 CB         -7.5085  -24.7168  -48.1773 C.3       17 UNK        -0.1800 
     97 C          -7.1176  -23.4202  -50.3460 C.2       17 UNK         0.5000 
     98 O          -7.0659  -23.8891  -51.4849 O.2       17 UNK        -0.5000 
     99 N          -7.6998  -22.2460  -50.0491 N.am      18 UNK        -0.5000 
    100 CA        -8.3075  -21.2961  -50.9962 C.3       18 UNK         0.1400 
    101 CB        -9.6072  -21.8751  -51.5927 C.3       18 UNK        -0.1800 
    102 C         -7.3131  -20.8114  -52.0763 C.2       18 UNK         0.5000 
    103 O         -7.6921  -20.5875  -53.2276 O.2       18 UNK        -0.5000 
    104 N         -6.0415  -20.6784  -51.6777 N.am      19 UNK        -0.5000 
    105 CA        -4.8775  -20.4578  -52.5336 C.3       19 UNK         0.1400 
    106 CB        -3.6365  -20.9734  -51.7829 C.3       19 UNK        -0.1800 
    107 C         -4.7255  -18.9955  -53.0029 C.2       19 UNK         0.5000 
    108 O         -3.6330  -18.4324  -52.9160 O.2       19 UNK        -0.5000 
    109 N         -5.8151  -18.4056  -53.5108 N.am      20 UNK        -0.5000 
    110 CA        -5.8655  -17.0699  -54.1070 C.3       20 UNK         0.1400 
    111 CB        -7.3215  -16.7339  -54.4664 C.3       20 UNK        -0.1800 
    112 C         -4.9483  -16.9952  -55.3412 C.2       20 UNK         0.5000 
    113 O         -5.2323  -17.6466  -56.3496 O.2       20 UNK        -0.5000 
    114 N         -3.8185  -16.2861  -55.1957 N.am      21 UNK        -0.5000 
    115 CA        -2.6912  -16.2175  -56.1386 C.3       21 UNK         0.1400 
    116 CB        -3.0944  -15.4354  -57.4060 C.3       21 UNK        -0.1800 
    117 C         -2.0792  -17.6026  -56.4613 C.2       21 UNK         0.5000 
    118 O         -1.5343  -17.7991  -57.5489 O.2       21 UNK        -0.5000 
    119 N         -2.2131  -18.5418  -55.5146 N.am      22 UNK        -0.5000 
    120 CA        -1.8870  -19.9719  -55.6348 C.3       22 UNK         0.1400 
    121 C         -2.7711  -20.7564  -56.6533 C.2       22 UNK         0.5000 
    122 N         -3.9173  -20.2383  -57.0821 N.am      22 UNK        -0.7600 
    123 O         -2.4347  -21.8725  -57.0388 O.2       22 UNK        -0.5000 
    124 C124       -0.3667  -20.2590  -55.8012 C.3       23 UNK        -0.0398 
    125 S125        0.6519  -19.4522  -54.5195 S.3       23 UNK        -0.2404 
    126 C126        0.4539  -20.6108  -53.1305 C.3       23 UNK        -0.0205 
    127 H127       -4.0532  -11.7237  -47.4663 H         1 UNK         0.0600 
    128 H128       -3.3837  -13.0571  -46.5214 H         1 UNK         0.0600 
    129 H129       -4.5968  -13.3787  -47.7630 H         1 UNK         0.0600 
    130 H130       -1.2977  -13.4977  -47.1557 H         1 UNK         0.3000 
    131 H131       -0.3974  -13.0639  -49.9321 H         1 UNK         0.0600 
    132 H132        0.9812  -15.1913  -49.7744 H         1 UNK         0.0800 
    133 H133        0.1415  -15.6086  -48.3020 H         1 UNK         0.0800 
    134 H134       -1.3384  -17.4806  -48.4758 H         1 UNK         0.0800 
    135 H135       -2.3166  -17.9561  -49.8423 H         1 UNK         0.0800 
    136 H136       -1.3163  -18.9908  -51.8529 H         1 UNK         0.1150 
    137 H137        2.6278  -20.6235  -51.4762 H         1 UNK         0.1150 
    138 H138        1.0937  -17.9904  -48.4573 H         1 UNK         0.1150 
    139 H139        4.1393  -19.4312  -49.8286 H         1 UNK         0.0800 
    140 H140        3.4547  -18.6103  -48.4500 H         1 UNK         0.0800 
    141 H141        1.6763  -19.7379  -46.9861 H         1 UNK         0.0800 
    142 H142        2.8791  -20.4412  -45.9507 H         1 UNK         0.0800 
    143 H143        1.8895  -22.7408  -46.4906 H         1 UNK         0.0600 
    144 H144        0.9206  -20.8037  -44.6576 H         1 UNK         0.3000 
    145 H145       -1.1154  -23.0636  -42.7610 H         1 UNK         0.0600 
    146 H146        0.3559  -22.1557  -40.9923 H         1 UNK         0.0600 
    147 H147        1.2495  -23.3001  -41.9823 H         1 UNK         0.0600 
    148 H148        1.5018  -21.5715  -42.1962 H         1 UNK         0.0600 
    149 H149       -0.6181  -20.2842  -42.4422 H         1 UNK         0.3000 
    150 H150       -3.3806  -19.1341  -44.4585 H         1 UNK         0.0600 
    151 H151       -4.2140  -19.7221  -42.1721 H         1 UNK         0.0600 
    152 H152       -3.8576  -18.0078  -42.3161 H         1 UNK         0.0600 
    153 H153       -2.7412  -19.0707  -41.4627 H         1 UNK         0.0600 
    154 H154       -1.4226  -17.6597  -43.0385 H         1 UNK         0.3000 
    155 H155        0.9562  -17.3673  -45.7290 H         1 UNK         0.0600 
    156 H156       -0.8733  -15.3974  -44.2545 H         1 UNK         0.0600 
    157 H157       -0.8428  -15.6284  -45.9978 H         1 UNK         0.0600 
    158 H158        0.5710  -14.9883  -45.1732 H         1 UNK         0.0600 
    159 H159        1.0754  -16.3864  -43.0808 H         1 UNK         0.3000 
    160 H160        2.5809  -19.2398  -41.5170 H         1 UNK         0.0600 
    161 H161        3.5308  -16.4006  -42.1752 H         1 UNK         0.0600 
    162 H162        4.3773  -17.8827  -42.5951 H         1 UNK         0.0600 
    163 H163        4.1697  -17.4428  -40.9067 H         1 UNK         0.0600 
    164 H164        1.6533  -16.6677  -40.5919 H         1 UNK         0.3000 
    165 H165       -1.5403  -17.7615  -39.4707 H         1 UNK         0.0600 
    166 H166       -0.6377  -17.0052  -37.2908 H         1 UNK         0.0600 
    167 H167        0.0350  -18.5722  -37.7112 H         1 UNK         0.0600 
    168 H168        1.0140  -17.1221  -37.8987 H         1 UNK         0.0600 
    169 H169       -0.0741  -15.3054  -39.1863 H         1 UNK         0.3000 
    170 H170       -1.3733  -13.7632  -42.1448 H         1 UNK         0.0600 
    171 H171       -3.0753  -13.5430  -40.3178 H         1 UNK         0.0600 
    172 H172       -1.7884  -13.2576  -39.1521 H         1 UNK         0.0600 
    173 H173       -2.0728  -12.1087  -40.4598 H         1 UNK         0.0600 
    174 H174        0.3546  -12.5660  -40.3789 H         1 UNK         0.3000 
    175 H175        2.4291  -11.9965  -41.3278 H         1 UNK         0.0600 
    176 H176        3.6978  -14.5893  -40.2616 H         1 UNK         0.0600 
    177 H177        4.3661  -12.9686  -40.0711 H         1 UNK         0.0600 
    178 H178        2.8516  -13.3915  -39.2899 H         1 UNK         0.0600 
    179 H179        4.2829  -13.8772  -42.5270 H         1 UNK         0.3000 
    180 H180        5.0292  -13.0150  -44.9124 H         1 UNK         0.0600 
    181 H181        2.9453  -15.2805  -45.1080 H         1 UNK         0.0600 
    182 H182        4.4482  -15.3358  -44.1976 H         1 UNK         0.0600 
    183 H183        4.4934  -15.2868  -45.9462 H         1 UNK         0.0600 
    184 H184        2.5112  -12.4251  -46.1582 H         1 UNK         0.3000 
    185 H185        2.9370  -11.0424  -48.1487 H         1 UNK         0.0600 
    186 H186        4.9983  -11.1530  -49.5442 H         1 UNK         0.0600 
    187 H187        4.4254  -12.6380  -50.2953 H         1 UNK         0.0600 
    188 H188        3.5505  -11.1256  -50.5356 H         1 UNK         0.0600 
    189 H189        2.0816  -13.1279  -49.9074 H         1 UNK         0.3000 
    190 H190       -0.9956  -20.5865  -46.6143 H         1 UNK         0.3000 
    191 H191       -1.9187  -21.3939  -49.1708 H         1 UNK         0.0600 
    192 H192       -2.8020  -19.4041  -47.9658 H         1 UNK         0.0600 
    193 H193       -4.1076  -20.4976  -48.3915 H         1 UNK         0.0600 
    194 H194       -3.5171  -20.4361  -46.7362 H         1 UNK         0.0600 
    195 H195       -2.5493  -22.7647  -45.8977 H         1 UNK         0.3000 
    196 H196       -4.3116  -24.8322  -46.7237 H         1 UNK         0.0600 
    197 H197       -3.8005  -25.8168  -44.4967 H         1 UNK         0.0600 
    198 H198       -4.1070  -24.0911  -44.3710 H         1 UNK         0.0600 
    199 H199       -2.4567  -24.7017  -44.2902 H         1 UNK         0.0600 
    200 H200       -0.7358  -24.7832  -46.4162 H         1 UNK         0.3000 
    201 H201       -0.2650  -27.4788  -47.1981 H         1 UNK         0.0600 
    202 H202        1.4396  -26.0385  -46.0919 H         1 UNK         0.0600 
    203 H203        1.5292  -25.0163  -47.5243 H         1 UNK         0.0600 
    204 H204        2.0520  -26.6920  -47.6041 H         1 UNK         0.0600 
    205 H205       -0.9240  -24.5744  -49.0925 H         1 UNK         0.3000 
    206 H206       -0.5476  -25.8782  -51.6901 H         1 UNK         0.0600 
    207 H207        0.0260  -23.4787  -51.3765 H         1 UNK         0.0600 
    208 H208       -1.2422  -23.6720  -52.5751 H         1 UNK         0.0600 
    209 H209       -1.6419  -23.1173  -50.9560 H         1 UNK         0.0600 
    210 H210       -2.6568  -26.6974  -49.5323 H         1 UNK         0.3000 
    211 H211       -4.4386  -27.9285  -49.5430 H         1 UNK         0.0600 
    212 H212       -4.7914  -27.5539  -52.5534 H         1 UNK         0.0600 
    213 H213       -5.4858  -28.8160  -51.5510 H         1 UNK         0.0600 
    214 H214       -3.7503  -28.7666  -51.8052 H         1 UNK         0.0600 
    215 H215       -4.5174  -24.8895  -49.4213 H         1 UNK         0.3000 
    216 H216       -5.8841  -23.3991  -48.6136 H         1 UNK         0.0600 
    217 H217       -8.1108  -23.9191  -47.7417 H         1 UNK         0.0600 
    218 H218       -7.0317  -25.2469  -47.3527 H         1 UNK         0.0600 
    219 H219       -8.1963  -25.4059  -48.6677 H         1 UNK         0.0600 
    220 H220       -7.6984  -21.9450  -49.0843 H         1 UNK         0.3000 
    221 H221       -8.5776  -20.4121  -50.4169 H         1 UNK         0.0600 
    222 H222       -9.4108  -22.7310  -52.2389 H         1 UNK         0.0600 
    223 H223      -10.2913  -22.1977  -50.8079 H         1 UNK         0.0600 
    224 H224      -10.1303  -21.1279  -52.1906 H         1 UNK         0.0600 
    225 H225       -5.8415  -20.8469  -50.7038 H         1 UNK         0.3000 
    226 H226       -4.9949  -21.0661  -53.4330 H         1 UNK         0.0600 
    227 H227       -3.7715  -22.0060  -51.4589 H         1 UNK         0.0600 
    228 H228       -2.7544  -20.9517  -52.4203 H         1 UNK         0.0600 
    229 H229       -3.4204  -20.3691  -50.9016 H         1 UNK         0.0600 
    230 H230       -6.6578  -18.9682  -53.5748 H         1 UNK         0.3000 
    231 H231       -5.5232  -16.3502  -53.3606 H         1 UNK         0.0600 
    232 H232       -7.3931  -15.7434  -54.9174 H         1 UNK         0.0600 
    233 H233       -7.9561  -16.7349  -53.5800 H         1 UNK         0.0600 
    234 H234       -7.7379  -17.4499  -55.1763 H         1 UNK         0.0600 
    235 H235       -3.6576  -15.8359  -54.3050 H         1 UNK         0.3000 
    236 H236       -1.9053  -15.6518  -55.6362 H         1 UNK         0.0600 
    237 H237       -3.5154  -14.4627  -57.1517 H         1 UNK         0.0600 
    238 H238       -2.2308  -15.2553  -58.0472 H         1 UNK         0.0600 
    239 H239       -3.8333  -15.9767  -57.9976 H         1 UNK         0.0600 
    240 H240       -2.6643  -18.2801  -54.6437 H         1 UNK         0.3000 
    241 H241       -2.1805  -20.3939  -54.6752 H         1 UNK         0.0600 
    242 H242       -4.4786  -20.7647  -57.7324 H         1 UNK         0.3800 
    243 H243       -4.2302  -19.3185  -56.7888 H         1 UNK         0.3800 
    244 H244       -0.1684  -21.3317  -55.7705 H         1 UNK         0.0800 
    245 H245       -0.0216  -19.9168  -56.7777 H         1 UNK         0.0800 
    246 H246        1.1740  -21.4240  -53.2334 H         1 UNK         0.0800 
    247 H247       -0.5321  -21.0727  -53.1542 H         1 UNK         0.0800 
@<TRIPOS>BOND
     1    1    2 1    
     2    1  127 1    
     3    1  128 1    
     4    1  129 1    
     5    2    3 2    
     6    2    4 am   BACKBONE|DICT|INTERRES
     7    4    5 1    
     8    4  130 1    
     9    5    6 1    
    10    5   65 1    
    11    5  131 1    
    12    6    7 1    
    13    6  132 1    
    14    6  133 1    
    15    7    8 1    
    16    8    9 1    
    17    8  134 1    
    18    8  135 1    
    19    9   10 ar   
    20    9   14 ar   
    21   10   11 ar   
    22   10  136 1    
    23   11   12 ar   
    24   11  126 1    
    25   12   13 ar   
    26   12  137 1    
    27   13   14 ar   
    28   13   15 1    
    29   14  138 1    
    30   15   16 1    
    31   15  139 1    
    32   15  140 1    
    33   16   17 1    
    34   17   18 1    
    35   17  141 1    
    36   17  142 1    
    37   18   19 1    
    38   18   67 1    
    39   18  143 1    
    40   19   20 am   BACKBONE|DICT|INTERRES
    41   19  144 1    
    42   20   21 2    
    43   20   22 1    
    44   22   23 1    
    45   22   24 1    
    46   22  145 1    
    47   23  146 1    
    48   23  147 1    
    49   23  148 1    
    50   24   25 am   BACKBONE|DICT|INTERRES
    51   24  149 1    
    52   25   26 2    
    53   25   27 1    
    54   27   28 1    
    55   27   29 1    
    56   27  150 1    
    57   28  151 1    
    58   28  152 1    
    59   28  153 1    
    60   29   30 am   BACKBONE|DICT|INTERRES
    61   29  154 1    
    62   30   31 2    
    63   30   32 1    
    64   32   33 1    
    65   32   34 1    
    66   32  155 1    
    67   33  156 1    
    68   33  157 1    
    69   33  158 1    
    70   34   35 am   BACKBONE|DICT|INTERRES
    71   34  159 1    
    72   35   36 2    
    73   35   37 1    
    74   37   38 1    
    75   37   39 1    
    76   37  160 1    
    77   38  161 1    
    78   38  162 1    
    79   38  163 1    
    80   39   40 am   BACKBONE|DICT|INTERRES
    81   39  164 1    
    82   40   41 2    
    83   40   42 1    
    84   42   43 1    
    85   42   44 1    
    86   42  165 1    
    87   43  166 1    
    88   43  167 1    
    89   43  168 1    
    90   44   45 am   BACKBONE|DICT|INTERRES
    91   44  169 1    
    92   45   46 2    
    93   45   47 1    
    94   47   48 1    
    95   47   49 1    
    96   47  170 1    
    97   48  171 1    
    98   48  172 1    
    99   48  173 1    
   100   49   50 am   BACKBONE|DICT|INTERRES
   101   49  174 1    
   102   50   51 2    
   103   50   52 1    
   104   52   53 1    
   105   52   54 1    
   106   52  175 1    
   107   53  176 1    
   108   53  177 1    
   109   53  178 1    
   110   54   55 am   BACKBONE|DICT|INTERRES
   111   54  179 1    
   112   55   56 2    
   113   55   57 1    
   114   57   58 1    
   115   57   59 1    
   116   57  180 1    
   117   58  181 1    
   118   58  182 1    
   119   58  183 1    
   120   59   60 am   BACKBONE|DICT|INTERRES
   121   59  184 1    
   122   60   61 2    
   123   60   62 1    
   124   62   63 1    
   125   62   64 1    
   126   62  185 1    
   127   63  186 1    
   128   63  187 1    
   129   63  188 1    
   130   64   65 am   BACKBONE|DICT|INTERRES
   131   64  189 1    
   132   65   66 2    
   133   67   68 2    
   134   67   69 am   BACKBONE|DICT|INTERRES
   135   69   70 1    
   136   69  190 1    
   137   70   71 1    
   138   70   72 1    
   139   70  191 1    
   140   71  192 1    
   141   71  193 1    
   142   71  194 1    
   143   72   73 2    
   144   72   74 am   BACKBONE|DICT|INTERRES
   145   74   75 1    
   146   74  195 1    
   147   75   76 1    
   148   75   77 1    
   149   75  196 1    
   150   76  197 1    
   151   76  198 1    
   152   76  199 1    
   153   77   78 2    
   154   77   79 am   BACKBONE|DICT|INTERRES
   155   79   80 1    
   156   79  200 1    
   157   80   81 1    
   158   80   82 1    
   159   80  201 1    
   160   81  202 1    
   161   81  203 1    
   162   81  204 1    
   163   82   83 2    
   164   82   84 am   BACKBONE|DICT|INTERRES
   165   84   85 1    
   166   84  205 1    
   167   85   86 1    
   168   85   87 1    
   169   85  206 1    
   170   86  207 1    
   171   86  208 1    
   172   86  209 1    
   173   87   88 2    
   174   87   89 am   BACKBONE|DICT|INTERRES
   175   89   90 1    
   176   89  210 1    
   177   90   91 1    
   178   90   92 1    
   179   90  211 1    
   180   91  212 1    
   181   91  213 1    
   182   91  214 1    
   183   92   93 2    
   184   92   94 am   BACKBONE|DICT|INTERRES
   185   94   95 1    
   186   94  215 1    
   187   95   96 1    
   188   95   97 1    
   189   95  216 1    
   190   96  217 1    
   191   96  218 1    
   192   96  219 1    
   193   97   98 2    
   194   97   99 am   BACKBONE|DICT|INTERRES
   195   99  100 1    
   196   99  220 1    
   197  100  101 1    
   198  100  102 1    
   199  100  221 1    
   200  101  222 1    
   201  101  223 1    
   202  101  224 1    
   203  102  103 2    
   204  102  104 am   BACKBONE|DICT|INTERRES
   205  104  105 1    
   206  104  225 1    
   207  105  106 1    
   208  105  107 1    
   209  105  226 1    
   210  106  227 1    
   211  106  228 1    
   212  106  229 1    
   213  107  108 2    
   214  107  109 am   BACKBONE|DICT|INTERRES
   215  109  110 1    
   216  109  230 1    
   217  110  111 1    
   218  110  112 1    
   219  110  231 1    
   220  111  232 1    
   221  111  233 1    
   222  111  234 1    
   223  112  113 2    
   224  112  114 am   BACKBONE|DICT|INTERRES
   225  114  115 1    
   226  114  235 1    
   227  115  116 1    
   228  115  117 1    
   229  115  236 1    
   230  116  237 1    
   231  116  238 1    
   232  116  239 1    
   233  117  118 2    
   234  117  119 am   BACKBONE|DICT|INTERRES
   235  119  120 1    
   236  119  240 1    
   237  120  121 1    
   238  120  124 1    
   239  120  241 1    
   240  121  122 am   BACKBONE|DICT|INTERRES
   241  121  123 2    
   242  122  242 1    
   243  122  243 1    
   244  124  125 1    
   245  124  244 1    
   246  124  245 1    
   247  125  126 1    
   248  126  246 1    
   249  126  247 1    
@<TRIPOS>SUBSTRUCTURE
     1 UNK         1 GROUP             0       ****    0 ROOT    
