@<TRIPOS>MOLECULE
3R540
247   249    1
SMALL
USER_CHARGES


@<TRIPOS>ATOM
      1 CA          6.5878  -13.2920  -48.9372 C.3       0 UNK        -0.1800 
      2 C           5.5089  -13.5277  -49.9847 C.2       0 UNK         0.5000 
      3 O           5.3148  -12.6844  -50.8602 O.2       0 UNK        -0.5000 
      4 N           4.8108  -14.6678  -49.8920 N.am      1 UNK        -0.5000 
      5 CA          3.7316  -15.1071  -50.7899 C.3       1 UNK         0.1400 
      6 C6          4.2213  -15.4458  -52.2282 C.3       23 UNK        -0.0398 
      7 S7          5.2379  -16.9655  -52.2407 S.3       23 UNK        -0.2404 
      8 C8          4.0324  -18.2321  -52.7745 C.3       23 UNK        -0.0205 
      9 C9          2.7699  -18.2145  -51.9235 C.ar      23 UNK        -0.0193 
     10 C10         1.5990  -17.6376  -52.4228 C.ar      23 UNK        -0.1150 
     11 C11         0.4692  -17.5157  -51.6130 C.ar      23 UNK        -0.0193 
     12 C12         0.5103  -17.9992  -50.3036 C.ar      23 UNK        -0.1150 
     13 C13         1.6619  -18.6058  -49.7932 C.ar      23 UNK        -0.0193 
     14 C14         2.7905  -18.7157  -50.6180 C.ar      23 UNK        -0.1150 
     15 C15         1.6263  -19.0856  -48.3423 C.3       23 UNK        -0.0205 
     16 S16         3.0798  -20.0256  -47.7609 S.3       23 UNK        -0.2404 
     17 C17         2.5464  -20.4926  -46.0776 C.3       23 UNK        -0.0398 
     18 CA          2.0199  -21.9477  -46.0109 C.3       11 UNK         0.1400 
     19 N           2.1908  -22.5526  -44.6898 N.am      11 UNK        -0.5000 
     20 C           2.0710  -23.8668  -44.4461 C.2       10 UNK         0.5000 
     21 O           1.8634  -24.7088  -45.3206 O.2       10 UNK        -0.5000 
     22 CA          2.1298  -24.2962  -42.9686 C.3       10 UNK         0.1400 
     23 CB          3.5829  -24.5125  -42.5224 C.3       10 UNK        -0.1800 
     24 N           1.4912  -23.3179  -42.0857 N.am      10 UNK        -0.5000 
     25 C           0.1912  -23.0011  -42.1084 C.2       9 UNK         0.5000 
     26 O          -0.6257  -23.5602  -42.8404 O.2       9 UNK        -0.5000 
     27 CA         -0.2633  -21.8215  -41.2290 C.3       9 UNK         0.1400 
     28 CB         -0.4507  -22.2462  -39.7612 C.3       9 UNK        -0.1800 
     29 N           0.5845  -20.6267  -41.3502 N.am      9 UNK        -0.5000 
     30 C           1.8459  -20.4290  -40.9359 C.2       8 UNK         0.5000 
     31 O           2.5352  -21.2909  -40.3900 O.2       8 UNK        -0.5000 
     32 CA          2.4460  -19.0367  -41.1976 C.3       8 UNK         0.1400 
     33 CB          3.0846  -18.9837  -42.5940 C.3       8 UNK        -0.1800 
     34 N           1.4314  -17.9879  -41.0928 N.am      8 UNK        -0.5000 
     35 C           1.1158  -17.3464  -39.9585 C.2       7 UNK         0.5000 
     36 O           1.7126  -17.5046  -38.8929 O.2       7 UNK        -0.5000 
     37 CA         -0.0804  -16.3742  -40.0183 C.3       7 UNK         0.1400 
     38 CB          0.3863  -14.9668  -40.4197 C.3       7 UNK        -0.1800 
     39 N          -1.1210  -16.8148  -40.9480 N.am      7 UNK        -0.5000 
     40 C          -1.8863  -17.9033  -40.7758 C.2       6 UNK         0.5000 
     41 O          -1.8716  -18.5931  -39.7566 O.2       6 UNK        -0.5000 
     42 CA         -2.7971  -18.3175  -41.9495 C.3       6 UNK         0.1400 
     43 CB         -4.2454  -17.8779  -41.6898 C.3       6 UNK        -0.1800 
     44 N          -2.3705  -17.7958  -43.2506 N.am      6 UNK        -0.5000 
     45 C          -1.2060  -18.0599  -43.8595 C.2       5 UNK         0.5000 
     46 O          -0.3474  -18.8078  -43.3891 O.2       5 UNK        -0.5000 
     47 CA         -0.9531  -17.3732  -45.2131 C.3       5 UNK         0.1400 
     48 CB         -1.2056  -18.3622  -46.3542 C.3       5 UNK        -0.1800 
     49 N          -1.7791  -16.1892  -45.4476 N.am      5 UNK        -0.5000 
     50 C          -1.7116  -15.0319  -44.7803 C.2       4 UNK         0.5000 
     51 O          -0.9728  -14.8557  -43.8095 O.2       4 UNK        -0.5000 
     52 CA         -2.6259  -13.8961  -45.2952 C.3       4 UNK         0.1400 
     53 CB         -2.3539  -12.5558  -44.5888 C.3       4 UNK        -0.1800 
     54 N          -2.5113  -13.6932  -46.7434 N.am      4 UNK        -0.5000 
     55 C          -3.0388  -14.4686  -47.7025 C.2       3 UNK         0.5000 
     56 O          -3.7217  -15.4667  -47.4712 O.2       3 UNK        -0.5000 
     57 CA         -2.7209  -14.0923  -49.1632 C.3       3 UNK         0.1400 
     58 CB         -3.8587  -13.2487  -49.7573 C.3       3 UNK        -0.1800 
     59 N          -1.4535  -13.3710  -49.3204 N.am      3 UNK        -0.5000 
     60 C          -0.2449  -13.9030  -49.0948 C.2       2 UNK         0.5000 
     61 O          -0.0676  -15.0704  -48.7398 O.2       2 UNK        -0.5000 
     62 CA          0.9554  -12.9493  -49.2379 C.3       2 UNK         0.1400 
     63 CB          1.1666  -12.1611  -47.9352 C.3       2 UNK        -0.1800 
     64 N           2.1776  -13.6901  -49.5388 N.am      2 UNK        -0.5000 
     65 C           2.5000  -14.1727  -50.7461 C.2       1 UNK         0.5000 
     66 O           1.8641  -13.9172  -51.7707 O.2       1 UNK        -0.5000 
     67 C           0.5588  -22.0521  -46.4907 C.2       11 UNK         0.5000 
     68 O           0.3410  -22.3358  -47.6641 O.2       11 UNK        -0.5000 
     69 N          -0.4179  -21.8693  -45.5864 N.am      12 UNK        -0.5000 
     70 CA         -1.8448  -22.0086  -45.8987 C.3       12 UNK         0.1400 
     71 CB         -2.7077  -21.5158  -44.7279 C.3       12 UNK        -0.1800 
     72 C          -2.2258  -23.4476  -46.2801 C.2       12 UNK         0.5000 
     73 O          -3.0293  -23.6353  -47.1920 O.2       12 UNK        -0.5000 
     74 N          -1.6150  -24.4346  -45.6110 N.am      13 UNK        -0.5000 
     75 CA         -1.7454  -25.8516  -45.9481 C.3       13 UNK         0.1400 
     76 CB         -1.0867  -26.7068  -44.8551 C.3       13 UNK        -0.1800 
     77 C          -1.1648  -26.1742  -47.3390 C.2       13 UNK         0.5000 
     78 O          -1.8207  -26.8583  -48.1254 O.2       13 UNK        -0.5000 
     79 N           0.0309  -25.6421  -47.6315 N.am      14 UNK        -0.5000 
     80 CA          0.7139  -25.7872  -48.9195 C.3       14 UNK         0.1400 
     81 CB          2.1550  -25.2700  -48.7914 C.3       14 UNK        -0.1800 
     82 C          -0.0178  -25.0814  -50.0788 C.2       14 UNK         0.5000 
     83 O          -0.1234  -25.6468  -51.1674 O.2       14 UNK        -0.5000 
     84 N          -0.5264  -23.8710  -49.8178 N.am      15 UNK        -0.5000 
     85 CA         -1.2471  -23.0207  -50.7669 C.3       15 UNK         0.1400 
     86 CB         -1.0590  -21.5499  -50.3557 C.3       15 UNK        -0.1800 
     87 C          -2.7435  -23.3687  -50.9047 C.2       15 UNK         0.5000 
     88 O          -3.4582  -22.6317  -51.5819 O.2       15 UNK        -0.5000 
     89 N          -3.2005  -24.4564  -50.2643 N.am      16 UNK        -0.5000 
     90 CA         -4.5616  -25.0056  -50.3056 C.3       16 UNK         0.1400 
     91 CB         -4.8628  -25.5878  -51.7025 C.3       16 UNK        -0.1800 
     92 C          -5.6289  -23.9978  -49.8278 C.2       16 UNK         0.5000 
     93 O          -6.5969  -23.7275  -50.5391 O.2       16 UNK        -0.5000 
     94 N          -5.3940  -23.4469  -48.6297 N.am      17 UNK        -0.5000 
     95 CA         -6.1440  -22.3990  -47.9254 C.3       17 UNK         0.1400 
     96 CB         -7.6592  -22.6841  -47.8683 C.3       17 UNK        -0.1800 
     97 C          -5.8268  -20.9702  -48.4108 C.2       17 UNK         0.5000 
     98 O          -6.3369  -20.0169  -47.8204 O.2       17 UNK        -0.5000 
     99 N          -4.9538  -20.8421  -49.4206 N.am      18 UNK        -0.5000 
    100 CA        -4.4221  -19.6003  -49.9837 C.3       18 UNK         0.1400 
    101 CB        -3.5261  -18.8846  -48.9471 C.3       18 UNK        -0.1800 
    102 C         -5.5079  -18.6928  -50.6036 C.2       18 UNK         0.5000 
    103 O         -6.5279  -19.1948  -51.0835 O.2       18 UNK        -0.5000 
    104 N         -5.2447  -17.3774  -50.6330 N.am      19 UNK        -0.5000 
    105 CA        -6.0552  -16.3232  -51.2477 C.3       19 UNK         0.1400 
    106 CB        -7.3341  -16.0735  -50.4190 C.3       19 UNK        -0.1800 
    107 C         -6.3091  -16.6166  -52.7397 C.2       19 UNK         0.5000 
    108 O         -5.3586  -16.6034  -53.5229 O.2       19 UNK        -0.5000 
    109 N         -7.5580  -16.9295  -53.1073 N.am      20 UNK        -0.5000 
    110 CA        -7.9726  -17.3019  -54.4627 C.3       20 UNK         0.1400 
    111 CB        -9.4999  -17.4672  -54.4851 C.3       20 UNK        -0.1800 
    112 C         -7.2844  -18.5687  -55.0165 C.2       20 UNK         0.5000 
    113 O         -7.2225  -18.7310  -56.2357 O.2       20 UNK        -0.5000 
    114 N         -6.7694  -19.4323  -54.1292 N.am      21 UNK        -0.5000 
    115 CA        -6.0278  -20.6407  -54.4890 C.3       21 UNK         0.1400 
    116 CB        -6.1041  -21.6398  -53.3250 C.3       21 UNK        -0.1800 
    117 C         -4.5605  -20.3761  -54.8904 C.2       21 UNK         0.5000 
    118 O         -3.9276  -21.2889  -55.4239 O.2       21 UNK        -0.5000 
    119 N         -4.0377  -19.1651  -54.6457 N.am      22 UNK        -0.5000 
    120 CA        -2.6452  -18.7868  -54.9505 C.3       22 UNK         0.1400 
    121 C         -2.4756  -17.3916  -55.6146 C.2       22 UNK         0.5000 
    122 N         -3.4269  -16.4728  -55.5141 N.am      22 UNK        -0.7600 
    123 O         -1.4619  -17.1446  -56.2624 O.2       22 UNK        -0.5000 
    124 C124       -1.7088  -18.9737  -53.7290 C.3       23 UNK        -0.0398 
    125 S125       -2.1850  -17.9615  -52.2842 S.3       23 UNK        -0.2404 
    126 C126       -0.7795  -16.8193  -52.1324 C.3       23 UNK        -0.0205 
    127 H127        6.6528  -14.1174  -48.2278 H         1 UNK         0.0600 
    128 H128        6.3759  -12.3800  -48.3791 H         1 UNK         0.0600 
    129 H129        7.5595  -13.1806  -49.4183 H         1 UNK         0.0600 
    130 H130        5.0377  -15.3160  -49.1508 H         1 UNK         0.3000 
    131 H131        3.3605  -16.0285  -50.3437 H         1 UNK         0.0600 
    132 H132        3.3909  -15.5844  -52.9203 H         1 UNK         0.0800 
    133 H133        4.8075  -14.6253  -52.6424 H         1 UNK         0.0800 
    134 H134        3.7894  -18.0732  -53.8264 H         1 UNK         0.0800 
    135 H135        4.4987  -19.2163  -52.7139 H         1 UNK         0.0800 
    136 H136        1.5801  -17.2441  -53.4294 H         1 UNK         0.1150 
    137 H137       -0.3619  -17.8890  -49.6749 H         1 UNK         0.1150 
    138 H138        3.7062  -19.1508  -50.2462 H         1 UNK         0.1150 
    139 H139        1.4950  -18.2162  -47.6966 H         1 UNK         0.0800 
    140 H140        0.7409  -19.7093  -48.2226 H         1 UNK         0.0800 
    141 H141        1.8208  -19.7756  -45.6895 H         1 UNK         0.0800 
    142 H142        3.4285  -20.3922  -45.4438 H         1 UNK         0.0800 
    143 H143        2.6223  -22.5486  -46.6964 H         1 UNK         0.0600 
    144 H144        2.3577  -21.9320  -43.9127 H         1 UNK         0.3000 
    145 H145        1.5933  -25.2426  -42.8736 H         1 UNK         0.0600 
    146 H146        3.6286  -24.8840  -41.4986 H         1 UNK         0.0600 
    147 H147        4.0811  -25.2468  -43.1569 H         1 UNK         0.0600 
    148 H148        4.1616  -23.5891  -42.5697 H         1 UNK         0.0600 
    149 H149        2.0892  -22.7949  -41.4511 H         1 UNK         0.3000 
    150 H150       -1.2426  -21.5176  -41.6020 H         1 UNK         0.0600 
    151 H151       -1.1726  -23.0600  -39.6828 H         1 UNK         0.0600 
    152 H152       -0.8269  -21.4185  -39.1595 H         1 UNK         0.0600 
    153 H153        0.4794  -22.5933  -39.3108 H         1 UNK         0.0600 
    154 H154        0.1632  -19.8707  -41.8816 H         1 UNK         0.3000 
    155 H155        3.2330  -18.8659  -40.4599 H         1 UNK         0.0600 
    156 H156        2.3449  -19.1267  -43.3811 H         1 UNK         0.0600 
    157 H157        3.8442  -19.7582  -42.7080 H         1 UNK         0.0600 
    158 H158        3.5718  -18.0239  -42.7659 H         1 UNK         0.0600 
    159 H159        0.8654  -17.8268  -41.9157 H         1 UNK         0.3000 
    160 H160       -0.5165  -16.3192  -39.0186 H         1 UNK         0.0600 
    161 H161        0.8125  -14.9551  -41.4239 H         1 UNK         0.0600 
    162 H162        1.1495  -14.5973  -39.7335 H         1 UNK         0.0600 
    163 H163       -0.4404  -14.2565  -40.3997 H         1 UNK         0.0600 
    164 H164       -1.2043  -16.2961  -41.8124 H         1 UNK         0.3000 
    165 H165       -2.7748  -19.4076  -42.0070 H         1 UNK         0.0600 
    166 H166       -4.9145  -18.2425  -42.4695 H         1 UNK         0.0600 
    167 H167       -4.6103  -18.2726  -40.7406 H         1 UNK         0.0600 
    168 H168       -4.3345  -16.7915  -41.6498 H         1 UNK         0.0600 
    169 H169       -3.0138  -17.1750  -43.7187 H         1 UNK         0.3000 
    170 H170        0.0947  -17.0673  -45.2402 H         1 UNK         0.0600 
    171 H171       -0.5482  -19.2247  -46.2705 H         1 UNK         0.0600 
    172 H172       -2.2326  -18.7274  -46.3411 H         1 UNK         0.0600 
    173 H173       -1.0232  -17.9014  -47.3249 H         1 UNK         0.0600 
    174 H174       -2.4287  -16.2326  -46.2271 H         1 UNK         0.3000 
    175 H175       -3.6531  -14.1885  -45.0684 H         1 UNK         0.0600 
    176 H176       -1.3358  -12.2071  -44.7666 H         1 UNK         0.0600 
    177 H177       -3.0394  -11.7816  -44.9340 H         1 UNK         0.0600 
    178 H178       -2.4876  -12.6459  -43.5099 H         1 UNK         0.0600 
    179 H179       -1.9376  -12.9166  -47.0357 H         1 UNK         0.3000 
    180 H180       -2.6544  -15.0236  -49.7298 H         1 UNK         0.0600 
    181 H181       -3.9217  -12.2681  -49.2840 H         1 UNK         0.0600 
    182 H182       -4.8240  -13.7372  -49.6196 H         1 UNK         0.0600 
    183 H183       -3.7199  -13.0978  -50.8280 H         1 UNK         0.0600 
    184 H184       -1.5196  -12.4042  -49.6052 H         1 UNK         0.3000 
    185 H185        0.7558  -12.2445  -50.0479 H         1 UNK         0.0600 
    186 H186        0.2922  -11.5547  -47.6961 H         1 UNK         0.0600 
    187 H187        1.3482  -12.8236  -47.0876 H         1 UNK         0.0600 
    188 H188        2.0163  -11.4829  -48.0186 H         1 UNK         0.0600 
    189 H189        2.7361  -13.9726  -48.7474 H         1 UNK         0.3000 
    190 H190       -0.1766  -21.6784  -44.6261 H         1 UNK         0.3000 
    191 H191       -2.0598  -21.3757  -46.7625 H         1 UNK         0.0600 
    192 H192       -2.4913  -20.4795  -44.4832 H         1 UNK         0.0600 
    193 H193       -3.7677  -21.5699  -44.9798 H         1 UNK         0.0600 
    194 H194       -2.5578  -22.1115  -43.8284 H         1 UNK         0.0600 
    195 H195       -1.0096  -24.1950  -44.8341 H         1 UNK         0.3000 
    196 H196       -2.8103  -26.0930  -45.9682 H         1 UNK         0.0600 
    197 H197       -1.2145  -27.7698  -45.0633 H         1 UNK         0.0600 
    198 H198       -1.5320  -26.5098  -43.8796 H         1 UNK         0.0600 
    199 H199       -0.0168  -26.5149  -44.7775 H         1 UNK         0.0600 
    200 H200        0.5160  -25.1116  -46.9165 H         1 UNK         0.3000 
    201 H201        0.7575  -26.8525  -49.1551 H         1 UNK         0.0600 
    202 H202        2.6981  -25.8041  -48.0115 H         1 UNK         0.0600 
    203 H203        2.1822  -24.2073  -48.5492 H         1 UNK         0.0600 
    204 H204        2.7035  -25.4079  -49.7240 H         1 UNK         0.0600 
    205 H205       -0.3346  -23.4500  -48.9101 H         1 UNK         0.3000 
    206 H206       -0.8015  -23.1477  -51.7555 H         1 UNK         0.0600 
    207 H207       -0.0023  -21.2894  -50.2911 H         1 UNK         0.0600 
    208 H208       -1.5109  -20.8713  -51.0789 H         1 UNK         0.0600 
    209 H209       -1.5130  -21.3486  -49.3857 H         1 UNK         0.0600 
    210 H210       -2.5425  -24.9655  -49.6898 H         1 UNK         0.3000 
    211 H211       -4.5798  -25.8327  -49.5943 H         1 UNK         0.0600 
    212 H212       -4.8814  -24.8132  -52.4699 H         1 UNK         0.0600 
    213 H213       -5.8329  -26.0857  -51.7171 H         1 UNK         0.0600 
    214 H214       -4.1146  -26.3262  -51.9904 H         1 UNK         0.0600 
    215 H215       -4.5213  -23.6997  -48.1647 H         1 UNK         0.3000 
    216 H216       -5.7770  -22.4411  -46.8988 H         1 UNK         0.0600 
    217 H217       -8.1517  -22.0145  -47.1624 H         1 UNK         0.0600 
    218 H218       -7.8597  -23.7043  -47.5414 H         1 UNK         0.0600 
    219 H219       -8.1389  -22.5363  -48.8359 H         1 UNK         0.0600 
    220 H220       -4.6451  -21.6871  -49.8839 H         1 UNK         0.3000 
    221 H221       -3.7886  -19.9135  -50.8132 H         1 UNK         0.0600 
    222 H222       -4.1104  -18.4548  -48.1325 H         1 UNK         0.0600 
    223 H223       -2.8101  -19.5796  -48.5116 H         1 UNK         0.0600 
    224 H224       -2.9460  -18.0785  -49.3957 H         1 UNK         0.0600 
    225 H225       -4.3627  -17.0733  -50.2483 H         1 UNK         0.3000 
    226 H226       -5.4569  -15.4124  -51.2203 H         1 UNK         0.0600 
    227 H227       -7.0806  -15.7789  -49.4003 H         1 UNK         0.0600 
    228 H228       -7.9296  -15.2657  -50.8463 H         1 UNK         0.0600 
    229 H229       -7.9668  -16.9593  -50.3540 H         1 UNK         0.0600 
    230 H230       -8.2716  -16.9609  -52.3938 H         1 UNK         0.3000 
    231 H231       -7.7080  -16.4760  -55.1262 H         1 UNK         0.0600 
    232 H232       -9.8268  -18.2644  -53.8162 H         1 UNK         0.0600 
    233 H233       -9.8525  -17.7144  -55.4874 H         1 UNK         0.0600 
    234 H234      -10.0017  -16.5475  -54.1839 H         1 UNK         0.0600 
    235 H235       -6.8525  -19.2324  -53.1373 H         1 UNK         0.3000 
    236 H236       -6.5164  -21.1024  -55.3496 H         1 UNK         0.0600 
    237 H237       -7.1364  -21.8586  -53.0520 H         1 UNK         0.0600 
    238 H238       -5.6305  -22.5863  -53.5878 H         1 UNK         0.0600 
    239 H239       -5.5970  -21.2629  -52.4377 H         1 UNK         0.0600 
    240 H240       -4.6099  -18.4496  -54.2150 H         1 UNK         0.3000 
    241 H241       -2.2773  -19.4691  -55.7190 H         1 UNK         0.0600 
    242 H242       -4.2122  -16.5883  -54.8768 H         1 UNK         0.3800 
    243 H243       -3.2939  -15.5850  -55.9703 H         1 UNK         0.3800 
    244 H244       -0.6739  -18.7682  -54.0064 H         1 UNK         0.0800 
    245 H245       -1.7242  -20.0194  -53.4199 H         1 UNK         0.0800 
    246 H246       -1.0477  -16.0200  -51.4407 H         1 UNK         0.0800 
    247 H247       -0.5946  -16.3397  -53.0949 H         1 UNK         0.0800 
@<TRIPOS>BOND
     1    1    2 1    
     2    1  127 1    
     3    1  128 1    
     4    1  129 1    
     5    2    3 2    
     6    2    4 am   BACKBONE|DICT|INTERRES
     7    4    5 1    
     8    4  130 1    
     9    5    6 1    
    10    5   65 1    
    11    5  131 1    
    12    6    7 1    
    13    6  132 1    
    14    6  133 1    
    15    7    8 1    
    16    8    9 1    
    17    8  134 1    
    18    8  135 1    
    19    9   10 ar   
    20    9   14 ar   
    21   10   11 ar   
    22   10  136 1    
    23   11   12 ar   
    24   11  126 1    
    25   12   13 ar   
    26   12  137 1    
    27   13   14 ar   
    28   13   15 1    
    29   14  138 1    
    30   15   16 1    
    31   15  139 1    
    32   15  140 1    
    33   16   17 1    
    34   17   18 1    
    35   17  141 1    
    36   17  142 1    
    37   18   19 1    
    38   18   67 1    
    39   18  143 1    
    40   19   20 am   BACKBONE|DICT|INTERRES
    41   19  144 1    
    42   20   21 2    
    43   20   22 1    
    44   22   23 1    
    45   22   24 1    
    46   22  145 1    
    47   23  146 1    
    48   23  147 1    
    49   23  148 1    
    50   24   25 am   BACKBONE|DICT|INTERRES
    51   24  149 1    
    52   25   26 2    
    53   25   27 1    
    54   27   28 1    
    55   27   29 1    
    56   27  150 1    
    57   28  151 1    
    58   28  152 1    
    59   28  153 1    
    60   29   30 am   BACKBONE|DICT|INTERRES
    61   29  154 1    
    62   30   31 2    
    63   30   32 1    
    64   32   33 1    
    65   32   34 1    
    66   32  155 1    
    67   33  156 1    
    68   33  157 1    
    69   33  158 1    
    70   34   35 am   BACKBONE|DICT|INTERRES
    71   34  159 1    
    72   35   36 2    
    73   35   37 1    
    74   37   38 1    
    75   37   39 1    
    76   37  160 1    
    77   38  161 1    
    78   38  162 1    
    79   38  163 1    
    80   39   40 am   BACKBONE|DICT|INTERRES
    81   39  164 1    
    82   40   41 2    
    83   40   42 1    
    84   42   43 1    
    85   42   44 1    
    86   42  165 1    
    87   43  166 1    
    88   43  167 1    
    89   43  168 1    
    90   44   45 am   BACKBONE|DICT|INTERRES
    91   44  169 1    
    92   45   46 2    
    93   45   47 1    
    94   47   48 1    
    95   47   49 1    
    96   47  170 1    
    97   48  171 1    
    98   48  172 1    
    99   48  173 1    
   100   49   50 am   BACKBONE|DICT|INTERRES
   101   49  174 1    
   102   50   51 2    
   103   50   52 1    
   104   52   53 1    
   105   52   54 1    
   106   52  175 1    
   107   53  176 1    
   108   53  177 1    
   109   53  178 1    
   110   54   55 am   BACKBONE|DICT|INTERRES
   111   54  179 1    
   112   55   56 2    
   113   55   57 1    
   114   57   58 1    
   115   57   59 1    
   116   57  180 1    
   117   58  181 1    
   118   58  182 1    
   119   58  183 1    
   120   59   60 am   BACKBONE|DICT|INTERRES
   121   59  184 1    
   122   60   61 2    
   123   60   62 1    
   124   62   63 1    
   125   62   64 1    
   126   62  185 1    
   127   63  186 1    
   128   63  187 1    
   129   63  188 1    
   130   64   65 am   BACKBONE|DICT|INTERRES
   131   64  189 1    
   132   65   66 2    
   133   67   68 2    
   134   67   69 am   BACKBONE|DICT|INTERRES
   135   69   70 1    
   136   69  190 1    
   137   70   71 1    
   138   70   72 1    
   139   70  191 1    
   140   71  192 1    
   141   71  193 1    
   142   71  194 1    
   143   72   73 2    
   144   72   74 am   BACKBONE|DICT|INTERRES
   145   74   75 1    
   146   74  195 1    
   147   75   76 1    
   148   75   77 1    
   149   75  196 1    
   150   76  197 1    
   151   76  198 1    
   152   76  199 1    
   153   77   78 2    
   154   77   79 am   BACKBONE|DICT|INTERRES
   155   79   80 1    
   156   79  200 1    
   157   80   81 1    
   158   80   82 1    
   159   80  201 1    
   160   81  202 1    
   161   81  203 1    
   162   81  204 1    
   163   82   83 2    
   164   82   84 am   BACKBONE|DICT|INTERRES
   165   84   85 1    
   166   84  205 1    
   167   85   86 1    
   168   85   87 1    
   169   85  206 1    
   170   86  207 1    
   171   86  208 1    
   172   86  209 1    
   173   87   88 2    
   174   87   89 am   BACKBONE|DICT|INTERRES
   175   89   90 1    
   176   89  210 1    
   177   90   91 1    
   178   90   92 1    
   179   90  211 1    
   180   91  212 1    
   181   91  213 1    
   182   91  214 1    
   183   92   93 2    
   184   92   94 am   BACKBONE|DICT|INTERRES
   185   94   95 1    
   186   94  215 1    
   187   95   96 1    
   188   95   97 1    
   189   95  216 1    
   190   96  217 1    
   191   96  218 1    
   192   96  219 1    
   193   97   98 2    
   194   97   99 am   BACKBONE|DICT|INTERRES
   195   99  100 1    
   196   99  220 1    
   197  100  101 1    
   198  100  102 1    
   199  100  221 1    
   200  101  222 1    
   201  101  223 1    
   202  101  224 1    
   203  102  103 2    
   204  102  104 am   BACKBONE|DICT|INTERRES
   205  104  105 1    
   206  104  225 1    
   207  105  106 1    
   208  105  107 1    
   209  105  226 1    
   210  106  227 1    
   211  106  228 1    
   212  106  229 1    
   213  107  108 2    
   214  107  109 am   BACKBONE|DICT|INTERRES
   215  109  110 1    
   216  109  230 1    
   217  110  111 1    
   218  110  112 1    
   219  110  231 1    
   220  111  232 1    
   221  111  233 1    
   222  111  234 1    
   223  112  113 2    
   224  112  114 am   BACKBONE|DICT|INTERRES
   225  114  115 1    
   226  114  235 1    
   227  115  116 1    
   228  115  117 1    
   229  115  236 1    
   230  116  237 1    
   231  116  238 1    
   232  116  239 1    
   233  117  118 2    
   234  117  119 am   BACKBONE|DICT|INTERRES
   235  119  120 1    
   236  119  240 1    
   237  120  121 1    
   238  120  124 1    
   239  120  241 1    
   240  121  122 am   BACKBONE|DICT|INTERRES
   241  121  123 2    
   242  122  242 1    
   243  122  243 1    
   244  124  125 1    
   245  124  244 1    
   246  124  245 1    
   247  125  126 1    
   248  126  246 1    
   249  126  247 1    
@<TRIPOS>SUBSTRUCTURE
     1 UNK         1 GROUP             0       ****    0 ROOT    
