@<TRIPOS>MOLECULE
3R540
247   249    1
SMALL
USER_CHARGES


@<TRIPOS>ATOM
      1 CA         -2.1674  -14.9004  -45.4652 C.3       0 UNK        -0.1800 
      2 C          -1.8638  -13.8881  -46.5624 C.2       0 UNK         0.5000 
      3 O          -2.3273  -12.7506  -46.4870 O.2       0 UNK        -0.5000 
      4 N          -1.0992  -14.3001  -47.5836 N.am      1 UNK        -0.5000 
      5 CA         -0.7831  -13.5092  -48.7817 C.3       1 UNK         0.1400 
      6 C6         -0.0948  -14.3636  -49.8747 C.3       23 UNK        -0.0398 
      7 S7         -1.1903  -15.6582  -50.5447 S.3       23 UNK        -0.2404 
      8 C8         -0.3177  -16.0849  -52.0875 C.3       23 UNK        -0.0205 
      9 C9          0.2450  -17.4955  -52.0324 C.ar      23 UNK        -0.0193 
     10 C10        -0.3873  -18.5274  -52.7293 C.ar      23 UNK        -0.1150 
     11 C11         0.1090  -19.8322  -52.6779 C.ar      23 UNK        -0.0193 
     12 C12         1.2323  -20.1062  -51.8928 C.ar      23 UNK        -0.1150 
     13 C13         1.8703  -19.0846  -51.1813 C.ar      23 UNK        -0.0193 
     14 C14         1.3874  -17.7750  -51.2774 C.ar      23 UNK        -0.1150 
     15 C15         3.0421  -19.4134  -50.2633 C.3       23 UNK        -0.0205 
     16 S16         2.7684  -18.9263  -48.5198 S.3       23 UNK        -0.2404 
     17 C17         1.0402  -19.4291  -48.2083 C.3       23 UNK        -0.0398 
     18 CA          0.8967  -20.8817  -47.6968 C.3       11 UNK         0.1400 
     19 N           1.5302  -21.0741  -46.3877 N.am      11 UNK        -0.5000 
     20 C           1.4912  -22.1671  -45.6127 C.2       10 UNK         0.5000 
     21 O           0.8032  -23.1601  -45.8500 O.2       10 UNK        -0.5000 
     22 CA          2.4011  -22.1583  -44.3728 C.3       10 UNK         0.1400 
     23 CB          3.7428  -21.4421  -44.6222 C.3       10 UNK        -0.1800 
     24 N           1.7229  -21.5378  -43.2373 N.am      10 UNK        -0.5000 
     25 C           1.0320  -22.2084  -42.3059 C.2       9 UNK         0.5000 
     26 O           0.8944  -23.4315  -42.3025 O.2       9 UNK        -0.5000 
     27 CA          0.4076  -21.3852  -41.1637 C.3       9 UNK         0.1400 
     28 CB          1.4462  -21.1170  -40.0638 C.3       9 UNK        -0.1800 
     29 N          -0.1677  -20.1155  -41.6054 N.am      9 UNK        -0.5000 
     30 C          -1.2813  -19.9994  -42.3424 C.2       8 UNK         0.5000 
     31 O          -1.9523  -20.9574  -42.7261 O.2       8 UNK        -0.5000 
     32 CA         -1.6978  -18.5681  -42.7380 C.3       8 UNK         0.1400 
     33 CB         -2.4269  -17.8617  -41.5860 C.3       8 UNK        -0.1800 
     34 N          -0.5551  -17.7661  -43.1714 N.am      8 UNK        -0.5000 
     35 C           0.1637  -18.0262  -44.2704 C.2       7 UNK         0.5000 
     36 O          -0.1436  -18.8933  -45.0857 O.2       7 UNK        -0.5000 
     37 CA          1.4596  -17.2218  -44.4767 C.3       7 UNK         0.1400 
     38 CB          1.2115  -15.9647  -45.3214 C.3       7 UNK        -0.1800 
     39 N           2.0950  -16.8600  -43.2082 N.am      7 UNK        -0.5000 
     40 C           2.7336  -17.7368  -42.4205 C.2       6 UNK         0.5000 
     41 O           2.8902  -18.9211  -42.7117 O.2       6 UNK        -0.5000 
     42 CA          3.2278  -17.2237  -41.0573 C.3       6 UNK         0.1400 
     43 CB          4.6080  -16.5649  -41.1797 C.3       6 UNK        -0.1800 
     44 N           2.2795  -16.2911  -40.4475 N.am      6 UNK        -0.5000 
     45 C           1.1052  -16.6748  -39.9257 C.2       5 UNK         0.5000 
     46 O           0.7336  -17.8475  -39.8862 O.2       5 UNK        -0.5000 
     47 CA          0.1680  -15.5727  -39.3960 C.3       5 UNK         0.1400 
     48 CB          0.4439  -15.3028  -37.9096 C.3       5 UNK        -0.1800 
     49 N           0.2506  -14.3129  -40.1367 N.am      5 UNK        -0.5000 
     50 C          -0.0006  -14.1641  -41.4442 C.2       4 UNK         0.5000 
     51 O          -0.3176  -15.0940  -42.1856 O.2       4 UNK        -0.5000 
     52 CA          0.1615  -12.7544  -42.0461 C.3       4 UNK         0.1400 
     53 CB          0.3547  -11.6375  -40.9960 C.3       4 UNK        -0.1800 
     54 N           1.2402  -12.7024  -43.0373 N.am      4 UNK        -0.5000 
     55 C           2.5247  -13.0503  -42.8674 C.2       3 UNK         0.5000 
     56 O           2.9591  -13.5554  -41.8306 O.2       3 UNK        -0.5000 
     57 CA          3.4915  -12.8013  -44.0477 C.3       3 UNK         0.1400 
     58 CB          4.4793  -13.9654  -44.2379 C.3       3 UNK        -0.1800 
     59 N           2.8313  -12.5213  -45.3299 N.am      3 UNK        -0.5000 
     60 C           2.3466  -11.3237  -45.6894 C.2       2 UNK         0.5000 
     61 O           2.2922  -10.3549  -44.9324 O.2       2 UNK        -0.5000 
     62 CA          1.8269  -11.1895  -47.1253 C.3       2 UNK         0.1400 
     63 CB          3.0002  -11.0811  -48.1192 C.3       2 UNK        -0.1800 
     64 N           0.9386  -12.2973  -47.4857 N.am      2 UNK        -0.5000 
     65 C           0.0624  -12.2482  -48.4985 C.2       1 UNK         0.5000 
     66 O          -0.0904  -11.2584  -49.2167 O.2       1 UNK        -0.5000 
     67 C          -0.5845  -21.2957  -47.7511 C.2       11 UNK         0.5000 
     68 O          -0.9496  -22.1104  -48.5978 O.2       11 UNK        -0.5000 
     69 N          -1.4095  -20.7331  -46.8584 N.am      12 UNK        -0.5000 
     70 CA         -2.8558  -20.9605  -46.8510 C.3       12 UNK         0.1400 
     71 CB         -3.5451  -19.9574  -45.9184 C.3       12 UNK        -0.1800 
     72 C          -3.2303  -22.4022  -46.4712 C.2       12 UNK         0.5000 
     73 O          -4.1898  -22.9378  -47.0244 O.2       12 UNK        -0.5000 
     74 N          -2.4538  -23.0162  -45.5689 N.am      13 UNK        -0.5000 
     75 CA         -2.6067  -24.4159  -45.1776 C.3       13 UNK         0.1400 
     76 CB         -1.7905  -24.6920  -43.9080 C.3       13 UNK        -0.1800 
     77 C          -2.2008  -25.3707  -46.3131 C.2       13 UNK         0.5000 
     78 O          -2.9292  -26.3235  -46.5905 O.2       13 UNK        -0.5000 
     79 N          -1.0739  -25.0729  -46.9762 N.am      14 UNK        -0.5000 
     80 CA         -0.5579  -25.8140  -48.1290 C.3       14 UNK         0.1400 
     81 CB          0.8469  -25.2990  -48.4787 C.3       14 UNK        -0.1800 
     82 C          -1.4881  -25.7393  -49.3544 C.2       14 UNK         0.5000 
     83 O          -1.6843  -26.7478  -50.0332 O.2       14 UNK        -0.5000 
     84 N          -2.0665  -24.5554  -49.5945 N.am      15 UNK        -0.5000 
     85 CA         -3.0392  -24.2978  -50.6569 C.3       15 UNK         0.1400 
     86 CB         -3.0934  -22.7844  -50.9164 C.3       15 UNK        -0.1800 
     87 C          -4.4529  -24.8263  -50.3417 C.2       15 UNK         0.5000 
     88 O          -5.2939  -24.8414  -51.2399 O.2       15 UNK        -0.5000 
     89 N          -4.7056  -25.2088  -49.0797 N.am      16 UNK        -0.5000 
     90 CA         -5.9998  -25.6089  -48.5141 C.3       16 UNK         0.1400 
     91 CB         -6.4566  -26.9628  -49.0948 C.3       16 UNK        -0.1800 
     92 C          -7.0553  -24.4918  -48.6616 C.2       16 UNK         0.5000 
     93 O          -8.1670  -24.7359  -49.1321 O.2       16 UNK        -0.5000 
     94 N          -6.6400  -23.2670  -48.3090 N.am      17 UNK        -0.5000 
     95 CA         -7.3260  -21.9739  -48.4193 C.3       17 UNK         0.1400 
     96 CB         -8.6693  -21.9801  -47.6645 C.3       17 UNK        -0.1800 
     97 C          -7.4908  -21.4413  -49.8588 C.2       17 UNK         0.5000 
     98 O          -7.7234  -20.2431  -50.0261 O.2       17 UNK        -0.5000 
     99 N          -7.3377  -22.2954  -50.8782 N.am      18 UNK        -0.5000 
    100 CA        -7.4645  -21.9616  -52.2960 C.3       18 UNK         0.1400 
    101 CB        -7.9152  -23.2173  -53.0636 C.3       18 UNK        -0.1800 
    102 C         -6.1598  -21.3598  -52.8532 C.2       18 UNK         0.5000 
    103 O         -5.5857  -21.8919  -53.8041 O.2       18 UNK        -0.5000 
    104 N         -5.7113  -20.2446  -52.2580 N.am      19 UNK        -0.5000 
    105 CA        -4.4815  -19.5213  -52.6109 C.3       19 UNK         0.1400 
    106 CB        -4.2822  -18.3538  -51.6336 C.3       19 UNK        -0.1800 
    107 C         -4.4327  -19.0282  -54.0727 C.2       19 UNK         0.5000 
    108 O         -3.3456  -18.8817  -54.6315 O.2       19 UNK        -0.5000 
    109 N         -5.6099  -18.8463  -54.6879 N.am      20 UNK        -0.5000 
    110 CA        -5.7967  -18.5340  -56.1062 C.3       20 UNK         0.1400 
    111 CB        -7.2966  -18.3435  -56.3774 C.3       20 UNK        -0.1800 
    112 C         -5.2052  -19.5838  -57.0718 C.2       20 UNK         0.5000 
    113 O         -4.9026  -19.2372  -58.2144 O.2       20 UNK        -0.5000 
    114 N         -5.0051  -20.8267  -56.6024 N.am      21 UNK        -0.5000 
    115 CA        -4.3588  -21.9129  -57.3461 C.3       21 UNK         0.1400 
    116 CB        -4.4369  -23.2072  -56.5225 C.3       21 UNK        -0.1800 
    117 C         -2.8963  -21.6175  -57.7404 C.2       21 UNK         0.5000 
    118 O         -2.4193  -22.1726  -58.7312 O.2       21 UNK        -0.5000 
    119 N         -2.2247  -20.7376  -56.9854 N.am      22 UNK        -0.5000 
    120 CA        -0.8898  -20.2093  -57.3087 C.3       22 UNK         0.1400 
    121 C         -0.9116  -19.0136  -58.3095 C.2       22 UNK         0.5000 
    122 N         -2.0602  -18.5308  -58.7709 N.am      22 UNK        -0.7600 
    123 O          0.1443  -18.5179  -58.6936 O.2       22 UNK        -0.5000 
    124 C124       -0.0864  -19.8590  -56.0306 C.3       23 UNK        -0.0398 
    125 S125        0.2812  -21.3294  -55.0101 S.3       23 UNK        -0.2404 
    126 C126       -0.5770  -20.9498  -53.4514 C.3       23 UNK        -0.0205 
    127 H127       -1.7206  -14.5821  -44.5236 H         1 UNK         0.0600 
    128 H128       -1.7889  -15.8932  -45.7079 H         1 UNK         0.0600 
    129 H129       -3.2444  -14.9806  -45.3182 H         1 UNK         0.0600 
    130 H130       -0.7836  -15.2583  -47.6079 H         1 UNK         0.3000 
    131 H131       -1.7333  -13.1536  -49.1867 H         1 UNK         0.0600 
    132 H132        0.2129  -13.7270  -50.7070 H         1 UNK         0.0800 
    133 H133        0.8142  -14.8308  -49.4911 H         1 UNK         0.0800 
    134 H134        0.4911  -15.3825  -52.2919 H         1 UNK         0.0800 
    135 H135       -1.0171  -15.9869  -52.9192 H         1 UNK         0.0800 
    136 H136       -1.2683  -18.3105  -53.3139 H         1 UNK         0.1150 
    137 H137        1.6008  -21.1206  -51.8296 H         1 UNK         0.1150 
    138 H138        1.8720  -16.9826  -50.7246 H         1 UNK         0.1150 
    139 H139        3.2591  -20.4824  -50.2889 H         1 UNK         0.0800 
    140 H140        3.9362  -18.9113  -50.6346 H         1 UNK         0.0800 
    141 H141        0.4356  -19.2725  -49.1008 H         1 UNK         0.0800 
    142 H142        0.6322  -18.7272  -47.4822 H         1 UNK         0.0800 
    143 H143        1.4259  -21.5353  -48.3932 H         1 UNK         0.0600 
    144 H144        2.1109  -20.3081  -46.0833 H         1 UNK         0.3000 
    145 H145        2.6349  -23.1996  -44.1408 H         1 UNK         0.0600 
    146 H146        4.4018  -21.5431  -43.7597 H         1 UNK         0.0600 
    147 H147        4.2630  -21.8736  -45.4784 H         1 UNK         0.0600 
    148 H148        3.6190  -20.3762  -44.8142 H         1 UNK         0.0600 
    149 H149        1.8454  -20.5359  -43.1285 H         1 UNK         0.3000 
    150 H150       -0.3954  -21.9836  -40.7280 H         1 UNK         0.0600 
    151 H151        1.8815  -22.0488  -39.7005 H         1 UNK         0.0600 
    152 H152        0.9936  -20.6145  -39.2087 H         1 UNK         0.0600 
    153 H153        2.2628  -20.4912  -40.4253 H         1 UNK         0.0600 
    154 H154        0.2920  -19.2721  -41.2793 H         1 UNK         0.3000 
    155 H155       -2.3912  -18.6292  -43.5762 H         1 UNK         0.0600 
    156 H156       -1.8115  -17.8075  -40.6892 H         1 UNK         0.0600 
    157 H157       -3.3403  -18.3956  -41.3216 H         1 UNK         0.0600 
    158 H158       -2.7104  -16.8455  -41.8613 H         1 UNK         0.0600 
    159 H159       -0.3057  -16.9633  -42.6016 H         1 UNK         0.3000 
    160 H160        2.1462  -17.8618  -45.0355 H         1 UNK         0.0600 
    161 H161        0.6434  -15.2137  -44.7734 H         1 UNK         0.0600 
    162 H162        0.6602  -16.2120  -46.2286 H         1 UNK         0.0600 
    163 H163        2.1502  -15.5139  -45.6378 H         1 UNK         0.0600 
    164 H164        1.9393  -15.9236  -42.8635 H         1 UNK         0.3000 
    165 H165        3.3318  -18.0882  -40.3979 H         1 UNK         0.0600 
    166 H166        4.9871  -16.2606  -40.2040 H         1 UNK         0.0600 
    167 H167        5.3335  -17.2564  -41.6103 H         1 UNK         0.0600 
    168 H168        4.5783  -15.6830  -41.8163 H         1 UNK         0.0600 
    169 H169        2.5016  -15.3040  -40.5021 H         1 UNK         0.3000 
    170 H170       -0.8556  -15.9397  -39.4895 H         1 UNK         0.0600 
    171 H171        0.3658  -16.2206  -37.3250 H         1 UNK         0.0600 
    172 H172        1.4446  -14.8980  -37.7533 H         1 UNK         0.0600 
    173 H173       -0.2743  -14.5944  -37.4966 H         1 UNK         0.0600 
    174 H174        0.5372  -13.5000  -39.6113 H         1 UNK         0.3000 
    175 H175       -0.7654  -12.5475  -42.5830 H         1 UNK         0.0600 
    176 H176        1.2836  -11.7521  -40.4361 H         1 UNK         0.0600 
    177 H177        0.3821  -10.6586  -41.4750 H         1 UNK         0.0600 
    178 H178       -0.4694  -11.6184  -40.2816 H         1 UNK         0.0600 
    179 H179        0.9899  -12.3035  -43.9296 H         1 UNK         0.3000 
    180 H180        4.0823  -11.9241  -43.7753 H         1 UNK         0.0600 
    181 H181        3.9716  -14.9217  -44.3559 H         1 UNK         0.0600 
    182 H182        5.1440  -14.0510  -43.3782 H         1 UNK         0.0600 
    183 H183        5.1135  -13.8102  -45.1109 H         1 UNK         0.0600 
    184 H184        2.8776  -13.2555  -46.0200 H         1 UNK         0.3000 
    185 H185        1.2549  -10.2596  -47.1663 H         1 UNK         0.0600 
    186 H186        3.6925  -10.2919  -47.8230 H         1 UNK         0.0600 
    187 H187        3.5667  -12.0111  -48.1773 H         1 UNK         0.0600 
    188 H188        2.6519  -10.8402  -49.1235 H         1 UNK         0.0600 
    189 H189        0.9599  -13.1195  -46.9013 H         1 UNK         0.3000 
    190 H190       -1.0254  -20.0867  -46.1707 H         1 UNK         0.3000 
    191 H191       -3.2220  -20.7790  -47.8640 H         1 UNK         0.0600 
    192 H192       -3.3481  -20.1907  -44.8737 H         1 UNK         0.0600 
    193 H193       -4.6268  -19.9847  -46.0555 H         1 UNK         0.0600 
    194 H194       -3.2153  -18.9362  -46.1110 H         1 UNK         0.0600 
    195 H195       -1.6675  -22.5139  -45.1809 H         1 UNK         0.3000 
    196 H196       -3.6597  -24.5917  -44.9472 H         1 UNK         0.0600 
    197 H197       -1.9577  -25.7087  -43.5509 H         1 UNK         0.0600 
    198 H198       -2.0673  -24.0118  -43.1020 H         1 UNK         0.0600 
    199 H199       -0.7212  -24.5807  -44.0871 H         1 UNK         0.0600 
    200 H200       -0.5171  -24.2826  -46.6594 H         1 UNK         0.3000 
    201 H201       -0.4735  -26.8635  -47.8397 H         1 UNK         0.0600 
    202 H202        1.5307  -25.4203  -47.6385 H         1 UNK         0.0600 
    203 H203        0.8335  -24.2421  -48.7469 H         1 UNK         0.0600 
    204 H204        1.2663  -25.8480  -49.3227 H         1 UNK         0.0600 
    205 H205       -1.7875  -23.7535  -49.0340 H         1 UNK         0.3000 
    206 H206       -2.6960  -24.7894  -51.5694 H         1 UNK         0.0600 
    207 H207       -2.1009  -22.3764  -51.1023 H         1 UNK         0.0600 
    208 H208       -3.7020  -22.5679  -51.7933 H         1 UNK         0.0600 
    209 H209       -3.5228  -22.2447  -50.0711 H         1 UNK         0.0600 
    210 H210       -3.9467  -25.1436  -48.4143 H         1 UNK         0.3000 
    211 H211       -5.8397  -25.7439  -47.4433 H         1 UNK         0.0600 
    212 H212       -6.6751  -26.8966  -50.1610 H         1 UNK         0.0600 
    213 H213       -7.3611  -27.3144  -48.5973 H         1 UNK         0.0600 
    214 H214       -5.6919  -27.7271  -48.9563 H         1 UNK         0.0600 
    215 H215       -5.6963  -23.2006  -47.9265 H         1 UNK         0.3000 
    216 H216       -6.6728  -21.2622  -47.9120 H         1 UNK         0.0600 
    217 H217       -9.0974  -20.9777  -47.6264 H         1 UNK         0.0600 
    218 H218       -8.5427  -22.3178  -46.6359 H         1 UNK         0.0600 
    219 H219       -9.4048  -22.6265  -48.1438 H         1 UNK         0.0600 
    220 H220       -7.1130  -23.2592  -50.6676 H         1 UNK         0.3000 
    221 H221       -8.2449  -21.2075  -52.4172 H         1 UNK         0.0600 
    222 H222       -7.1753  -24.0158  -53.0015 H         1 UNK         0.0600 
    223 H223       -8.8563  -23.6027  -52.6710 H         1 UNK         0.0600 
    224 H224       -8.0706  -22.9955  -54.1202 H         1 UNK         0.0600 
    225 H225       -6.2511  -19.8808  -51.4805 H         1 UNK         0.3000 
    226 H226       -3.6487  -20.2133  -52.4802 H         1 UNK         0.0600 
    227 H227       -3.3631  -17.8091  -51.8547 H         1 UNK         0.0600 
    228 H228       -5.1066  -17.6417  -51.6844 H         1 UNK         0.0600 
    229 H229       -4.2062  -18.7088  -50.6055 H         1 UNK         0.0600 
    230 H230       -6.4488  -18.9958  -54.1477 H         1 UNK         0.3000 
    231 H231       -5.2874  -17.5889  -56.3047 H         1 UNK         0.0600 
    232 H232       -7.7103  -17.5411  -55.7662 H         1 UNK         0.0600 
    233 H233       -7.8613  -19.2529  -56.1674 H         1 UNK         0.0600 
    234 H234       -7.4753  -18.0796  -57.4207 H         1 UNK         0.0600 
    235 H235       -5.2653  -21.0389  -55.6445 H         1 UNK         0.3000 
    236 H236       -4.9229  -22.0607  -58.2691 H         1 UNK         0.0600 
    237 H237       -4.0189  -24.0492  -57.0757 H         1 UNK         0.0600 
    238 H238       -3.8815  -23.1208  -55.5876 H         1 UNK         0.0600 
    239 H239       -5.4688  -23.4592  -56.2770 H         1 UNK         0.0600 
    240 H240       -2.6946  -20.3043  -56.2000 H         1 UNK         0.3000 
    241 H241       -0.3324  -20.9936  -57.8243 H         1 UNK         0.0600 
    242 H242       -2.9538  -18.9241  -58.4971 H         1 UNK         0.3800 
    243 H243       -2.0402  -17.7628  -59.4229 H         1 UNK         0.3800 
    244 H244        0.8733  -19.4070  -56.2865 H         1 UNK         0.0800 
    245 H245       -0.6245  -19.1118  -55.4481 H         1 UNK         0.0800 
    246 H246       -1.6171  -20.7018  -53.6609 H         1 UNK         0.0800 
    247 H247       -0.5954  -21.8528  -52.8406 H         1 UNK         0.0800 
@<TRIPOS>BOND
     1    1    2 1    
     2    1  127 1    
     3    1  128 1    
     4    1  129 1    
     5    2    3 2    
     6    2    4 am   BACKBONE|DICT|INTERRES
     7    4    5 1    
     8    4  130 1    
     9    5    6 1    
    10    5   65 1    
    11    5  131 1    
    12    6    7 1    
    13    6  132 1    
    14    6  133 1    
    15    7    8 1    
    16    8    9 1    
    17    8  134 1    
    18    8  135 1    
    19    9   10 ar   
    20    9   14 ar   
    21   10   11 ar   
    22   10  136 1    
    23   11   12 ar   
    24   11  126 1    
    25   12   13 ar   
    26   12  137 1    
    27   13   14 ar   
    28   13   15 1    
    29   14  138 1    
    30   15   16 1    
    31   15  139 1    
    32   15  140 1    
    33   16   17 1    
    34   17   18 1    
    35   17  141 1    
    36   17  142 1    
    37   18   19 1    
    38   18   67 1    
    39   18  143 1    
    40   19   20 am   BACKBONE|DICT|INTERRES
    41   19  144 1    
    42   20   21 2    
    43   20   22 1    
    44   22   23 1    
    45   22   24 1    
    46   22  145 1    
    47   23  146 1    
    48   23  147 1    
    49   23  148 1    
    50   24   25 am   BACKBONE|DICT|INTERRES
    51   24  149 1    
    52   25   26 2    
    53   25   27 1    
    54   27   28 1    
    55   27   29 1    
    56   27  150 1    
    57   28  151 1    
    58   28  152 1    
    59   28  153 1    
    60   29   30 am   BACKBONE|DICT|INTERRES
    61   29  154 1    
    62   30   31 2    
    63   30   32 1    
    64   32   33 1    
    65   32   34 1    
    66   32  155 1    
    67   33  156 1    
    68   33  157 1    
    69   33  158 1    
    70   34   35 am   BACKBONE|DICT|INTERRES
    71   34  159 1    
    72   35   36 2    
    73   35   37 1    
    74   37   38 1    
    75   37   39 1    
    76   37  160 1    
    77   38  161 1    
    78   38  162 1    
    79   38  163 1    
    80   39   40 am   BACKBONE|DICT|INTERRES
    81   39  164 1    
    82   40   41 2    
    83   40   42 1    
    84   42   43 1    
    85   42   44 1    
    86   42  165 1    
    87   43  166 1    
    88   43  167 1    
    89   43  168 1    
    90   44   45 am   BACKBONE|DICT|INTERRES
    91   44  169 1    
    92   45   46 2    
    93   45   47 1    
    94   47   48 1    
    95   47   49 1    
    96   47  170 1    
    97   48  171 1    
    98   48  172 1    
    99   48  173 1    
   100   49   50 am   BACKBONE|DICT|INTERRES
   101   49  174 1    
   102   50   51 2    
   103   50   52 1    
   104   52   53 1    
   105   52   54 1    
   106   52  175 1    
   107   53  176 1    
   108   53  177 1    
   109   53  178 1    
   110   54   55 am   BACKBONE|DICT|INTERRES
   111   54  179 1    
   112   55   56 2    
   113   55   57 1    
   114   57   58 1    
   115   57   59 1    
   116   57  180 1    
   117   58  181 1    
   118   58  182 1    
   119   58  183 1    
   120   59   60 am   BACKBONE|DICT|INTERRES
   121   59  184 1    
   122   60   61 2    
   123   60   62 1    
   124   62   63 1    
   125   62   64 1    
   126   62  185 1    
   127   63  186 1    
   128   63  187 1    
   129   63  188 1    
   130   64   65 am   BACKBONE|DICT|INTERRES
   131   64  189 1    
   132   65   66 2    
   133   67   68 2    
   134   67   69 am   BACKBONE|DICT|INTERRES
   135   69   70 1    
   136   69  190 1    
   137   70   71 1    
   138   70   72 1    
   139   70  191 1    
   140   71  192 1    
   141   71  193 1    
   142   71  194 1    
   143   72   73 2    
   144   72   74 am   BACKBONE|DICT|INTERRES
   145   74   75 1    
   146   74  195 1    
   147   75   76 1    
   148   75   77 1    
   149   75  196 1    
   150   76  197 1    
   151   76  198 1    
   152   76  199 1    
   153   77   78 2    
   154   77   79 am   BACKBONE|DICT|INTERRES
   155   79   80 1    
   156   79  200 1    
   157   80   81 1    
   158   80   82 1    
   159   80  201 1    
   160   81  202 1    
   161   81  203 1    
   162   81  204 1    
   163   82   83 2    
   164   82   84 am   BACKBONE|DICT|INTERRES
   165   84   85 1    
   166   84  205 1    
   167   85   86 1    
   168   85   87 1    
   169   85  206 1    
   170   86  207 1    
   171   86  208 1    
   172   86  209 1    
   173   87   88 2    
   174   87   89 am   BACKBONE|DICT|INTERRES
   175   89   90 1    
   176   89  210 1    
   177   90   91 1    
   178   90   92 1    
   179   90  211 1    
   180   91  212 1    
   181   91  213 1    
   182   91  214 1    
   183   92   93 2    
   184   92   94 am   BACKBONE|DICT|INTERRES
   185   94   95 1    
   186   94  215 1    
   187   95   96 1    
   188   95   97 1    
   189   95  216 1    
   190   96  217 1    
   191   96  218 1    
   192   96  219 1    
   193   97   98 2    
   194   97   99 am   BACKBONE|DICT|INTERRES
   195   99  100 1    
   196   99  220 1    
   197  100  101 1    
   198  100  102 1    
   199  100  221 1    
   200  101  222 1    
   201  101  223 1    
   202  101  224 1    
   203  102  103 2    
   204  102  104 am   BACKBONE|DICT|INTERRES
   205  104  105 1    
   206  104  225 1    
   207  105  106 1    
   208  105  107 1    
   209  105  226 1    
   210  106  227 1    
   211  106  228 1    
   212  106  229 1    
   213  107  108 2    
   214  107  109 am   BACKBONE|DICT|INTERRES
   215  109  110 1    
   216  109  230 1    
   217  110  111 1    
   218  110  112 1    
   219  110  231 1    
   220  111  232 1    
   221  111  233 1    
   222  111  234 1    
   223  112  113 2    
   224  112  114 am   BACKBONE|DICT|INTERRES
   225  114  115 1    
   226  114  235 1    
   227  115  116 1    
   228  115  117 1    
   229  115  236 1    
   230  116  237 1    
   231  116  238 1    
   232  116  239 1    
   233  117  118 2    
   234  117  119 am   BACKBONE|DICT|INTERRES
   235  119  120 1    
   236  119  240 1    
   237  120  121 1    
   238  120  124 1    
   239  120  241 1    
   240  121  122 am   BACKBONE|DICT|INTERRES
   241  121  123 2    
   242  122  242 1    
   243  122  243 1    
   244  124  125 1    
   245  124  244 1    
   246  124  245 1    
   247  125  126 1    
   248  126  246 1    
   249  126  247 1    
@<TRIPOS>SUBSTRUCTURE
     1 UNK         1 GROUP             0       ****    0 ROOT    
