@<TRIPOS>MOLECULE
3R540
247   249    1
SMALL
USER_CHARGES


@<TRIPOS>ATOM
      1 CA         -2.1723  -10.2924  -48.4604 C.3       0 UNK        -0.1800 
      2 C          -0.8887  -11.0714  -48.7070 C.2       0 UNK         0.5000 
      3 O           0.1881  -10.6196  -48.3139 O.2       0 UNK        -0.5000 
      4 N          -0.9954  -12.2380  -49.3564 N.am      1 UNK        -0.5000 
      5 CA          0.1124  -13.1627  -49.6163 C.3       1 UNK         0.1400 
      6 C6         -0.2816  -14.3181  -50.5720 C.3       23 UNK        -0.0398 
      7 S7         -1.8437  -15.1883  -50.1685 S.3       23 UNK        -0.2404 
      8 C8         -1.2694  -16.6704  -49.2728 C.3       23 UNK        -0.0205 
      9 C9         -0.2609  -17.4964  -50.0577 C.ar      23 UNK        -0.0193 
     10 C10        -0.5668  -17.9665  -51.3383 C.ar      23 UNK        -0.1150 
     11 C11         0.3776  -18.6871  -52.0735 C.ar      23 UNK        -0.0193 
     12 C12         1.6311  -18.9516  -51.5113 C.ar      23 UNK        -0.1150 
     13 C13         1.9420  -18.5049  -50.2231 C.ar      23 UNK        -0.0193 
     14 C14         0.9910  -17.7776  -49.5027 C.ar      23 UNK        -0.1150 
     15 C15         3.3179  -18.7751  -49.6294 C.3       23 UNK        -0.0205 
     16 S16         3.4969  -20.4840  -49.0273 S.3       23 UNK        -0.2404 
     17 C17         2.5978  -20.4229  -47.4386 C.3       23 UNK        -0.0398 
     18 CA          2.2430  -21.8288  -46.8873 C.3       11 UNK         0.1400 
     19 N           1.8228  -21.7798  -45.4896 N.am      11 UNK        -0.5000 
     20 C           1.7582  -22.8433  -44.6775 C.2       10 UNK         0.5000 
     21 O           2.0812  -23.9835  -45.0115 O.2       10 UNK        -0.5000 
     22 CA          1.2434  -22.5946  -43.2482 C.3       10 UNK         0.1400 
     23 CB          2.3875  -22.1254  -42.3368 C.3       10 UNK        -0.1800 
     24 N           0.1502  -21.6249  -43.1893 N.am      10 UNK        -0.5000 
     25 C          -1.0524  -21.8008  -43.7536 C.2       9 UNK         0.5000 
     26 O          -1.3787  -22.8015  -44.3943 O.2       9 UNK        -0.5000 
     27 CA         -2.0452  -20.6361  -43.6166 C.3       9 UNK         0.1400 
     28 CB         -2.6214  -20.5586  -42.1955 C.3       9 UNK        -0.1800 
     29 N          -1.4675  -19.3548  -44.0030 N.am      9 UNK        -0.5000 
     30 C          -1.0180  -19.0621  -45.2318 C.2       8 UNK         0.5000 
     31 O          -1.0537  -19.8424  -46.1863 O.2       8 UNK        -0.5000 
     32 CA         -0.3795  -17.6736  -45.4021 C.3       8 UNK         0.1400 
     33 CB         -1.4686  -16.5950  -45.4947 C.3       8 UNK        -0.1800 
     34 N           0.5410  -17.3458  -44.3115 N.am      8 UNK        -0.5000 
     35 C           1.6292  -18.0598  -43.9876 C.2       7 UNK         0.5000 
     36 O           2.0117  -19.0476  -44.6118 O.2       7 UNK        -0.5000 
     37 CA          2.3798  -17.6414  -42.7140 C.3       7 UNK         0.1400 
     38 CB          3.3039  -16.4447  -42.9796 C.3       7 UNK        -0.1800 
     39 N           1.4571  -17.3298  -41.6237 N.am      7 UNK        -0.5000 
     40 C           0.7042  -18.2418  -40.9914 C.2       6 UNK         0.5000 
     41 O           0.7364  -19.4477  -41.2378 O.2       6 UNK        -0.5000 
     42 CA         -0.2796  -17.7073  -39.9351 C.3       6 UNK         0.1400 
     43 CB          0.4306  -17.4943  -38.5901 C.3       6 UNK        -0.1800 
     44 N          -0.9200  -16.4583  -40.3504 N.am      6 UNK        -0.5000 
     45 C          -1.7807  -16.3559  -41.3732 C.2       5 UNK         0.5000 
     46 O          -2.1552  -17.3138  -42.0475 O.2       5 UNK        -0.5000 
     47 CA         -2.2686  -14.9401  -41.7308 C.3       5 UNK         0.1400 
     48 CB         -3.5049  -14.5687  -40.8989 C.3       5 UNK        -0.1800 
     49 N          -1.2369  -13.9143  -41.5557 N.am      5 UNK        -0.5000 
     50 C          -0.0955  -13.8610  -42.2539 C.2       4 UNK         0.5000 
     51 O           0.2260  -14.6926  -43.1058 O.2       4 UNK        -0.5000 
     52 CA          0.8738  -12.7270  -41.8898 C.3       4 UNK         0.1400 
     53 CB          1.9693  -13.2411  -40.9434 C.3       4 UNK        -0.1800 
     54 N           1.4998  -12.1790  -43.0878 N.am      4 UNK        -0.5000 
     55 C           0.9548  -11.2533  -43.8827 C.2       3 UNK         0.5000 
     56 O          -0.1387  -10.7287  -43.6670 O.2       3 UNK        -0.5000 
     57 CA          1.7704  -10.8230  -45.1174 C.3       3 UNK         0.1400 
     58 CB          3.0520  -10.0669  -44.7163 C.3       3 UNK        -0.1800 
     59 N           2.0594  -11.9086  -46.0603 N.am      3 UNK        -0.5000 
     60 C           2.8034  -13.0124  -45.8880 C.2       2 UNK         0.5000 
     61 O           3.4135  -13.2650  -44.8478 O.2       2 UNK        -0.5000 
     62 CA          2.9295  -13.9847  -47.0854 C.3       2 UNK         0.1400 
     63 CB          2.7469  -15.4547  -46.6586 C.3       2 UNK        -0.1800 
     64 N           2.0806  -13.6596  -48.2425 N.am      2 UNK        -0.5000 
     65 C           0.7407  -13.6728  -48.3019 C.2       1 UNK         0.5000 
     66 O           0.0131  -14.0126  -47.3693 O.2       1 UNK        -0.5000 
     67 C           1.1999  -22.5409  -47.7698 C.2       11 UNK         0.5000 
     68 O           1.5501  -23.5046  -48.4536 O.2       11 UNK        -0.5000 
     69 N          -0.0390  -22.0293  -47.7749 N.am      12 UNK        -0.5000 
     70 CA         -0.9712  -22.2702  -48.8727 C.3       12 UNK         0.1400 
     71 CB         -1.1335  -20.9618  -49.6466 C.3       12 UNK        -0.1800 
     72 C          -2.3298  -22.8373  -48.4453 C.2       12 UNK         0.5000 
     73 O          -2.9160  -23.5871  -49.2266 O.2       12 UNK        -0.5000 
     74 N          -2.8255  -22.5312  -47.2360 N.am      13 UNK        -0.5000 
     75 CA         -4.0778  -23.1329  -46.7494 C.3       13 UNK         0.1400 
     76 CB         -4.6458  -22.3827  -45.5396 C.3       13 UNK        -0.1800 
     77 C          -3.8930  -24.6275  -46.4375 C.2       13 UNK         0.5000 
     78 O          -4.7312  -25.4428  -46.8262 O.2       13 UNK        -0.5000 
     79 N          -2.7468  -24.9532  -45.8232 N.am      14 UNK        -0.5000 
     80 CA         -2.2627  -26.3104  -45.5667 C.3       14 UNK         0.1400 
     81 CB         -1.0003  -26.2230  -44.6954 C.3       14 UNK        -0.1800 
     82 C          -1.9776  -27.1234  -46.8475 C.2       14 UNK         0.5000 
     83 O          -1.9740  -28.3529  -46.7916 O.2       14 UNK        -0.5000 
     84 N          -1.7876  -26.4369  -47.9828 N.am      15 UNK        -0.5000 
     85 CA         -1.6180  -27.0144  -49.3177 C.3       15 UNK         0.1400 
     86 CB         -0.6443  -26.1359  -50.1236 C.3       15 UNK        -0.1800 
     87 C          -2.9730  -27.2049  -50.0367 C.2       15 UNK         0.5000 
     88 O          -3.0507  -27.0331  -51.2538 O.2       15 UNK        -0.5000 
     89 N          -4.0113  -27.5656  -49.2684 N.am      16 UNK        -0.5000 
     90 CA         -5.3896  -27.8318  -49.6867 C.3       16 UNK         0.1400 
     91 CB         -5.4571  -29.0636  -50.6147 C.3       16 UNK        -0.1800 
     92 C          -6.0887  -26.5865  -50.2683 C.2       16 UNK         0.5000 
     93 O          -6.6423  -26.6437  -51.3684 O.2       16 UNK        -0.5000 
     94 N          -6.0666  -25.4915  -49.4925 N.am      17 UNK        -0.5000 
     95 CA         -6.7476  -24.2172  -49.7564 C.3       17 UNK         0.1400 
     96 CB         -8.2797  -24.3968  -49.6971 C.3       17 UNK        -0.1800 
     97 C          -6.2693  -23.5208  -51.0489 C.2       17 UNK         0.5000 
     98 O          -7.0853  -23.0410  -51.8383 O.2       17 UNK        -0.5000 
     99 N          -4.9448  -23.4594  -51.2323 N.am      18 UNK        -0.5000 
    100 CA        -4.2843  -22.8274  -52.3766 C.3       18 UNK         0.1400 
    101 CB        -2.9682  -23.5717  -52.6586 C.3       18 UNK        -0.1800 
    102 C         -4.0213  -21.3219  -52.1657 C.2       18 UNK         0.5000 
    103 O         -3.4081  -20.6959  -53.0314 O.2       18 UNK        -0.5000 
    104 N         -4.4608  -20.7595  -51.0297 N.am      19 UNK        -0.5000 
    105 CA        -4.2308  -19.3858  -50.5607 C.3       19 UNK         0.1400 
    106 CB        -4.5641  -19.3290  -49.0573 C.3       19 UNK        -0.1800 
    107 C         -4.9602  -18.2909  -51.3766 C.2       19 UNK         0.5000 
    108 O         -5.6307  -17.4332  -50.8003 O.2       19 UNK        -0.5000 
    109 N         -4.8014  -18.3458  -52.7020 N.am      20 UNK        -0.5000 
    110 CA        -5.3434  -17.4536  -53.7296 C.3       20 UNK         0.1400 
    111 CB        -6.8797  -17.3484  -53.6445 C.3       20 UNK        -0.1800 
    112 C         -4.9552  -17.9487  -55.1346 C.2       20 UNK         0.5000 
    113 O         -4.8506  -17.1368  -56.0547 O.2       20 UNK        -0.5000 
    114 N         -4.7540  -19.2677  -55.2822 N.am      21 UNK        -0.5000 
    115 CA        -4.5291  -19.9726  -56.5475 C.3       21 UNK         0.1400 
    116 CB        -4.4774  -21.4829  -56.2689 C.3       21 UNK        -0.1800 
    117 C         -3.2751  -19.5280  -57.3219 C.2       21 UNK         0.5000 
    118 O         -3.2656  -19.6184  -58.5506 O.2       21 UNK        -0.5000 
    119 N         -2.2542  -19.0462  -56.6019 N.am      22 UNK        -0.5000 
    120 CA        -1.0406  -18.4525  -57.1820 C.3       22 UNK         0.1400 
    121 C         -1.2056  -16.9840  -57.6815 C.2       22 UNK         0.5000 
    122 N         -2.3437  -16.3267  -57.4844 N.am      22 UNK        -0.7600 
    123 O         -0.2857  -16.4343  -58.2811 O.2       22 UNK        -0.5000 
    124 C124        0.1920  -18.6408  -56.2604 C.3       23 UNK        -0.0398 
    125 S125        0.0840  -17.7752  -54.6540 S.3       23 UNK        -0.2404 
    126 C126        0.0477  -19.1640  -53.4787 C.3       23 UNK        -0.0205 
    127 H127       -2.1130   -9.3125  -48.9333 H         1 UNK         0.0600 
    128 H128       -2.3223  -10.1479  -47.3906 H         1 UNK         0.0600 
    129 H129       -3.0441  -10.8112  -48.8594 H         1 UNK         0.0600 
    130 H130       -1.9080  -12.5807  -49.6207 H         1 UNK         0.3000 
    131 H131        0.8777  -12.5782  -50.1320 H         1 UNK         0.0600 
    132 H132       -0.4139  -13.9049  -51.5726 H         1 UNK         0.0800 
    133 H133        0.5388  -15.0290  -50.6749 H         1 UNK         0.0800 
    134 H134       -2.1284  -17.2963  -49.0319 H         1 UNK         0.0800 
    135 H135       -0.8439  -16.3533  -48.3215 H         1 UNK         0.0800 
    136 H136       -1.5299  -17.7468  -51.7768 H         1 UNK         0.1150 
    137 H137        2.3690  -19.5042  -52.0758 H         1 UNK         0.1150 
    138 H138        1.2305  -17.4189  -48.5130 H         1 UNK         0.1150 
    139 H139        4.0753  -18.5948  -50.3935 H         1 UNK         0.0800 
    140 H140        3.5374  -18.0793  -48.8187 H         1 UNK         0.0800 
    141 H141        1.7041  -19.8045  -47.5364 H         1 UNK         0.0800 
    142 H142        3.2483  -19.9055  -46.7329 H         1 UNK         0.0800 
    143 H143        3.1564  -22.4273  -46.9190 H         1 UNK         0.0600 
    144 H144        1.6038  -20.8607  -45.1156 H         1 UNK         0.3000 
    145 H145        0.8663  -23.5443  -42.8630 H         1 UNK         0.0600 
    146 H146        2.0541  -22.0312  -41.3032 H         1 UNK         0.0600 
    147 H147        3.2151  -22.8357  -42.3488 H         1 UNK         0.0600 
    148 H148        2.7788  -21.1568  -42.6510 H         1 UNK         0.0600 
    149 H149        0.3281  -20.7733  -42.6649 H         1 UNK         0.3000 
    150 H150       -2.8691  -20.8101  -44.3017 H         1 UNK         0.0600 
    151 H151       -3.0657  -21.5104  -41.9020 H         1 UNK         0.0600 
    152 H152       -3.4034  -19.8021  -42.1295 H         1 UNK         0.0600 
    153 H153       -1.8556  -20.3120  -41.4601 H         1 UNK         0.0600 
    154 H154       -1.4487  -18.6328  -43.2885 H         1 UNK         0.3000 
    155 H155        0.1908  -17.6756  -46.3321 H         1 UNK         0.0600 
    156 H156       -2.1325  -16.7777  -46.3399 H         1 UNK         0.0600 
    157 H157       -1.0339  -15.6049  -45.6233 H         1 UNK         0.0600 
    158 H158       -2.0881  -16.5662  -44.5995 H         1 UNK         0.0600 
    159 H159        0.3282  -16.5114  -43.7715 H         1 UNK         0.3000 
    160 H160        3.0015  -18.4829  -42.4005 H         1 UNK         0.0600 
    161 H161        2.7527  -15.5770  -43.3427 H         1 UNK         0.0600 
    162 H162        4.0520  -16.6945  -43.7325 H         1 UNK         0.0600 
    163 H163        3.8402  -16.1507  -42.0776 H         1 UNK         0.0600 
    164 H164        1.3295  -16.3548  -41.4001 H         1 UNK         0.3000 
    165 H165       -1.0589  -18.4594  -39.7946 H         1 UNK         0.0600 
    166 H166       -0.2741  -17.1889  -37.8164 H         1 UNK         0.0600 
    167 H167        0.9055  -18.4156  -38.2501 H         1 UNK         0.0600 
    168 H168        1.2065  -16.7307  -38.6585 H         1 UNK         0.0600 
    169 H169       -0.6695  -15.6223  -39.8440 H         1 UNK         0.3000 
    170 H170       -2.5567  -14.9467  -42.7839 H         1 UNK         0.0600 
    171 H171       -4.2973  -15.3074  -41.0272 H         1 UNK         0.0600 
    172 H172       -3.2747  -14.5158  -39.8341 H         1 UNK         0.0600 
    173 H173       -3.9103  -13.6038  -41.2038 H         1 UNK         0.0600 
    174 H174       -1.4251  -13.2008  -40.8661 H         1 UNK         0.3000 
    175 H175        0.3232  -11.9343  -41.3787 H         1 UNK         0.0600 
    176 H176        2.5782  -14.0139  -41.4121 H         1 UNK         0.0600 
    177 H177        2.6350  -12.4332  -40.6394 H         1 UNK         0.0600 
    178 H178        1.5386  -13.6651  -40.0356 H         1 UNK         0.0600 
    179 H179        2.3485  -12.6314  -43.4162 H         1 UNK         0.3000 
    180 H180        1.1453  -10.1204  -45.6704 H         1 UNK         0.0600 
    181 H181        3.7485  -10.6980  -44.1644 H         1 UNK         0.0600 
    182 H182        2.8151   -9.2130  -44.0807 H         1 UNK         0.0600 
    183 H183        3.5720   -9.6836  -45.5940 H         1 UNK         0.0600 
    184 H184        1.5816  -11.8145  -46.9478 H         1 UNK         0.3000 
    185 H185        3.9566  -13.8780  -47.4370 H         1 UNK         0.0600 
    186 H186        3.4830  -15.7379  -45.9069 H         1 UNK         0.0600 
    187 H187        1.7605  -15.6324  -46.2315 H         1 UNK         0.0600 
    188 H188        2.8797  -16.1278  -47.5035 H         1 UNK         0.0600 
    189 H189        2.5873  -13.3358  -49.0552 H         1 UNK         0.3000 
    190 H190       -0.2688  -21.2601  -47.1499 H         1 UNK         0.3000 
    191 H191       -0.5556  -22.9947  -49.5750 H         1 UNK         0.0600 
    192 H192       -1.6028  -20.1854  -49.0423 H         1 UNK         0.0600 
    193 H193       -1.7263  -21.1106  -50.5456 H         1 UNK         0.0600 
    194 H194       -0.1626  -20.5902  -49.9690 H         1 UNK         0.0600 
    195 H195       -2.3022  -21.9367  -46.6075 H         1 UNK         0.3000 
    196 H196       -4.8147  -23.0430  -47.5469 H         1 UNK         0.0600 
    197 H197       -5.6778  -22.6854  -45.3578 H         1 UNK         0.0600 
    198 H198       -4.6517  -21.3051  -45.7034 H         1 UNK         0.0600 
    199 H199       -4.0917  -22.6038  -44.6282 H         1 UNK         0.0600 
    200 H200       -2.1482  -24.1970  -45.4999 H         1 UNK         0.3000 
    201 H201       -3.0351  -26.8407  -45.0060 H         1 UNK         0.0600 
    202 H202       -1.2050  -25.7139  -43.7533 H         1 UNK         0.0600 
    203 H203       -0.2021  -25.6782  -45.2017 H         1 UNK         0.0600 
    204 H204       -0.6198  -27.2161  -44.4529 H         1 UNK         0.0600 
    205 H205       -1.8697  -25.4315  -47.9468 H         1 UNK         0.3000 
    206 H206       -1.1658  -28.0039  -49.2251 H         1 UNK         0.0600 
    207 H207        0.2799  -25.9569  -49.5736 H         1 UNK         0.0600 
    208 H208       -0.3734  -26.6165  -51.0643 H         1 UNK         0.0600 
    209 H209       -1.0829  -25.1696  -50.3688 H         1 UNK         0.0600 
    210 H210       -3.8369  -27.6561  -48.2771 H         1 UNK         0.3000 
    211 H211       -5.9362  -28.0851  -48.7772 H         1 UNK         0.0600 
    212 H212       -4.9677  -28.8818  -51.5719 H         1 UNK         0.0600 
    213 H213       -6.4920  -29.3350  -50.8255 H         1 UNK         0.0600 
    214 H214       -4.9827  -29.9303  -50.1545 H         1 UNK         0.0600 
    215 H215       -5.5657  -25.5472  -48.6097 H         1 UNK         0.3000 
    216 H216       -6.4799  -23.5486  -48.9399 H         1 UNK         0.0600 
    217 H217       -8.7888  -23.4344  -49.7626 H         1 UNK         0.0600 
    218 H218       -8.5859  -24.8603  -48.7590 H         1 UNK         0.0600 
    219 H219       -8.6493  -25.0172  -50.5142 H         1 UNK         0.0600 
    220 H220       -4.3236  -23.8275  -50.5156 H         1 UNK         0.3000 
    221 H221       -4.9191  -22.9244  -53.2600 H         1 UNK         0.0600 
    222 H222       -2.2566  -23.4596  -51.8398 H         1 UNK         0.0600 
    223 H223       -3.1417  -24.6381  -52.8072 H         1 UNK         0.0600 
    224 H224       -2.4886  -23.1934  -53.5623 H         1 UNK         0.0600 
    225 H225       -4.9768  -21.3551  -50.4009 H         1 UNK         0.3000 
    226 H226       -3.1668  -19.1742  -50.6669 H         1 UNK         0.0600 
    227 H227       -3.9823  -20.0560  -48.4910 H         1 UNK         0.0600 
    228 H228       -4.3415  -18.3466  -48.6394 H         1 UNK         0.0600 
    229 H229       -5.6199  -19.5318  -48.8742 H         1 UNK         0.0600 
    230 H230       -4.1846  -19.0821  -53.0389 H         1 UNK         0.3000 
    231 H231       -4.9052  -16.4649  -53.5898 H         1 UNK         0.0600 
    232 H232       -7.2020  -16.8253  -52.7455 H         1 UNK         0.0600 
    233 H233       -7.3491  -18.3317  -53.6481 H         1 UNK         0.0600 
    234 H234       -7.2825  -16.7903  -54.4907 H         1 UNK         0.0600 
    235 H235       -4.8242  -19.8610  -54.4685 H         1 UNK         0.3000 
    236 H236       -5.3908  -19.7732  -57.1874 H         1 UNK         0.0600 
    237 H237       -4.3593  -22.0473  -57.1948 H         1 UNK         0.0600 
    238 H238       -3.6416  -21.7429  -55.6182 H         1 UNK         0.0600 
    239 H239       -5.3944  -21.8301  -55.7931 H         1 UNK         0.0600 
    240 H240       -2.3465  -18.9923  -55.5984 H         1 UNK         0.3000 
    241 H241       -0.8139  -19.0187  -58.0877 H         1 UNK         0.0600 
    242 H242       -2.4301  -15.3819  -57.8232 H         1 UNK         0.3800 
    243 H243       -3.1273  -16.7543  -57.0031 H         1 UNK         0.3800 
    244 H244        0.3523  -19.7062  -56.0922 H         1 UNK         0.0800 
    245 H245        1.0945  -18.2938  -56.7664 H         1 UNK         0.0800 
    246 H246        0.7602  -19.9300  -53.7879 H         1 UNK         0.0800 
    247 H247       -0.9378  -19.6312  -53.4916 H         1 UNK         0.0800 
@<TRIPOS>BOND
     1    1    2 1    
     2    1  127 1    
     3    1  128 1    
     4    1  129 1    
     5    2    3 2    
     6    2    4 am   BACKBONE|DICT|INTERRES
     7    4    5 1    
     8    4  130 1    
     9    5    6 1    
    10    5   65 1    
    11    5  131 1    
    12    6    7 1    
    13    6  132 1    
    14    6  133 1    
    15    7    8 1    
    16    8    9 1    
    17    8  134 1    
    18    8  135 1    
    19    9   10 ar   
    20    9   14 ar   
    21   10   11 ar   
    22   10  136 1    
    23   11   12 ar   
    24   11  126 1    
    25   12   13 ar   
    26   12  137 1    
    27   13   14 ar   
    28   13   15 1    
    29   14  138 1    
    30   15   16 1    
    31   15  139 1    
    32   15  140 1    
    33   16   17 1    
    34   17   18 1    
    35   17  141 1    
    36   17  142 1    
    37   18   19 1    
    38   18   67 1    
    39   18  143 1    
    40   19   20 am   BACKBONE|DICT|INTERRES
    41   19  144 1    
    42   20   21 2    
    43   20   22 1    
    44   22   23 1    
    45   22   24 1    
    46   22  145 1    
    47   23  146 1    
    48   23  147 1    
    49   23  148 1    
    50   24   25 am   BACKBONE|DICT|INTERRES
    51   24  149 1    
    52   25   26 2    
    53   25   27 1    
    54   27   28 1    
    55   27   29 1    
    56   27  150 1    
    57   28  151 1    
    58   28  152 1    
    59   28  153 1    
    60   29   30 am   BACKBONE|DICT|INTERRES
    61   29  154 1    
    62   30   31 2    
    63   30   32 1    
    64   32   33 1    
    65   32   34 1    
    66   32  155 1    
    67   33  156 1    
    68   33  157 1    
    69   33  158 1    
    70   34   35 am   BACKBONE|DICT|INTERRES
    71   34  159 1    
    72   35   36 2    
    73   35   37 1    
    74   37   38 1    
    75   37   39 1    
    76   37  160 1    
    77   38  161 1    
    78   38  162 1    
    79   38  163 1    
    80   39   40 am   BACKBONE|DICT|INTERRES
    81   39  164 1    
    82   40   41 2    
    83   40   42 1    
    84   42   43 1    
    85   42   44 1    
    86   42  165 1    
    87   43  166 1    
    88   43  167 1    
    89   43  168 1    
    90   44   45 am   BACKBONE|DICT|INTERRES
    91   44  169 1    
    92   45   46 2    
    93   45   47 1    
    94   47   48 1    
    95   47   49 1    
    96   47  170 1    
    97   48  171 1    
    98   48  172 1    
    99   48  173 1    
   100   49   50 am   BACKBONE|DICT|INTERRES
   101   49  174 1    
   102   50   51 2    
   103   50   52 1    
   104   52   53 1    
   105   52   54 1    
   106   52  175 1    
   107   53  176 1    
   108   53  177 1    
   109   53  178 1    
   110   54   55 am   BACKBONE|DICT|INTERRES
   111   54  179 1    
   112   55   56 2    
   113   55   57 1    
   114   57   58 1    
   115   57   59 1    
   116   57  180 1    
   117   58  181 1    
   118   58  182 1    
   119   58  183 1    
   120   59   60 am   BACKBONE|DICT|INTERRES
   121   59  184 1    
   122   60   61 2    
   123   60   62 1    
   124   62   63 1    
   125   62   64 1    
   126   62  185 1    
   127   63  186 1    
   128   63  187 1    
   129   63  188 1    
   130   64   65 am   BACKBONE|DICT|INTERRES
   131   64  189 1    
   132   65   66 2    
   133   67   68 2    
   134   67   69 am   BACKBONE|DICT|INTERRES
   135   69   70 1    
   136   69  190 1    
   137   70   71 1    
   138   70   72 1    
   139   70  191 1    
   140   71  192 1    
   141   71  193 1    
   142   71  194 1    
   143   72   73 2    
   144   72   74 am   BACKBONE|DICT|INTERRES
   145   74   75 1    
   146   74  195 1    
   147   75   76 1    
   148   75   77 1    
   149   75  196 1    
   150   76  197 1    
   151   76  198 1    
   152   76  199 1    
   153   77   78 2    
   154   77   79 am   BACKBONE|DICT|INTERRES
   155   79   80 1    
   156   79  200 1    
   157   80   81 1    
   158   80   82 1    
   159   80  201 1    
   160   81  202 1    
   161   81  203 1    
   162   81  204 1    
   163   82   83 2    
   164   82   84 am   BACKBONE|DICT|INTERRES
   165   84   85 1    
   166   84  205 1    
   167   85   86 1    
   168   85   87 1    
   169   85  206 1    
   170   86  207 1    
   171   86  208 1    
   172   86  209 1    
   173   87   88 2    
   174   87   89 am   BACKBONE|DICT|INTERRES
   175   89   90 1    
   176   89  210 1    
   177   90   91 1    
   178   90   92 1    
   179   90  211 1    
   180   91  212 1    
   181   91  213 1    
   182   91  214 1    
   183   92   93 2    
   184   92   94 am   BACKBONE|DICT|INTERRES
   185   94   95 1    
   186   94  215 1    
   187   95   96 1    
   188   95   97 1    
   189   95  216 1    
   190   96  217 1    
   191   96  218 1    
   192   96  219 1    
   193   97   98 2    
   194   97   99 am   BACKBONE|DICT|INTERRES
   195   99  100 1    
   196   99  220 1    
   197  100  101 1    
   198  100  102 1    
   199  100  221 1    
   200  101  222 1    
   201  101  223 1    
   202  101  224 1    
   203  102  103 2    
   204  102  104 am   BACKBONE|DICT|INTERRES
   205  104  105 1    
   206  104  225 1    
   207  105  106 1    
   208  105  107 1    
   209  105  226 1    
   210  106  227 1    
   211  106  228 1    
   212  106  229 1    
   213  107  108 2    
   214  107  109 am   BACKBONE|DICT|INTERRES
   215  109  110 1    
   216  109  230 1    
   217  110  111 1    
   218  110  112 1    
   219  110  231 1    
   220  111  232 1    
   221  111  233 1    
   222  111  234 1    
   223  112  113 2    
   224  112  114 am   BACKBONE|DICT|INTERRES
   225  114  115 1    
   226  114  235 1    
   227  115  116 1    
   228  115  117 1    
   229  115  236 1    
   230  116  237 1    
   231  116  238 1    
   232  116  239 1    
   233  117  118 2    
   234  117  119 am   BACKBONE|DICT|INTERRES
   235  119  120 1    
   236  119  240 1    
   237  120  121 1    
   238  120  124 1    
   239  120  241 1    
   240  121  122 am   BACKBONE|DICT|INTERRES
   241  121  123 2    
   242  122  242 1    
   243  122  243 1    
   244  124  125 1    
   245  124  244 1    
   246  124  245 1    
   247  125  126 1    
   248  126  246 1    
   249  126  247 1    
@<TRIPOS>SUBSTRUCTURE
     1 UNK         1 GROUP             0       ****    0 ROOT    
