@<TRIPOS>MOLECULE
3R540
247   249    1
SMALL
USER_CHARGES


@<TRIPOS>ATOM
      1 CA          4.0742  -12.7837  -45.2946 C.3       0 UNK        -0.1800 
      2 C           2.6823  -13.3848  -45.4186 C.2       0 UNK         0.5000 
      3 O           1.8946  -13.3152  -44.4745 O.2       0 UNK        -0.5000 
      4 N           2.3721  -13.9697  -46.5821 N.am      1 UNK        -0.5000 
      5 CA          1.0952  -14.6351  -46.8730 C.3       1 UNK         0.1400 
      6 C6          1.1324  -15.4423  -48.1933 C.3       23 UNK        -0.0398 
      7 S7          2.4711  -16.6793  -48.1854 S.3       23 UNK        -0.2404 
      8 C8          2.7319  -16.9681  -49.9633 C.3       23 UNK        -0.0205 
      9 C9          1.5903  -17.7573  -50.5859 C.ar      23 UNK        -0.0193 
     10 C10         0.8420  -17.2166  -51.6366 C.ar      23 UNK        -0.1150 
     11 C11        -0.1999  -17.9499  -52.2133 C.ar      23 UNK        -0.0193 
     12 C12        -0.4989  -19.2231  -51.7220 C.ar      23 UNK        -0.1150 
     13 C13         0.2427  -19.7732  -50.6743 C.ar      23 UNK        -0.0193 
     14 C14         1.2936  -19.0413  -50.1185 C.ar      23 UNK        -0.1150 
     15 C15        -0.1005  -21.1551  -50.1477 C.3       23 UNK        -0.0205 
     16 S16        -1.3921  -21.0607  -48.8742 S.3       23 UNK        -0.2404 
     17 C17        -0.4139  -20.8762  -47.3430 C.3       23 UNK        -0.0398 
     18 CA         -0.0937  -22.2307  -46.6632 C.3       11 UNK         0.1400 
     19 N           0.8578  -22.0858  -45.5580 N.am      11 UNK        -0.5000 
     20 C           1.4505  -23.1106  -44.9265 C.2       10 UNK         0.5000 
     21 O           1.3233  -24.2856  -45.2673 O.2       10 UNK        -0.5000 
     22 CA          2.2792  -22.7778  -43.6715 C.3       10 UNK         0.1400 
     23 CB          3.6989  -22.3330  -44.0515 C.3       10 UNK        -0.1800 
     24 N           1.6458  -21.7560  -42.8370 N.am      10 UNK        -0.5000 
     25 C           0.4641  -21.9023  -42.2204 C.2       9 UNK         0.5000 
     26 O          -0.1825  -22.9494  -42.2260 O.2       9 UNK        -0.5000 
     27 CA         -0.1249  -20.6509  -41.5422 C.3       9 UNK         0.1400 
     28 CB          0.4578  -20.4515  -40.1353 C.3       9 UNK        -0.1800 
     29 N           0.0786  -19.4430  -42.3454 N.am      9 UNK        -0.5000 
     30 C          -0.4839  -19.2355  -43.5453 C.2       8 UNK         0.5000 
     31 O          -1.2864  -20.0098  -44.0646 O.2       8 UNK        -0.5000 
     32 CA         -0.0365  -17.9831  -44.3167 C.3       8 UNK         0.1400 
     33 CB         -0.8664  -16.7646  -43.8891 C.3       8 UNK        -0.1800 
     34 N           1.3904  -17.7182  -44.1239 N.am      8 UNK        -0.5000 
     35 C           2.3651  -18.4471  -44.6900 C.2       7 UNK         0.5000 
     36 O           2.1461  -19.3708  -45.4739 O.2       7 UNK        -0.5000 
     37 CA          3.8190  -18.1383  -44.2720 C.3       7 UNK         0.1400 
     38 CB          4.4457  -17.0790  -45.1877 C.3       7 UNK        -0.1800 
     39 N           3.9318  -17.6907  -42.8842 N.am      7 UNK        -0.5000 
     40 C           3.6761  -18.4581  -41.8164 C.2       6 UNK         0.5000 
     41 O           3.3853  -19.6505  -41.8960 O.2       6 UNK        -0.5000 
     42 CA          3.6930  -17.7704  -40.4349 C.3       6 UNK         0.1400 
     43 CB          5.0562  -17.9675  -39.7562 C.3       6 UNK        -0.1800 
     44 N           3.3738  -16.3369  -40.4676 N.am      6 UNK        -0.5000 
     45 C           2.2440  -15.8075  -40.9582 C.2       5 UNK         0.5000 
     46 O           1.3452  -16.4946  -41.4493 O.2       5 UNK        -0.5000 
     47 CA          2.1317  -14.2680  -40.9315 C.3       5 UNK         0.1400 
     48 CB          3.4088  -13.5928  -41.4647 C.3       5 UNK        -0.1800 
     49 N           1.0000  -13.7996  -41.7301 N.am      5 UNK        -0.5000 
     50 C          -0.2741  -13.7589  -41.3167 C.2       4 UNK         0.5000 
     51 O          -0.6309  -14.0571  -40.1748 O.2       4 UNK        -0.5000 
     52 CA         -1.3137  -13.2980  -42.3619 C.3       4 UNK         0.1400 
     53 CB         -2.6763  -12.9150  -41.7468 C.3       4 UNK        -0.1800 
     54 N          -0.8016  -12.2345  -43.2311 N.am      4 UNK        -0.5000 
     55 C          -0.4379  -10.9930  -42.8730 C.2       3 UNK         0.5000 
     56 O          -0.5655  -10.5399  -41.7349 O.2       3 UNK        -0.5000 
     57 CA          0.1991  -10.1055  -43.9614 C.3       3 UNK         0.1400 
     58 CB          1.6750   -9.8287  -43.6298 C.3       3 UNK        -0.1800 
     59 N           0.1233  -10.6971  -45.2990 N.am      3 UNK        -0.5000 
     60 C          -0.9321  -10.6119  -46.1204 C.2       2 UNK         0.5000 
     61 O          -1.9609   -9.9930  -45.8478 O.2       2 UNK        -0.5000 
     62 CA         -0.8233  -11.3457  -47.4721 C.3       2 UNK         0.1400 
     63 CB         -0.4225  -10.3639  -48.5838 C.3       2 UNK        -0.1800 
     64 N           0.1377  -12.4517  -47.4473 N.am      2 UNK        -0.5000 
     65 C          -0.0836  -13.6403  -46.8674 C.2       1 UNK         0.5000 
     66 O          -1.1363  -13.9404  -46.3046 O.2       1 UNK        -0.5000 
     67 C          -1.3649  -22.9880  -46.2192 C.2       11 UNK         0.5000 
     68 O          -1.7745  -23.9267  -46.9006 O.2       11 UNK        -0.5000 
     69 N          -1.9410  -22.6129  -45.0681 N.am      12 UNK        -0.5000 
     70 CA         -3.1050  -23.2754  -44.4733 C.3       12 UNK         0.1400 
     71 CB         -3.5690  -22.4992  -43.2322 C.3       12 UNK        -0.1800 
     72 C          -2.8453  -24.7572  -44.1384 C.2       12 UNK         0.5000 
     73 O          -3.6864  -25.6033  -44.4436 O.2       12 UNK        -0.5000 
     74 N          -1.6604  -25.0544  -43.5856 N.am      13 UNK        -0.5000 
     75 CA         -1.1766  -26.4126  -43.3186 C.3       13 UNK         0.1400 
     76 CB          0.1213  -26.3376  -42.5009 C.3       13 UNK        -0.1800 
     77 C          -0.9685  -27.2528  -44.5966 C.2       13 UNK         0.5000 
     78 O          -1.1450  -28.4705  -44.5569 O.2       13 UNK        -0.5000 
     79 N          -0.6403  -26.5872  -45.7117 N.am      14 UNK        -0.5000 
     80 CA         -0.5172  -27.1651  -47.0521 C.3       14 UNK         0.1400 
     81 CB          0.5140  -26.3490  -47.8512 C.3       14 UNK        -0.1800 
     82 C          -1.8653  -27.2640  -47.8037 C.2       14 UNK         0.5000 
     83 O          -1.8627  -27.5947  -48.9900 O.2       14 UNK        -0.5000 
     84 N          -2.9829  -26.9947  -47.1111 N.am      15 UNK        -0.5000 
     85 CA         -4.3696  -27.0356  -47.5869 C.3       15 UNK         0.1400 
     86 CB         -4.7517  -28.4307  -48.1277 C.3       15 UNK        -0.1800 
     87 C          -4.7323  -25.8803  -48.5436 C.2       15 UNK         0.5000 
     88 O          -5.5791  -26.0544  -49.4222 O.2       15 UNK        -0.5000 
     89 N          -4.1273  -24.7082  -48.3065 N.am      16 UNK        -0.5000 
     90 CA         -4.3659  -23.4187  -48.9595 C.3       16 UNK         0.1400 
     91 CB         -5.8383  -22.9785  -48.7939 C.3       16 UNK        -0.1800 
     92 C          -3.8746  -23.3555  -50.4220 C.2       16 UNK         0.5000 
     93 O          -3.1751  -24.2543  -50.8958 O.2       16 UNK        -0.5000 
     94 N          -4.2106  -22.2462  -51.0928 N.am      17 UNK        -0.5000 
     95 CA         -3.8719  -21.9505  -52.4840 C.3       17 UNK         0.1400 
     96 CB         -4.2146  -20.4782  -52.7553 C.3       17 UNK        -0.1800 
     97 C          -4.6087  -22.8674  -53.4804 C.2       17 UNK         0.5000 
     98 O          -5.6565  -23.4293  -53.1501 O.2       17 UNK        -0.5000 
     99 N          -4.0629  -22.9770  -54.6981 N.am      18 UNK        -0.5000 
    100 CA        -4.6260  -23.7874  -55.7812 C.3       18 UNK         0.1400 
    101 CB        -3.5272  -24.0734  -56.8167 C.3       18 UNK        -0.1800 
    102 C         -5.8453  -23.1301  -56.4561 C.2       18 UNK         0.5000 
    103 O         -6.6639  -23.8373  -57.0456 O.2       18 UNK        -0.5000 
    104 N         -5.9479  -21.8009  -56.3597 N.am      19 UNK        -0.5000 
    105 CA        -7.0238  -20.9822  -56.9033 C.3       19 UNK         0.1400 
    106 CB        -6.7616  -20.7128  -58.3976 C.3       19 UNK        -0.1800 
    107 C         -7.0971  -19.6679  -56.1142 C.2       19 UNK         0.5000 
    108 O         -6.1865  -19.3607  -55.3399 O.2       19 UNK        -0.5000 
    109 N         -8.1570  -18.8859  -56.3609 N.am      20 UNK        -0.5000 
    110 CA        -8.3434  -17.5370  -55.8119 C.3       20 UNK         0.1400 
    111 CB        -9.7617  -17.0490  -56.1434 C.3       20 UNK        -0.1800 
    112 C         -7.2910  -16.5278  -56.3178 C.2       20 UNK         0.5000 
    113 O         -6.9563  -15.5842  -55.6020 O.2       20 UNK        -0.5000 
    114 N         -6.7543  -16.7789  -57.5195 N.am      21 UNK        -0.5000 
    115 CA        -5.6285  -16.0672  -58.1272 C.3       21 UNK         0.1400 
    116 CB        -5.8944  -15.9290  -59.6371 C.3       21 UNK        -0.1800 
    117 C         -4.2891  -16.7804  -57.8328 C.2       21 UNK         0.5000 
    118 O         -3.3884  -16.7733  -58.6737 O.2       21 UNK        -0.5000 
    119 N         -4.1905  -17.4178  -56.6590 N.am      22 UNK        -0.5000 
    120 CA        -3.0713  -18.2299  -56.1564 C.3       22 UNK         0.1400 
    121 C         -2.9205  -19.6066  -56.8651 C.2       22 UNK         0.5000 
    122 N         -2.9512  -19.6596  -58.1895 N.am      22 UNK        -0.7600 
    123 O         -2.8092  -20.6363  -56.2046 O.2       22 UNK        -0.5000 
    124 C124       -1.7366  -17.4390  -56.0855 C.3       23 UNK        -0.0398 
    125 S125       -0.5248  -18.1716  -54.9371 S.3       23 UNK        -0.2404 
    126 C126       -1.0035  -17.3806  -53.3707 C.3       23 UNK        -0.0205 
    127 H127        4.0106  -11.7496  -44.9574 H         1 UNK         0.0600 
    128 H128        4.6625  -13.3452  -44.5696 H         1 UNK         0.0600 
    129 H129        4.6058  -12.7975  -46.2462 H         1 UNK         0.0600 
    130 H130        3.0658  -14.0179  -47.3147 H         1 UNK         0.3000 
    131 H131        0.9201  -15.3461  -46.0643 H         1 UNK         0.0600 
    132 H132        1.2651  -14.7772  -49.0484 H         1 UNK         0.0800 
    133 H133        0.1889  -15.9684  -48.3511 H         1 UNK         0.0800 
    134 H134        3.6573  -17.5306  -50.0941 H         1 UNK         0.0800 
    135 H135        2.8788  -16.0139  -50.4714 H         1 UNK         0.0800 
    136 H136        1.0750  -16.2299  -52.0117 H         1 UNK         0.1150 
    137 H137       -1.3053  -19.7909  -52.1635 H         1 UNK         0.1150 
    138 H138        1.8758  -19.4618  -49.3106 H         1 UNK         0.1150 
    139 H139       -0.4626  -21.7802  -50.9654 H         1 UNK         0.0800 
    140 H140        0.7866  -21.6536  -49.7540 H         1 UNK         0.0800 
    141 H141        0.5095  -20.3437  -47.5716 H         1 UNK         0.0800 
    142 H142       -0.9693  -20.2271  -46.6662 H         1 UNK         0.0800 
    143 H143        0.4002  -22.8555  -47.4104 H         1 UNK         0.0600 
    144 H144        1.0662  -21.1412  -45.2553 H         1 UNK         0.3000 
    145 H145        2.3591  -23.6887  -43.0749 H         1 UNK         0.0600 
    146 H146        4.3007  -22.1333  -43.1647 H         1 UNK         0.0600 
    147 H147        4.2089  -23.1088  -44.6239 H         1 UNK         0.0600 
    148 H148        3.6904  -21.4298  -44.6606 H         1 UNK         0.0600 
    149 H149        2.1550  -20.8858  -42.7125 H         1 UNK         0.3000 
    150 H150       -1.2011  -20.8041  -41.4401 H         1 UNK         0.0600 
    151 H151        0.2343  -21.3096  -39.5003 H         1 UNK         0.0600 
    152 H152        0.0341  -19.5705  -39.6529 H         1 UNK         0.0600 
    153 H153        1.5408  -20.3362  -40.1541 H         1 UNK         0.0600 
    154 H154        0.7171  -18.7469  -41.9846 H         1 UNK         0.3000 
    155 H155       -0.2127  -18.1533  -45.3810 H         1 UNK         0.0600 
    156 H156       -0.5014  -15.8504  -44.3531 H         1 UNK         0.0600 
    157 H157       -0.8523  -16.6197  -42.8091 H         1 UNK         0.0600 
    158 H158       -1.9090  -16.8856  -44.1848 H         1 UNK         0.0600 
    159 H159        1.6273  -17.0358  -43.4134 H         1 UNK         0.3000 
    160 H160        4.3975  -19.0586  -44.3747 H         1 UNK         0.0600 
    161 H161        3.8684  -16.1546  -45.1886 H         1 UNK         0.0600 
    162 H162        4.4971  -17.4405  -46.2147 H         1 UNK         0.0600 
    163 H163        5.4644  -16.8407  -44.8817 H         1 UNK         0.0600 
    164 H164        4.1679  -16.7217  -42.7331 H         1 UNK         0.3000 
    165 H165        2.9332  -18.2593  -39.8222 H         1 UNK         0.0600 
    166 H166        5.8553  -17.4689  -40.3063 H         1 UNK         0.0600 
    167 H167        5.0518  -17.5755  -38.7390 H         1 UNK         0.0600 
    168 H168        5.3119  -19.0262  -39.6931 H         1 UNK         0.0600 
    169 H169        4.0726  -15.7171  -40.0842 H         1 UNK         0.3000 
    170 H170        1.9860  -13.9610  -39.8940 H         1 UNK         0.0600 
    171 H171        4.2535  -13.7461  -40.7927 H         1 UNK         0.0600 
    172 H172        3.6895  -13.9839  -42.4424 H         1 UNK         0.0600 
    173 H173        3.2741  -12.5153  -41.5643 H         1 UNK         0.0600 
    174 H174        1.2065  -13.5667  -42.6980 H         1 UNK         0.3000 
    175 H175       -1.4891  -14.1528  -43.0135 H         1 UNK         0.0600 
    176 H176       -3.3790  -12.5932  -42.5153 H         1 UNK         0.0600 
    177 H177       -3.1246  -13.7673  -41.2349 H         1 UNK         0.0600 
    178 H178       -2.5837  -12.1103  -41.0172 H         1 UNK         0.0600 
    179 H179       -0.6221  -12.5083  -44.1875 H         1 UNK         0.3000 
    180 H180       -0.3332   -9.1521  -43.9621 H         1 UNK         0.0600 
    181 H181        2.1450   -9.2102  -44.3946 H         1 UNK         0.0600 
    182 H182        1.7682   -9.2976  -42.6817 H         1 UNK         0.0600 
    183 H183        2.2481  -10.7517  -43.5415 H         1 UNK         0.0600 
    184 H184        0.9147  -11.2528  -45.5880 H         1 UNK         0.3000 
    185 H185       -1.8107  -11.7467  -47.7107 H         1 UNK         0.0600 
    186 H186       -0.4043  -10.8556  -49.5566 H         1 UNK         0.0600 
    187 H187       -1.1332   -9.5391  -48.6516 H         1 UNK         0.0600 
    188 H188        0.5637   -9.9334  -48.4056 H         1 UNK         0.0600 
    189 H189        1.0374  -12.2807  -47.8729 H         1 UNK         0.3000 
    190 H190       -1.5792  -21.7976  -44.5795 H         1 UNK         0.3000 
    191 H191       -3.9100  -23.2419  -45.2105 H         1 UNK         0.0600 
    192 H192       -4.4693  -22.9455  -42.8083 H         1 UNK         0.0600 
    193 H193       -3.8040  -21.4639  -43.4800 H         1 UNK         0.0600 
    194 H194       -2.8090  -22.4914  -42.4515 H         1 UNK         0.0600 
    195 H195       -1.0450  -24.2910  -43.3166 H         1 UNK         0.3000 
    196 H196       -1.9307  -26.9192  -42.7129 H         1 UNK         0.0600 
    197 H197        0.4835  -27.3353  -42.2499 H         1 UNK         0.0600 
    198 H198       -0.0330  -25.8018  -41.5640 H         1 UNK         0.0600 
    199 H199        0.9136  -25.8290  -43.0500 H         1 UNK         0.0600 
    200 H200       -0.4864  -25.5881  -45.6468 H         1 UNK         0.3000 
    201 H201       -0.1324  -28.1826  -46.9597 H         1 UNK         0.0600 
    202 H202        1.4663  -26.2922  -47.3238 H         1 UNK         0.0600 
    203 H203        0.1709  -25.3306  -48.0319 H         1 UNK         0.0600 
    204 H204        0.7099  -26.8048  -48.8223 H         1 UNK         0.0600 
    205 H205       -2.8757  -26.6933  -46.1502 H         1 UNK         0.3000 
    206 H206       -4.9783  -26.8690  -46.6971 H         1 UNK         0.0600 
    207 H207       -4.4788  -29.2163  -47.4232 H         1 UNK         0.0600 
    208 H208       -5.8276  -28.5028  -48.2908 H         1 UNK         0.0600 
    209 H209       -4.2662  -28.6468  -49.0795 H         1 UNK         0.0600 
    210 H210       -3.3639  -24.6941  -47.6352 H         1 UNK         0.3000 
    211 H211       -3.7576  -22.7056  -48.4044 H         1 UNK         0.0600 
    212 H212       -6.5068  -23.5461  -49.4421 H         1 UNK         0.0600 
    213 H213       -5.9687  -21.9232  -49.0344 H         1 UNK         0.0600 
    214 H214       -6.1761  -23.1115  -47.7660 H         1 UNK         0.0600 
    215 H215       -4.7982  -21.5686  -50.6314 H         1 UNK         0.3000 
    216 H216       -2.7964  -22.0923  -52.6099 H         1 UNK         0.0600 
    217 H217       -3.9137  -20.1910  -53.7608 H         1 UNK         0.0600 
    218 H218       -3.7028  -19.8125  -52.0604 H         1 UNK         0.0600 
    219 H219       -5.2861  -20.2916  -52.6716 H         1 UNK         0.0600 
    220 H220       -3.2553  -22.4139  -54.9386 H         1 UNK         0.3000 
    221 H221       -4.9546  -24.7426  -55.3661 H         1 UNK         0.0600 
    222 H222       -3.1561  -23.1557  -57.2743 H         1 UNK         0.0600 
    223 H223       -2.6808  -24.5887  -56.3625 H         1 UNK         0.0600 
    224 H224       -3.9028  -24.7104  -57.6185 H         1 UNK         0.0600 
    225 H225       -5.2528  -21.2864  -55.8320 H         1 UNK         0.3000 
    226 H226       -7.9745  -21.5052  -56.7811 H         1 UNK         0.0600 
    227 H227       -7.5661  -20.1277  -58.8440 H         1 UNK         0.0600 
    228 H228       -5.8315  -20.1630  -58.5475 H         1 UNK         0.0600 
    229 H229       -6.6925  -21.6426  -58.9623 H         1 UNK         0.0600 
    230 H230       -8.8679  -19.2109  -57.0006 H         1 UNK         0.3000 
    231 H231       -8.2462  -17.5976  -54.7258 H         1 UNK         0.0600 
    232 H232       -9.9407  -16.0571  -55.7262 H         1 UNK         0.0600 
    233 H233      -10.5163  -17.7161  -55.7262 H         1 UNK         0.0600 
    234 H234       -9.9253  -16.9866  -57.2200 H         1 UNK         0.0600 
    235 H235       -7.0868  -17.5891  -58.0211 H         1 UNK         0.3000 
    236 H236       -5.5551  -15.0625  -57.7066 H         1 UNK         0.0600 
    237 H237       -5.9277  -16.9013  -60.1304 H         1 UNK         0.0600 
    238 H238       -6.8426  -15.4250  -59.8251 H         1 UNK         0.0600 
    239 H239       -5.1156  -15.3392  -60.1221 H         1 UNK         0.0600 
    240 H240       -5.0101  -17.4297  -56.0673 H         1 UNK         0.3000 
    241 H241       -3.3622  -18.4508  -55.1302 H         1 UNK         0.0600 
    242 H242       -2.8588  -20.5441  -58.6616 H         1 UNK         0.3800 
    243 H243       -3.0388  -18.8003  -58.7185 H         1 UNK         0.3800 
    244 H244       -1.9248  -16.4116  -55.7711 H         1 UNK         0.0800 
    245 H245       -1.2774  -17.3666  -57.0726 H         1 UNK         0.0800 
    246 H246       -0.8586  -16.3019  -53.4477 H         1 UNK         0.0800 
    247 H247       -2.0668  -17.5411  -53.1860 H         1 UNK         0.0800 
@<TRIPOS>BOND
     1    1    2 1    
     2    1  127 1    
     3    1  128 1    
     4    1  129 1    
     5    2    3 2    
     6    2    4 am   BACKBONE|DICT|INTERRES
     7    4    5 1    
     8    4  130 1    
     9    5    6 1    
    10    5   65 1    
    11    5  131 1    
    12    6    7 1    
    13    6  132 1    
    14    6  133 1    
    15    7    8 1    
    16    8    9 1    
    17    8  134 1    
    18    8  135 1    
    19    9   10 ar   
    20    9   14 ar   
    21   10   11 ar   
    22   10  136 1    
    23   11   12 ar   
    24   11  126 1    
    25   12   13 ar   
    26   12  137 1    
    27   13   14 ar   
    28   13   15 1    
    29   14  138 1    
    30   15   16 1    
    31   15  139 1    
    32   15  140 1    
    33   16   17 1    
    34   17   18 1    
    35   17  141 1    
    36   17  142 1    
    37   18   19 1    
    38   18   67 1    
    39   18  143 1    
    40   19   20 am   BACKBONE|DICT|INTERRES
    41   19  144 1    
    42   20   21 2    
    43   20   22 1    
    44   22   23 1    
    45   22   24 1    
    46   22  145 1    
    47   23  146 1    
    48   23  147 1    
    49   23  148 1    
    50   24   25 am   BACKBONE|DICT|INTERRES
    51   24  149 1    
    52   25   26 2    
    53   25   27 1    
    54   27   28 1    
    55   27   29 1    
    56   27  150 1    
    57   28  151 1    
    58   28  152 1    
    59   28  153 1    
    60   29   30 am   BACKBONE|DICT|INTERRES
    61   29  154 1    
    62   30   31 2    
    63   30   32 1    
    64   32   33 1    
    65   32   34 1    
    66   32  155 1    
    67   33  156 1    
    68   33  157 1    
    69   33  158 1    
    70   34   35 am   BACKBONE|DICT|INTERRES
    71   34  159 1    
    72   35   36 2    
    73   35   37 1    
    74   37   38 1    
    75   37   39 1    
    76   37  160 1    
    77   38  161 1    
    78   38  162 1    
    79   38  163 1    
    80   39   40 am   BACKBONE|DICT|INTERRES
    81   39  164 1    
    82   40   41 2    
    83   40   42 1    
    84   42   43 1    
    85   42   44 1    
    86   42  165 1    
    87   43  166 1    
    88   43  167 1    
    89   43  168 1    
    90   44   45 am   BACKBONE|DICT|INTERRES
    91   44  169 1    
    92   45   46 2    
    93   45   47 1    
    94   47   48 1    
    95   47   49 1    
    96   47  170 1    
    97   48  171 1    
    98   48  172 1    
    99   48  173 1    
   100   49   50 am   BACKBONE|DICT|INTERRES
   101   49  174 1    
   102   50   51 2    
   103   50   52 1    
   104   52   53 1    
   105   52   54 1    
   106   52  175 1    
   107   53  176 1    
   108   53  177 1    
   109   53  178 1    
   110   54   55 am   BACKBONE|DICT|INTERRES
   111   54  179 1    
   112   55   56 2    
   113   55   57 1    
   114   57   58 1    
   115   57   59 1    
   116   57  180 1    
   117   58  181 1    
   118   58  182 1    
   119   58  183 1    
   120   59   60 am   BACKBONE|DICT|INTERRES
   121   59  184 1    
   122   60   61 2    
   123   60   62 1    
   124   62   63 1    
   125   62   64 1    
   126   62  185 1    
   127   63  186 1    
   128   63  187 1    
   129   63  188 1    
   130   64   65 am   BACKBONE|DICT|INTERRES
   131   64  189 1    
   132   65   66 2    
   133   67   68 2    
   134   67   69 am   BACKBONE|DICT|INTERRES
   135   69   70 1    
   136   69  190 1    
   137   70   71 1    
   138   70   72 1    
   139   70  191 1    
   140   71  192 1    
   141   71  193 1    
   142   71  194 1    
   143   72   73 2    
   144   72   74 am   BACKBONE|DICT|INTERRES
   145   74   75 1    
   146   74  195 1    
   147   75   76 1    
   148   75   77 1    
   149   75  196 1    
   150   76  197 1    
   151   76  198 1    
   152   76  199 1    
   153   77   78 2    
   154   77   79 am   BACKBONE|DICT|INTERRES
   155   79   80 1    
   156   79  200 1    
   157   80   81 1    
   158   80   82 1    
   159   80  201 1    
   160   81  202 1    
   161   81  203 1    
   162   81  204 1    
   163   82   83 2    
   164   82   84 am   BACKBONE|DICT|INTERRES
   165   84   85 1    
   166   84  205 1    
   167   85   86 1    
   168   85   87 1    
   169   85  206 1    
   170   86  207 1    
   171   86  208 1    
   172   86  209 1    
   173   87   88 2    
   174   87   89 am   BACKBONE|DICT|INTERRES
   175   89   90 1    
   176   89  210 1    
   177   90   91 1    
   178   90   92 1    
   179   90  211 1    
   180   91  212 1    
   181   91  213 1    
   182   91  214 1    
   183   92   93 2    
   184   92   94 am   BACKBONE|DICT|INTERRES
   185   94   95 1    
   186   94  215 1    
   187   95   96 1    
   188   95   97 1    
   189   95  216 1    
   190   96  217 1    
   191   96  218 1    
   192   96  219 1    
   193   97   98 2    
   194   97   99 am   BACKBONE|DICT|INTERRES
   195   99  100 1    
   196   99  220 1    
   197  100  101 1    
   198  100  102 1    
   199  100  221 1    
   200  101  222 1    
   201  101  223 1    
   202  101  224 1    
   203  102  103 2    
   204  102  104 am   BACKBONE|DICT|INTERRES
   205  104  105 1    
   206  104  225 1    
   207  105  106 1    
   208  105  107 1    
   209  105  226 1    
   210  106  227 1    
   211  106  228 1    
   212  106  229 1    
   213  107  108 2    
   214  107  109 am   BACKBONE|DICT|INTERRES
   215  109  110 1    
   216  109  230 1    
   217  110  111 1    
   218  110  112 1    
   219  110  231 1    
   220  111  232 1    
   221  111  233 1    
   222  111  234 1    
   223  112  113 2    
   224  112  114 am   BACKBONE|DICT|INTERRES
   225  114  115 1    
   226  114  235 1    
   227  115  116 1    
   228  115  117 1    
   229  115  236 1    
   230  116  237 1    
   231  116  238 1    
   232  116  239 1    
   233  117  118 2    
   234  117  119 am   BACKBONE|DICT|INTERRES
   235  119  120 1    
   236  119  240 1    
   237  120  121 1    
   238  120  124 1    
   239  120  241 1    
   240  121  122 am   BACKBONE|DICT|INTERRES
   241  121  123 2    
   242  122  242 1    
   243  122  243 1    
   244  124  125 1    
   245  124  244 1    
   246  124  245 1    
   247  125  126 1    
   248  126  246 1    
   249  126  247 1    
@<TRIPOS>SUBSTRUCTURE
     1 UNK         1 GROUP             0       ****    0 ROOT    
