@<TRIPOS>MOLECULE
3R540
247   249    1
SMALL
USER_CHARGES


@<TRIPOS>ATOM
      1 CA          6.9764  -17.0236  -46.8654 C.3       0 UNK        -0.1800 
      2 C           5.9599  -17.7602  -47.7258 C.2       0 UNK         0.5000 
      3 O           6.2777  -18.8041  -48.2950 O.2       0 UNK        -0.5000 
      4 N           4.7357  -17.2249  -47.8146 N.am      1 UNK        -0.5000 
      5 CA          3.6184  -17.7895  -48.5892 C.3       1 UNK         0.1400 
      6 C6          2.6031  -16.7038  -49.0263 C.3       23 UNK        -0.0398 
      7 S7          3.3919  -15.3915  -50.0239 S.3       23 UNK        -0.2404 
      8 C8          2.0076  -14.2372  -50.2920 C.3       23 UNK        -0.0205 
      9 C9          0.8312  -14.9070  -50.9856 C.ar      23 UNK        -0.0193 
     10 C10         0.9615  -15.3909  -52.2920 C.ar      23 UNK        -0.1150 
     11 C11        -0.0942  -16.0715  -52.9049 C.ar      23 UNK        -0.0193 
     12 C12        -1.2921  -16.2428  -52.2063 C.ar      23 UNK        -0.1150 
     13 C13        -1.4431  -15.7441  -50.9112 C.ar      23 UNK        -0.0193 
     14 C14        -0.3777  -15.0754  -50.3046 C.ar      23 UNK        -0.1150 
     15 C15        -2.7479  -15.9658  -50.1612 C.3       23 UNK        -0.0205 
     16 S16        -3.0021  -17.7276  -49.7893 S.3       23 UNK        -0.2404 
     17 C17        -1.6594  -18.0293  -48.5842 C.3       23 UNK        -0.0398 
     18 CA         -2.0866  -18.6681  -47.2379 C.3       11 UNK         0.1400 
     19 N          -2.7308  -17.7401  -46.2973 N.am      11 UNK        -0.5000 
     20 C          -3.9430  -17.1680  -46.2968 C.2       10 UNK         0.5000 
     21 O          -4.8231  -17.3987  -47.1234 O.2       10 UNK        -0.5000 
     22 CA         -4.2380  -16.2022  -45.1362 C.3       10 UNK         0.1400 
     23 CB         -4.7798  -16.9770  -43.9247 C.3       10 UNK        -0.1800 
     24 N          -3.0422  -15.4611  -44.7328 N.am      10 UNK        -0.5000 
     25 C          -2.6964  -14.2561  -45.2066 C.2       9 UNK         0.5000 
     26 O          -3.3843  -13.6068  -45.9951 O.2       9 UNK        -0.5000 
     27 CA         -1.3508  -13.6764  -44.7239 C.3       9 UNK         0.1400 
     28 CB         -1.5428  -12.8679  -43.4320 C.3       9 UNK        -0.1800 
     29 N          -0.3353  -14.7032  -44.4936 N.am      9 UNK        -0.5000 
     30 C           0.2216  -15.4531  -45.4537 C.2       8 UNK         0.5000 
     31 O           0.0031  -15.3025  -46.6550 O.2       8 UNK        -0.5000 
     32 CA          1.1592  -16.5854  -44.9974 C.3       8 UNK         0.1400 
     33 CB          2.6230  -16.1242  -45.0584 C.3       8 UNK        -0.1800 
     34 N           0.8789  -17.1019  -43.6541 N.am      8 UNK        -0.5000 
     35 C          -0.2704  -17.6570  -43.2437 C.2       7 UNK         0.5000 
     36 O          -1.2709  -17.7521  -43.9507 O.2       7 UNK        -0.5000 
     37 CA         -0.3240  -18.1598  -41.7928 C.3       7 UNK         0.1400 
     38 CB          0.2527  -19.5800  -41.6808 C.3       7 UNK        -0.1800 
     39 N           0.3874  -17.2627  -40.8844 N.am      7 UNK        -0.5000 
     40 C          -0.0814  -16.0747  -40.4765 C.2       6 UNK         0.5000 
     41 O          -1.1901  -15.6346  -40.7814 O.2       6 UNK        -0.5000 
     42 CA          0.8598  -15.2266  -39.6012 C.3       6 UNK         0.1400 
     43 CB          0.7132  -15.6098  -38.1209 C.3       6 UNK        -0.1800 
     44 N           2.2624  -15.3603  -39.9978 N.am      6 UNK        -0.5000 
     45 C           2.7750  -14.8788  -41.1390 C.2       5 UNK         0.5000 
     46 O           2.1296  -14.2192  -41.9541 O.2       5 UNK        -0.5000 
     47 CA          4.2474  -15.2274  -41.4339 C.3       5 UNK         0.1400 
     48 CB          5.1822  -14.1672  -40.8329 C.3       5 UNK        -0.1800 
     49 N           4.6464  -16.5549  -40.9515 N.am      5 UNK        -0.5000 
     50 C           4.1229  -17.7094  -41.3827 C.2       4 UNK         0.5000 
     51 O           3.2085  -17.7807  -42.2068 O.2       4 UNK        -0.5000 
     52 CA          4.6721  -18.9957  -40.7574 C.3       4 UNK         0.1400 
     53 CB          3.9625  -19.3001  -39.4273 C.3       4 UNK        -0.1800 
     54 N           4.4477  -20.0940  -41.6903 N.am      4 UNK        -0.5000 
     55 C           5.2524  -21.1479  -41.8588 C.2       3 UNK         0.5000 
     56 O           6.2655  -21.3416  -41.1849 O.2       3 UNK        -0.5000 
     57 CA          4.8742  -22.1702  -42.9532 C.3       3 UNK         0.1400 
     58 CB          4.3234  -23.4545  -42.3130 C.3       3 UNK        -0.1800 
     59 N           3.9070  -21.6976  -43.9510 N.am      3 UNK        -0.5000 
     60 C           4.1245  -20.7256  -44.8463 C.2       2 UNK         0.5000 
     61 O           5.1581  -20.0521  -44.8860 O.2       2 UNK        -0.5000 
     62 CA          3.0010  -20.4680  -45.8669 C.3       2 UNK         0.1400 
     63 CB          1.6258  -20.2888  -45.1973 C.3       2 UNK        -0.1800 
     64 N           3.3595  -19.2892  -46.6456 N.am      2 UNK        -0.5000 
     65 C           2.9170  -18.9659  -47.8661 C.2       1 UNK         0.5000 
     66 O           2.0033  -19.5643  -48.4338 O.2       1 UNK        -0.5000 
     67 C          -2.7695  -20.0386  -47.4313 C.2       11 UNK         0.5000 
     68 O          -2.0804  -20.9847  -47.8102 O.2       11 UNK        -0.5000 
     69 N          -4.0776  -20.1437  -47.1630 N.am      12 UNK        -0.5000 
     70 CA         -4.9541  -21.2910  -47.4216 C.3       12 UNK         0.1400 
     71 CB         -6.3427  -20.9896  -46.8401 C.3       12 UNK        -0.1800 
     72 C          -4.4484  -22.6571  -46.9182 C.2       12 UNK         0.5000 
     73 O          -4.7412  -23.6733  -47.5487 O.2       12 UNK        -0.5000 
     74 N          -3.6774  -22.6569  -45.8230 N.am      13 UNK        -0.5000 
     75 CA         -3.0224  -23.8386  -45.2586 C.3       13 UNK         0.1400 
     76 CB         -2.4006  -23.4619  -43.9047 C.3       13 UNK        -0.1800 
     77 C          -1.9537  -24.4562  -46.1849 C.2       13 UNK         0.5000 
     78 O          -1.7614  -25.6722  -46.1545 O.2       13 UNK        -0.5000 
     79 N          -1.2876  -23.6153  -46.9866 N.am      14 UNK        -0.5000 
     80 CA         -0.2767  -24.0105  -47.9673 C.3       14 UNK         0.1400 
     81 CB          0.9240  -23.0602  -47.8494 C.3       14 UNK        -0.1800 
     82 C          -0.8437  -23.9882  -49.3973 C.2       14 UNK         0.5000 
     83 O          -0.4698  -24.8312  -50.2121 O.2       14 UNK        -0.5000 
     84 N          -1.7554  -23.0460  -49.6729 N.am      15 UNK        -0.5000 
     85 CA         -2.3931  -22.8127  -50.9703 C.3       15 UNK         0.1400 
     86 CB         -2.7870  -21.3281  -51.0646 C.3       15 UNK        -0.1800 
     87 C          -3.5911  -23.7431  -51.2621 C.2       15 UNK         0.5000 
     88 O          -4.3935  -23.4234  -52.1404 O.2       15 UNK        -0.5000 
     89 N          -3.6997  -24.8644  -50.5339 N.am      16 UNK        -0.5000 
     90 CA         -4.6637  -25.9571  -50.7111 C.3       16 UNK         0.1400 
     91 CB         -4.3825  -26.7029  -52.0329 C.3       16 UNK        -0.1800 
     92 C          -6.1254  -25.4844  -50.5946 C.2       16 UNK         0.5000 
     93 O          -6.8930  -25.5947  -51.5507 O.2       16 UNK        -0.5000 
     94 N          -6.4628  -24.9027  -49.4350 N.am      17 UNK        -0.5000 
     95 CA         -7.7469  -24.2621  -49.1150 C.3       17 UNK         0.1400 
     96 CB         -8.9074  -25.2791  -49.1380 C.3       17 UNK        -0.1800 
     97 C          -8.0143  -23.0148  -49.9859 C.2       17 UNK         0.5000 
     98 O          -9.1673  -22.6804  -50.2601 O.2       17 UNK        -0.5000 
     99 N          -6.9191  -22.3651  -50.4053 N.am      18 UNK        -0.5000 
    100 CA        -6.8334  -21.2098  -51.3004 C.3       18 UNK         0.1400 
    101 CB        -7.5521  -19.9792  -50.7101 C.3       18 UNK        -0.1800 
    102 C         -7.2397  -21.5117  -52.7587 C.2       18 UNK         0.5000 
    103 O         -7.5128  -20.5801  -53.5161 O.2       18 UNK        -0.5000 
    104 N         -7.2241  -22.7920  -53.1581 N.am      19 UNK        -0.5000 
    105 CA        -7.4350  -23.2223  -54.5422 C.3       19 UNK         0.1400 
    106 CB        -7.7022  -24.7338  -54.5730 C.3       19 UNK        -0.1800 
    107 C         -6.2465  -22.8708  -55.4585 C.2       19 UNK         0.5000 
    108 O         -6.4513  -22.6370  -56.6500 O.2       19 UNK        -0.5000 
    109 N         -5.0362  -22.8269  -54.8861 N.am      20 UNK        -0.5000 
    110 CA        -3.7841  -22.4929  -55.5665 C.3       20 UNK         0.1400 
    111 CB        -2.7424  -23.5733  -55.2245 C.3       20 UNK        -0.1800 
    112 C         -3.2811  -21.0828  -55.1924 C.2       20 UNK         0.5000 
    113 O         -2.1099  -20.7778  -55.4249 O.2       20 UNK        -0.5000 
    114 N         -4.1503  -20.2502  -54.6013 N.am      21 UNK        -0.5000 
    115 CA        -3.8374  -18.8809  -54.1927 C.3       21 UNK         0.1400 
    116 CB        -4.9034  -18.3921  -53.1992 C.3       21 UNK        -0.1800 
    117 C         -3.7105  -17.9091  -55.3835 C.2       21 UNK         0.5000 
    118 O         -4.1655  -18.1997  -56.4922 O.2       21 UNK        -0.5000 
    119 N         -3.1046  -16.7522  -55.1008 N.am      22 UNK        -0.5000 
    120 CA        -2.8455  -15.6457  -56.0326 C.3       22 UNK         0.1400 
    121 C         -4.1029  -14.7961  -56.3904 C.2       22 UNK         0.5000 
    122 N         -5.2460  -14.9765  -55.7395 N.am      22 UNK        -0.7600 
    123 O         -4.0413  -13.9585  -57.2863 O.2       22 UNK        -0.5000 
    124 C124       -1.7018  -14.7439  -55.4903 C.3       23 UNK        -0.0398 
    125 S125       -0.0352  -15.4791  -55.6504 S.3       23 UNK        -0.2404 
    126 C126        0.0841  -16.6855  -54.2868 C.3       23 UNK        -0.0205 
    127 H127        7.3058  -17.6636  -46.0467 H         1 UNK         0.0600 
    128 H128        6.5607  -16.1112  -46.4371 H         1 UNK         0.0600 
    129 H129        7.8480  -16.7533  -47.4616 H         1 UNK         0.0600 
    130 H130        4.5468  -16.3484  -47.3511 H         1 UNK         0.3000 
    131 H131        4.0337  -18.2176  -49.5043 H         1 UNK         0.0600 
    132 H132        2.1122  -16.2510  -48.1652 H         1 UNK         0.0800 
    133 H133        1.8103  -17.1519  -49.6283 H         1 UNK         0.0800 
    134 H134        2.3537  -13.4009  -50.9008 H         1 UNK         0.0800 
    135 H135        1.7056  -13.8162  -49.3315 H         1 UNK         0.0800 
    136 H136        1.8990  -15.2711  -52.8168 H         1 UNK         0.1150 
    137 H137       -2.1046  -16.7992  -52.6424 H         1 UNK         0.1150 
    138 H138       -0.4810  -14.7096  -49.2923 H         1 UNK         0.1150 
    139 H139       -2.7740  -15.3920  -49.2330 H         1 UNK         0.0800 
    140 H140       -3.5789  -15.6077  -50.7700 H         1 UNK         0.0800 
    141 H141       -1.1327  -17.0976  -48.3788 H         1 UNK         0.0800 
    142 H142       -0.9226  -18.6686  -49.0746 H         1 UNK         0.0800 
    143 H143       -1.1545  -18.9126  -46.7267 H         1 UNK         0.0600 
    144 H144       -2.1595  -17.5556  -45.4753 H         1 UNK         0.3000 
    145 H145       -5.0132  -15.5076  -45.4664 H         1 UNK         0.0600 
    146 H146       -5.0405  -16.3006  -43.1105 H         1 UNK         0.0600 
    147 H147       -5.6814  -17.5320  -44.1875 H         1 UNK         0.0600 
    148 H148       -4.0520  -17.6943  -43.5432 H         1 UNK         0.0600 
    149 H149       -2.3973  -15.9459  -44.1216 H         1 UNK         0.3000 
    150 H150       -0.9812  -13.0021  -45.4993 H         1 UNK         0.0600 
    151 H151       -2.2726  -12.0699  -43.5750 H         1 UNK         0.0600 
    152 H152       -0.6091  -12.4024  -43.1155 H         1 UNK         0.0600 
    153 H153       -1.8978  -13.4958  -42.6136 H         1 UNK         0.0600 
    154 H154       -0.0700  -14.8799  -43.5346 H         1 UNK         0.3000 
    155 H155        1.0294  -17.4092  -45.7012 H         1 UNK         0.0600 
    156 H156        2.8188  -15.3325  -44.3365 H         1 UNK         0.0600 
    157 H157        2.8743  -15.7276  -46.0409 H         1 UNK         0.0600 
    158 H158        3.3076  -16.9464  -44.8497 H         1 UNK         0.0600 
    159 H159        1.6718  -17.1302  -43.0180 H         1 UNK         0.3000 
    160 H160       -1.3738  -18.1991  -41.4940 H         1 UNK         0.0600 
    161 H161        0.1453  -19.9683  -40.6680 H         1 UNK         0.0600 
    162 H162        1.3104  -19.6148  -41.9395 H         1 UNK         0.0600 
    163 H163       -0.2701  -20.2665  -42.3484 H         1 UNK         0.0600 
    164 H164        1.3277  -17.5257  -40.6306 H         1 UNK         0.3000 
    165 H165        0.5684  -14.1800  -39.7144 H         1 UNK         0.0600 
    166 H166        1.3238  -14.9682  -37.4853 H         1 UNK         0.0600 
    167 H167       -0.3210  -15.5026  -37.7910 H         1 UNK         0.0600 
    168 H168        1.0103  -16.6436  -37.9395 H         1 UNK         0.0600 
    169 H169        2.8669  -15.8811  -39.3799 H         1 UNK         0.3000 
    170 H170        4.3776  -15.2170  -42.5175 H         1 UNK         0.0600 
    171 H171        4.9237  -13.1701  -41.1920 H         1 UNK         0.0600 
    172 H172        5.1246  -14.1492  -39.7438 H         1 UNK         0.0600 
    173 H173        6.2197  -14.3521  -41.1120 H         1 UNK         0.0600 
    174 H174        5.3849  -16.5781  -40.2629 H         1 UNK         0.3000 
    175 H175        5.7423  -18.8635  -40.5846 H         1 UNK         0.0600 
    176 H176        2.8887  -19.4333  -39.5653 H         1 UNK         0.0600 
    177 H177        4.3548  -20.2097  -38.9723 H         1 UNK         0.0600 
    178 H178        4.1059  -18.4917  -38.7094 H         1 UNK         0.0600 
    179 H179        3.6742  -19.9541  -42.3261 H         1 UNK         0.3000 
    180 H180        5.7956  -22.4232  -43.4818 H         1 UNK         0.0600 
    181 H181        3.3855  -23.2703  -41.7876 H         1 UNK         0.0600 
    182 H182        5.0285  -23.8668  -41.5899 H         1 UNK         0.0600 
    183 H183        4.1443  -24.2253  -43.0628 H         1 UNK         0.0600 
    184 H184        3.0290  -22.1947  -43.9798 H         1 UNK         0.3000 
    185 H185        2.9687  -21.3257  -46.5405 H         1 UNK         0.0600 
    186 H186        1.2747  -21.2201  -44.7524 H         1 UNK         0.0600 
    187 H187        1.6757  -19.5457  -44.4049 H         1 UNK         0.0600 
    188 H188        0.8663  -19.9748  -45.9122 H         1 UNK         0.0600 
    189 H189        4.1631  -18.7956  -46.2762 H         1 UNK         0.3000 
    190 H190       -4.5472  -19.2724  -46.9353 H         1 UNK         0.3000 
    191 H191       -5.0522  -21.3690  -48.5044 H         1 UNK         0.0600 
    192 H192       -7.0436  -21.7984  -47.0472 H         1 UNK         0.0600 
    193 H193       -6.7624  -20.0804  -47.2708 H         1 UNK         0.0600 
    194 H194       -6.3029  -20.8579  -45.7581 H         1 UNK         0.0600 
    195 H195       -3.4867  -21.7727  -45.3755 H         1 UNK         0.3000 
    196 H196       -3.7885  -24.5975  -45.0866 H         1 UNK         0.0600 
    197 H197       -1.9225  -24.3254  -43.4404 H         1 UNK         0.0600 
    198 H198       -3.1580  -23.0990  -43.2096 H         1 UNK         0.0600 
    199 H199       -1.6423  -22.6850  -44.0118 H         1 UNK         0.0600 
    200 H200       -1.5487  -22.6342  -46.9880 H         1 UNK         0.3000 
    201 H201        0.0755  -25.0242  -47.7654 H         1 UNK         0.0600 
    202 H202        1.3730  -23.1259  -46.8588 H         1 UNK         0.0600 
    203 H203        0.6367  -22.0215  -48.0196 H         1 UNK         0.0600 
    204 H204        1.6979  -23.3112  -48.5758 H         1 UNK         0.0600 
    205 H205       -1.9675  -22.3631  -48.9493 H         1 UNK         0.3000 
    206 H206       -1.6574  -23.0054  -51.7534 H         1 UNK         0.0600 
    207 H207       -1.9240  -20.6809  -50.9066 H         1 UNK         0.0600 
    208 H208       -3.1911  -21.0857  -52.0469 H         1 UNK         0.0600 
    209 H209       -3.5396  -21.0617  -50.3238 H         1 UNK         0.0600 
    210 H210       -3.0054  -25.0090  -49.8152 H         1 UNK         0.3000 
    211 H211       -4.4971  -26.6594  -49.8931 H         1 UNK         0.0600 
    212 H212       -3.3568  -27.0702  -52.0666 H         1 UNK         0.0600 
    213 H213       -4.5367  -26.0633  -52.9030 H         1 UNK         0.0600 
    214 H214       -5.0404  -27.5658  -52.1417 H         1 UNK         0.0600 
    215 H215       -5.7396  -24.7770  -48.7296 H         1 UNK         0.3000 
    216 H216       -7.6541  -23.9012  -48.0904 H         1 UNK         0.0600 
    217 H217       -9.8204  -24.8366  -48.7380 H         1 UNK         0.0600 
    218 H218       -8.6779  -26.1530  -48.5286 H         1 UNK         0.0600 
    219 H219       -9.1301  -25.6224  -50.1485 H         1 UNK         0.0600 
    220 H220       -6.0330  -22.7839  -50.1632 H         1 UNK         0.3000 
    221 H221       -5.7725  -20.9675  -51.3466 H         1 UNK         0.0600 
    222 H222       -8.6334  -20.1135  -50.6825 H         1 UNK         0.0600 
    223 H223       -7.2111  -19.7726  -49.6961 H         1 UNK         0.0600 
    224 H224       -7.3519  -19.0862  -51.3030 H         1 UNK         0.0600 
    225 H225       -6.9653  -23.5128  -52.4950 H         1 UNK         0.3000 
    226 H226       -8.3199  -22.7127  -54.9292 H         1 UNK         0.0600 
    227 H227       -7.9401  -25.0673  -55.5838 H         1 UNK         0.0600 
    228 H228       -6.8335  -25.3016  -54.2371 H         1 UNK         0.0600 
    229 H229       -8.5447  -25.0003  -53.9344 H         1 UNK         0.0600 
    230 H230       -4.9555  -23.0346  -53.8924 H         1 UNK         0.3000 
    231 H231       -3.9282  -22.4987  -56.6485 H         1 UNK         0.0600 
    232 H232       -3.1121  -24.5690  -55.4696 H         1 UNK         0.0600 
    233 H233       -2.4851  -23.5638  -54.1655 H         1 UNK         0.0600 
    234 H234       -1.8204  -23.4239  -55.7875 H         1 UNK         0.0600 
    235 H235       -5.1082  -20.5511  -54.4946 H         1 UNK         0.3000 
    236 H236       -2.8766  -18.9003  -53.6735 H         1 UNK         0.0600 
    237 H237       -4.9280  -19.0221  -52.3116 H         1 UNK         0.0600 
    238 H238       -4.6964  -17.3780  -52.8558 H         1 UNK         0.0600 
    239 H239       -5.8989  -18.3901  -53.6443 H         1 UNK         0.0600 
    240 H240       -2.7980  -16.5859  -54.1563 H         1 UNK         0.3000 
    241 H241       -2.5134  -16.0811  -56.9770 H         1 UNK         0.0600 
    242 H242       -5.3210  -15.6669  -55.0110 H         1 UNK         0.3800 
    243 H243       -6.0498  -14.4215  -55.9886 H         1 UNK         0.3800 
    244 H244       -1.6588  -13.8064  -56.0478 H         1 UNK         0.0800 
    245 H245       -1.8848  -14.4543  -54.4548 H         1 UNK         0.0800 
    246 H246        1.0687  -17.1527  -54.3360 H         1 UNK         0.0800 
    247 H247       -0.6242  -17.4981  -54.4474 H         1 UNK         0.0800 
@<TRIPOS>BOND
     1    1    2 1    
     2    1  127 1    
     3    1  128 1    
     4    1  129 1    
     5    2    3 2    
     6    2    4 am   BACKBONE|DICT|INTERRES
     7    4    5 1    
     8    4  130 1    
     9    5    6 1    
    10    5   65 1    
    11    5  131 1    
    12    6    7 1    
    13    6  132 1    
    14    6  133 1    
    15    7    8 1    
    16    8    9 1    
    17    8  134 1    
    18    8  135 1    
    19    9   10 ar   
    20    9   14 ar   
    21   10   11 ar   
    22   10  136 1    
    23   11   12 ar   
    24   11  126 1    
    25   12   13 ar   
    26   12  137 1    
    27   13   14 ar   
    28   13   15 1    
    29   14  138 1    
    30   15   16 1    
    31   15  139 1    
    32   15  140 1    
    33   16   17 1    
    34   17   18 1    
    35   17  141 1    
    36   17  142 1    
    37   18   19 1    
    38   18   67 1    
    39   18  143 1    
    40   19   20 am   BACKBONE|DICT|INTERRES
    41   19  144 1    
    42   20   21 2    
    43   20   22 1    
    44   22   23 1    
    45   22   24 1    
    46   22  145 1    
    47   23  146 1    
    48   23  147 1    
    49   23  148 1    
    50   24   25 am   BACKBONE|DICT|INTERRES
    51   24  149 1    
    52   25   26 2    
    53   25   27 1    
    54   27   28 1    
    55   27   29 1    
    56   27  150 1    
    57   28  151 1    
    58   28  152 1    
    59   28  153 1    
    60   29   30 am   BACKBONE|DICT|INTERRES
    61   29  154 1    
    62   30   31 2    
    63   30   32 1    
    64   32   33 1    
    65   32   34 1    
    66   32  155 1    
    67   33  156 1    
    68   33  157 1    
    69   33  158 1    
    70   34   35 am   BACKBONE|DICT|INTERRES
    71   34  159 1    
    72   35   36 2    
    73   35   37 1    
    74   37   38 1    
    75   37   39 1    
    76   37  160 1    
    77   38  161 1    
    78   38  162 1    
    79   38  163 1    
    80   39   40 am   BACKBONE|DICT|INTERRES
    81   39  164 1    
    82   40   41 2    
    83   40   42 1    
    84   42   43 1    
    85   42   44 1    
    86   42  165 1    
    87   43  166 1    
    88   43  167 1    
    89   43  168 1    
    90   44   45 am   BACKBONE|DICT|INTERRES
    91   44  169 1    
    92   45   46 2    
    93   45   47 1    
    94   47   48 1    
    95   47   49 1    
    96   47  170 1    
    97   48  171 1    
    98   48  172 1    
    99   48  173 1    
   100   49   50 am   BACKBONE|DICT|INTERRES
   101   49  174 1    
   102   50   51 2    
   103   50   52 1    
   104   52   53 1    
   105   52   54 1    
   106   52  175 1    
   107   53  176 1    
   108   53  177 1    
   109   53  178 1    
   110   54   55 am   BACKBONE|DICT|INTERRES
   111   54  179 1    
   112   55   56 2    
   113   55   57 1    
   114   57   58 1    
   115   57   59 1    
   116   57  180 1    
   117   58  181 1    
   118   58  182 1    
   119   58  183 1    
   120   59   60 am   BACKBONE|DICT|INTERRES
   121   59  184 1    
   122   60   61 2    
   123   60   62 1    
   124   62   63 1    
   125   62   64 1    
   126   62  185 1    
   127   63  186 1    
   128   63  187 1    
   129   63  188 1    
   130   64   65 am   BACKBONE|DICT|INTERRES
   131   64  189 1    
   132   65   66 2    
   133   67   68 2    
   134   67   69 am   BACKBONE|DICT|INTERRES
   135   69   70 1    
   136   69  190 1    
   137   70   71 1    
   138   70   72 1    
   139   70  191 1    
   140   71  192 1    
   141   71  193 1    
   142   71  194 1    
   143   72   73 2    
   144   72   74 am   BACKBONE|DICT|INTERRES
   145   74   75 1    
   146   74  195 1    
   147   75   76 1    
   148   75   77 1    
   149   75  196 1    
   150   76  197 1    
   151   76  198 1    
   152   76  199 1    
   153   77   78 2    
   154   77   79 am   BACKBONE|DICT|INTERRES
   155   79   80 1    
   156   79  200 1    
   157   80   81 1    
   158   80   82 1    
   159   80  201 1    
   160   81  202 1    
   161   81  203 1    
   162   81  204 1    
   163   82   83 2    
   164   82   84 am   BACKBONE|DICT|INTERRES
   165   84   85 1    
   166   84  205 1    
   167   85   86 1    
   168   85   87 1    
   169   85  206 1    
   170   86  207 1    
   171   86  208 1    
   172   86  209 1    
   173   87   88 2    
   174   87   89 am   BACKBONE|DICT|INTERRES
   175   89   90 1    
   176   89  210 1    
   177   90   91 1    
   178   90   92 1    
   179   90  211 1    
   180   91  212 1    
   181   91  213 1    
   182   91  214 1    
   183   92   93 2    
   184   92   94 am   BACKBONE|DICT|INTERRES
   185   94   95 1    
   186   94  215 1    
   187   95   96 1    
   188   95   97 1    
   189   95  216 1    
   190   96  217 1    
   191   96  218 1    
   192   96  219 1    
   193   97   98 2    
   194   97   99 am   BACKBONE|DICT|INTERRES
   195   99  100 1    
   196   99  220 1    
   197  100  101 1    
   198  100  102 1    
   199  100  221 1    
   200  101  222 1    
   201  101  223 1    
   202  101  224 1    
   203  102  103 2    
   204  102  104 am   BACKBONE|DICT|INTERRES
   205  104  105 1    
   206  104  225 1    
   207  105  106 1    
   208  105  107 1    
   209  105  226 1    
   210  106  227 1    
   211  106  228 1    
   212  106  229 1    
   213  107  108 2    
   214  107  109 am   BACKBONE|DICT|INTERRES
   215  109  110 1    
   216  109  230 1    
   217  110  111 1    
   218  110  112 1    
   219  110  231 1    
   220  111  232 1    
   221  111  233 1    
   222  111  234 1    
   223  112  113 2    
   224  112  114 am   BACKBONE|DICT|INTERRES
   225  114  115 1    
   226  114  235 1    
   227  115  116 1    
   228  115  117 1    
   229  115  236 1    
   230  116  237 1    
   231  116  238 1    
   232  116  239 1    
   233  117  118 2    
   234  117  119 am   BACKBONE|DICT|INTERRES
   235  119  120 1    
   236  119  240 1    
   237  120  121 1    
   238  120  124 1    
   239  120  241 1    
   240  121  122 am   BACKBONE|DICT|INTERRES
   241  121  123 2    
   242  122  242 1    
   243  122  243 1    
   244  124  125 1    
   245  124  244 1    
   246  124  245 1    
   247  125  126 1    
   248  126  246 1    
   249  126  247 1    
@<TRIPOS>SUBSTRUCTURE
     1 UNK         1 GROUP             0       ****    0 ROOT    
