@<TRIPOS>MOLECULE
3R540
247   249    1
SMALL
USER_CHARGES


@<TRIPOS>ATOM
      1 CA          4.2831  -16.1894  -45.8386 C.3       0 UNK        -0.1800 
      2 C           3.2417  -15.2721  -46.4624 C.2       0 UNK         0.5000 
      3 O           2.3810  -14.7573  -45.7515 O.2       0 UNK        -0.5000 
      4 N           3.3410  -15.0563  -47.7815 N.am      1 UNK        -0.5000 
      5 CA          2.4207  -14.2935  -48.6397 C.3       1 UNK         0.1400 
      6 C6          3.0136  -14.1492  -50.0656 C.3       23 UNK        -0.0398 
      7 S7          1.7759  -13.6977  -51.3291 S.3       23 UNK        -0.2404 
      8 C8          2.0087  -15.0122  -52.5651 C.3       23 UNK        -0.0205 
      9 C9          1.5389  -16.3661  -52.0567 C.ar      23 UNK        -0.0193 
     10 C10         0.1736  -16.6188  -51.9118 C.ar      23 UNK        -0.1150 
     11 C11        -0.2830  -17.8676  -51.4765 C.ar      23 UNK        -0.0193 
     12 C12         0.6519  -18.8701  -51.1942 C.ar      23 UNK        -0.1150 
     13 C13         2.0237  -18.6336  -51.3442 C.ar      23 UNK        -0.0193 
     14 C14         2.4601  -17.3765  -51.7694 C.ar      23 UNK        -0.1150 
     15 C15         3.0335  -19.7526  -51.1204 C.3       23 UNK        -0.0205 
     16 S16         3.9655  -19.5974  -49.5575 S.3       23 UNK        -0.2404 
     17 C17         2.6684  -19.8285  -48.2977 C.3       23 UNK        -0.0398 
     18 CA          2.5052  -21.2857  -47.7899 C.3       11 UNK         0.1400 
     19 N           1.7392  -21.3337  -46.5403 N.am      11 UNK        -0.5000 
     20 C           1.5437  -22.4159  -45.7724 C.2       10 UNK         0.5000 
     21 O           2.0852  -23.5029  -45.9699 O.2       10 UNK        -0.5000 
     22 CA          0.5422  -22.2737  -44.6075 C.3       10 UNK         0.1400 
     23 CB          1.2473  -21.8051  -43.3263 C.3       10 UNK        -0.1800 
     24 N          -0.5690  -21.3711  -44.9231 N.am      10 UNK        -0.5000 
     25 C          -1.5185  -21.6380  -45.8317 C.2       9 UNK         0.5000 
     26 O          -1.5933  -22.7112  -46.4260 O.2       9 UNK        -0.5000 
     27 CA         -2.5133  -20.5110  -46.1715 C.3       9 UNK         0.1400 
     28 CB         -3.6939  -20.5005  -45.1902 C.3       9 UNK        -0.1800 
     29 N          -1.8747  -19.1936  -46.2068 N.am      9 UNK        -0.5000 
     30 C          -0.9665  -18.8291  -47.1233 C.2       8 UNK         0.5000 
     31 O          -0.6520  -19.5440  -48.0747 O.2       8 UNK        -0.5000 
     32 CA         -0.2369  -17.4863  -46.9024 C.3       8 UNK         0.1400 
     33 CB         -1.0159  -16.3115  -47.5051 C.3       8 UNK        -0.1800 
     34 N           0.0209  -17.2209  -45.4871 N.am      8 UNK        -0.5000 
     35 C           0.8634  -17.9320  -44.7275 C.2       7 UNK         0.5000 
     36 O           1.5664  -18.8384  -45.1686 O.2       7 UNK        -0.5000 
     37 CA          0.8781  -17.6335  -43.2179 C.3       7 UNK         0.1400 
     38 CB          1.8304  -16.4819  -42.8750 C.3       7 UNK        -0.1800 
     39 N          -0.4597  -17.3346  -42.7102 N.am      7 UNK        -0.5000 
     40 C          -1.4245  -18.2509  -42.5548 C.2       6 UNK         0.5000 
     41 O          -1.2652  -19.4498  -42.7801 O.2       6 UNK        -0.5000 
     42 CA         -2.8056  -17.7356  -42.1091 C.3       6 UNK         0.1400 
     43 CB         -2.8805  -17.6506  -40.5775 C.3       6 UNK        -0.1800 
     44 N          -3.1288  -16.4277  -42.6821 N.am      6 UNK        -0.5000 
     45 C          -3.3641  -16.2070  -43.9838 C.2       5 UNK         0.5000 
     46 O          -3.3836  -17.0966  -44.8328 O.2       5 UNK        -0.5000 
     47 CA         -3.5474  -14.7375  -44.4121 C.3       5 UNK         0.1400 
     48 CB         -5.0094  -14.3001  -44.2398 C.3       5 UNK        -0.1800 
     49 N          -2.6710  -13.8219  -43.6733 N.am      5 UNK        -0.5000 
     50 C          -1.3339  -13.8543  -43.7386 C.2       4 UNK         0.5000 
     51 O          -0.7087  -14.6277  -44.4657 O.2       4 UNK        -0.5000 
     52 CA         -0.5723  -12.9361  -42.7761 C.3       4 UNK         0.1400 
     53 CB         -0.5879  -13.5484  -41.3584 C.3       4 UNK        -0.1800 
     54 N           0.7988  -12.7817  -43.2579 N.am      4 UNK        -0.5000 
     55 C           1.7214  -11.9583  -42.7467 C.2       3 UNK         0.5000 
     56 O           1.5130  -11.1899  -41.8067 O.2       3 UNK        -0.5000 
     57 CA          3.1093  -11.9806  -43.4068 C.3       3 UNK         0.1400 
     58 CB          3.9060  -13.2285  -42.9958 C.3       3 UNK        -0.1800 
     59 N           3.0293  -11.9002  -44.8651 N.am      3 UNK        -0.5000 
     60 C           2.8183  -10.7587  -45.5363 C.2       2 UNK         0.5000 
     61 O           2.6199   -9.6766  -44.9815 O.2       2 UNK        -0.5000 
     62 CA          2.8722  -10.8022  -47.0755 C.3       2 UNK         0.1400 
     63 CB          4.0406   -9.9483  -47.5966 C.3       2 UNK        -0.1800 
     64 N           3.0277  -12.1571  -47.6047 N.am      2 UNK        -0.5000 
     65 C           2.0246  -12.9101  -48.0731 C.2       1 UNK         0.5000 
     66 O           0.8429  -12.5625  -48.0658 O.2       1 UNK        -0.5000 
     67 C           1.8777  -22.2048  -48.8608 C.2       11 UNK         0.5000 
     68 O           2.5912  -22.9991  -49.4752 O.2       11 UNK        -0.5000 
     69 N           0.5525  -22.0988  -49.0440 N.am      12 UNK        -0.5000 
     70 CA         -0.2377  -22.9670  -49.9227 C.3       12 UNK         0.1400 
     71 CB         -1.6440  -22.3767  -50.0734 C.3       12 UNK        -0.1800 
     72 C          -0.3030  -24.4291  -49.4327 C.2       12 UNK         0.5000 
     73 O          -0.3475  -25.3431  -50.2571 O.2       12 UNK        -0.5000 
     74 N          -0.2607  -24.6088  -48.1067 N.am      13 UNK        -0.5000 
     75 CA         -0.1864  -25.8648  -47.3646 C.3       13 UNK         0.1400 
     76 CB          1.0992  -26.6464  -47.7209 C.3       13 UNK        -0.1800 
     77 C          -1.4879  -26.6855  -47.4583 C.2       13 UNK         0.5000 
     78 O          -2.5752  -26.1027  -47.4425 O.2       13 UNK        -0.5000 
     79 N          -1.3599  -28.0211  -47.4783 N.am      14 UNK        -0.5000 
     80 CA         -2.4345  -29.0107  -47.3455 C.3       14 UNK         0.1400 
     81 CB         -3.3549  -28.9924  -48.5868 C.3       14 UNK        -0.1800 
     82 C          -3.1719  -28.8367  -45.9990 C.2       14 UNK         0.5000 
     83 O          -2.5153  -28.6183  -44.9783 O.2       14 UNK        -0.5000 
     84 N          -4.5086  -28.8877  -46.0053 N.am      15 UNK        -0.5000 
     85 CA         -5.3678  -28.6228  -44.8482 C.3       15 UNK         0.1400 
     86 CB         -6.6553  -29.4549  -44.9939 C.3       15 UNK        -0.1800 
     87 C          -5.6482  -27.1109  -44.6867 C.2       15 UNK         0.5000 
     88 O          -6.8017  -26.7187  -44.5023 O.2       15 UNK        -0.5000 
     89 N          -4.5891  -26.2919  -44.7916 N.am      16 UNK        -0.5000 
     90 CA         -4.5912  -24.8239  -44.8369 C.3       16 UNK         0.1400 
     91 CB         -4.9923  -24.2303  -43.4706 C.3       16 UNK        -0.1800 
     92 C          -5.4434  -24.2973  -46.0102 C.2       16 UNK         0.5000 
     93 O          -6.3833  -23.5239  -45.8118 O.2       16 UNK        -0.5000 
     94 N          -5.1142  -24.7817  -47.2130 N.am      17 UNK        -0.5000 
     95 CA         -5.7608  -24.4338  -48.4756 C.3       17 UNK         0.1400 
     96 CB         -5.3902  -25.5108  -49.5109 C.3       17 UNK        -0.1800 
     97 C          -5.3679  -23.0259  -48.9670 C.2       17 UNK         0.5000 
     98 O          -4.5627  -22.3425  -48.3337 O.2       17 UNK        -0.5000 
     99 N          -5.9329  -22.6249  -50.1094 N.am      18 UNK        -0.5000 
    100 CA        -5.5482  -21.4283  -50.8485 C.3       18 UNK         0.1400 
    101 CB        -6.7721  -20.5128  -51.0146 C.3       18 UNK        -0.1800 
    102 C         -5.0101  -21.8722  -52.2144 C.2       18 UNK         0.5000 
    103 O         -5.6746  -22.6476  -52.9065 O.2       18 UNK        -0.5000 
    104 N         -3.8268  -21.3675  -52.5781 N.am      19 UNK        -0.5000 
    105 CA        -3.2476  -21.5019  -53.9147 C.3       19 UNK         0.1400 
    106 CB        -1.7177  -21.3743  -53.8078 C.3       19 UNK        -0.1800 
    107 C         -3.8326  -20.4312  -54.8550 C.2       19 UNK         0.5000 
    108 O         -4.5329  -19.5250  -54.3952 O.2       19 UNK        -0.5000 
    109 N         -3.5051  -20.5157  -56.1509 N.am      20 UNK        -0.5000 
    110 CA        -3.9802  -19.6070  -57.2051 C.3       20 UNK         0.1400 
    111 CB        -3.4251  -20.0800  -58.5574 C.3       20 UNK        -0.1800 
    112 C         -3.6465  -18.1156  -56.9788 C.2       20 UNK         0.5000 
    113 O         -4.3659  -17.2506  -57.4792 O.2       20 UNK        -0.5000 
    114 N         -2.5814  -17.8440  -56.2131 N.am      21 UNK        -0.5000 
    115 CA        -2.1780  -16.5063  -55.7792 C.3       21 UNK         0.1400 
    116 CB        -0.7080  -16.5618  -55.3371 C.3       21 UNK        -0.1800 
    117 C         -3.0641  -15.9222  -54.6565 C.2       21 UNK         0.5000 
    118 O         -3.0658  -14.7035  -54.4773 O.2       21 UNK        -0.5000 
    119 N         -3.7886  -16.7812  -53.9272 N.am      22 UNK        -0.5000 
    120 CA        -4.7120  -16.4102  -52.8411 C.3       22 UNK         0.1400 
    121 C         -6.1986  -16.5899  -53.2504 C.2       22 UNK         0.5000 
    122 N         -6.5461  -17.5966  -54.0423 N.am      22 UNK        -0.7600 
    123 O         -7.0487  -15.8001  -52.8490 O.2       22 UNK        -0.5000 
    124 C124       -4.4202  -17.2017  -51.5396 C.3       23 UNK        -0.0398 
    125 S125       -2.7991  -16.7786  -50.8207 S.3       23 UNK        -0.2404 
    126 C126       -1.7762  -18.1764  -51.3915 C.3       23 UNK        -0.0205 
    127 H127        4.7333  -15.7120  -44.9684 H         1 UNK         0.0600 
    128 H128        5.0800  -16.4355  -46.5406 H         1 UNK         0.0600 
    129 H129        3.8163  -17.1197  -45.5164 H         1 UNK         0.0600 
    130 H130        4.0970  -15.5100  -48.2735 H         1 UNK         0.3000 
    131 H131        1.5097  -14.8918  -48.7068 H         1 UNK         0.0600 
    132 H132        3.4806  -15.0880  -50.3631 H         1 UNK         0.0800 
    133 H133        3.8171  -13.4107  -50.0863 H         1 UNK         0.0800 
    134 H134        1.4451  -14.7530  -53.4621 H         1 UNK         0.0800 
    135 H135        3.0570  -15.0481  -52.8657 H         1 UNK         0.0800 
    136 H136       -0.5333  -15.8401  -52.1609 H         1 UNK         0.1150 
    137 H137        0.3100  -19.8460  -50.8804 H         1 UNK         0.1150 
    138 H138        3.5180  -17.1953  -51.8976 H         1 UNK         0.1150 
    139 H139        2.5426  -20.7242  -51.1690 H         1 UNK         0.0800 
    140 H140        3.7488  -19.7481  -51.9440 H         1 UNK         0.0800 
    141 H141        1.7321  -19.4269  -48.6745 H         1 UNK         0.0800 
    142 H142        2.9436  -19.1851  -47.4612 H         1 UNK         0.0800 
    143 H143        3.4990  -21.6766  -47.5618 H         1 UNK         0.0600 
    144 H144        1.3349  -20.4567  -46.2278 H         1 UNK         0.3000 
    145 H145        0.1217  -23.2628  -44.4134 H         1 UNK         0.0600 
    146 H146        0.5461  -21.7273  -42.4952 H         1 UNK         0.0600 
    147 H147        2.0248  -22.5109  -43.0317 H         1 UNK         0.0600 
    148 H148        1.7225  -20.8338  -43.4559 H         1 UNK         0.0600 
    149 H149       -0.6122  -20.4970  -44.4109 H         1 UNK         0.3000 
    150 H150       -2.9080  -20.7082  -47.1692 H         1 UNK         0.0600 
    151 H151       -4.2294  -21.4497  -45.2244 H         1 UNK         0.0600 
    152 H152       -4.4088  -19.7172  -45.4421 H         1 UNK         0.0600 
    153 H153       -3.3689  -20.3423  -44.1626 H         1 UNK         0.0600 
    154 H154       -2.1541  -18.5243  -45.4973 H         1 UNK         0.3000 
    155 H155        0.7282  -17.5389  -47.4099 H         1 UNK         0.0600 
    156 H156       -0.5388  -15.3587  -47.2729 H         1 UNK         0.0600 
    157 H157       -1.0506  -16.3971  -48.5899 H         1 UNK         0.0600 
    158 H158       -2.0417  -16.2716  -47.1381 H         1 UNK         0.0600 
    159 H159       -0.4497  -16.4193  -45.0765 H         1 UNK         0.3000 
    160 H160        1.2447  -18.5270  -42.7083 H         1 UNK         0.0600 
    161 H161        1.5131  -15.5502  -43.3394 H         1 UNK         0.0600 
    162 H162        2.8417  -16.6953  -43.2217 H         1 UNK         0.0600 
    163 H163        1.8837  -16.3185  -41.7987 H         1 UNK         0.0600 
    164 H164       -0.6815  -16.3636  -42.5559 H         1 UNK         0.3000 
    165 H165       -3.5555  -18.4529  -42.4494 H         1 UNK         0.0600 
    166 H166       -3.8768  -17.3562  -40.2473 H         1 UNK         0.0600 
    167 H167       -2.6610  -18.6174  -40.1224 H         1 UNK         0.0600 
    168 H168       -2.1666  -16.9294  -40.1772 H         1 UNK         0.0600 
    169 H169       -3.1415  -15.6419  -42.0494 H         1 UNK         0.3000 
    170 H170       -3.2922  -14.6678  -45.4718 H         1 UNK         0.0600 
    171 H171       -5.6804  -14.9565  -44.7956 H         1 UNK         0.0600 
    172 H172       -5.3183  -14.3240  -43.1940 H         1 UNK         0.0600 
    173 H173       -5.1644  -13.2877  -44.6133 H         1 UNK         0.0600 
    174 H174       -3.1214  -13.1648  -43.0525 H         1 UNK         0.3000 
    175 H175       -1.0574  -11.9583  -42.7675 H         1 UNK         0.0600 
    176 H176       -1.6061  -13.7421  -41.0194 H         1 UNK         0.0600 
    177 H177       -0.0442  -14.4929  -41.3226 H         1 UNK         0.0600 
    178 H178       -0.1376  -12.8802  -40.6250 H         1 UNK         0.0600 
    179 H179        1.0308  -13.3727  -44.0500 H         1 UNK         0.3000 
    180 H180        3.6608  -11.1114  -43.0414 H         1 UNK         0.0600 
    181 H181        3.4409  -14.1441  -43.3561 H         1 UNK         0.0600 
    182 H182        3.9804  -13.3043  -41.9103 H         1 UNK         0.0600 
    183 H183        4.9216  -13.1939  -43.3902 H         1 UNK         0.0600 
    184 H184        3.0826  -12.7721  -45.3774 H         1 UNK         0.3000 
    185 H185        1.9443  -10.3588  -47.4427 H         1 UNK         0.0600 
    186 H186        3.9490   -8.9124  -47.2674 H         1 UNK         0.0600 
    187 H187        5.0022  -10.3216  -47.2421 H         1 UNK         0.0600 
    188 H188        4.0654   -9.9383  -48.6865 H         1 UNK         0.0600 
    189 H189        3.9657  -12.5310  -47.6217 H         1 UNK         0.3000 
    190 H190        0.0439  -21.3867  -48.5285 H         1 UNK         0.3000 
    191 H191        0.2353  -22.9719  -50.9069 H         1 UNK         0.0600 
    192 H192       -2.1212  -22.2525  -49.1027 H         1 UNK         0.0600 
    193 H193       -2.2824  -23.0231  -50.6770 H         1 UNK         0.0600 
    194 H194       -1.6106  -21.4011  -50.5549 H         1 UNK         0.0600 
    195 H195       -0.3880  -23.7848  -47.5279 H         1 UNK         0.3000 
    196 H196       -0.1032  -25.5714  -46.3173 H         1 UNK         0.0600 
    197 H197        1.2746  -27.4641  -47.0212 H         1 UNK         0.0600 
    198 H198        1.9735  -25.9966  -47.6713 H         1 UNK         0.0600 
    199 H199        1.0575  -27.0684  -48.7256 H         1 UNK         0.0600 
    200 H200       -0.4236  -28.3991  -47.4594 H         1 UNK         0.3000 
    201 H201       -1.9522  -29.9882  -47.3042 H         1 UNK         0.0600 
    202 H202       -2.7728  -29.0940  -49.5028 H         1 UNK         0.0600 
    203 H203       -3.9243  -28.0665  -48.6621 H         1 UNK         0.0600 
    204 H204       -4.0634  -29.8212  -48.5678 H         1 UNK         0.0600 
    205 H205       -4.9796  -29.0298  -46.8871 H         1 UNK         0.3000 
    206 H206       -4.8646  -28.9536  -43.9372 H         1 UNK         0.0600 
    207 H207       -6.4293  -30.5176  -45.0833 H         1 UNK         0.0600 
    208 H208       -7.3009  -29.3357  -44.1228 H         1 UNK         0.0600 
    209 H209       -7.2290  -29.1587  -45.8730 H         1 UNK         0.0600 
    210 H210       -3.6908  -26.7295  -44.9546 H         1 UNK         0.3000 
    211 H211       -3.5638  -24.5166  -45.0408 H         1 UNK         0.0600 
    212 H212       -6.0219  -24.4729  -43.2065 H         1 UNK         0.0600 
    213 H213       -4.9051  -23.1434  -43.4781 H         1 UNK         0.0600 
    214 H214       -4.3458  -24.6018  -42.6757 H         1 UNK         0.0600 
    215 H215       -4.2708  -25.3472  -47.2862 H         1 UNK         0.3000 
    216 H216       -6.8425  -24.4471  -48.3277 H         1 UNK         0.0600 
    217 H217       -4.3149  -25.5357  -49.6950 H         1 UNK         0.0600 
    218 H218       -5.8841  -25.3398  -50.4678 H         1 UNK         0.0600 
    219 H219       -5.6948  -26.5001  -49.1698 H         1 UNK         0.0600 
    220 H220       -6.5478  -23.2554  -50.6056 H         1 UNK         0.3000 
    221 H221       -4.7699  -20.8696  -50.3239 H         1 UNK         0.0600 
    222 H222       -7.1341  -20.1636  -50.0476 H         1 UNK         0.0600 
    223 H223       -7.5951  -21.0247  -51.5150 H         1 UNK         0.0600 
    224 H224       -6.5266  -19.6323  -51.6093 H         1 UNK         0.0600 
    225 H225       -3.3657  -20.7206  -51.9590 H         1 UNK         0.3000 
    226 H226       -3.4889  -22.4861  -54.3217 H         1 UNK         0.0600 
    227 H227       -1.4089  -20.3897  -53.4591 H         1 UNK         0.0600 
    228 H228       -1.3094  -22.1146  -53.1197 H         1 UNK         0.0600 
    229 H229       -1.2391  -21.5414  -54.7733 H         1 UNK         0.0600 
    230 H230       -2.9148  -21.2767  -56.4550 H         1 UNK         0.3000 
    231 H231       -5.0686  -19.6882  -57.2369 H         1 UNK         0.0600 
    232 H232       -2.3348  -20.0560  -58.5745 H         1 UNK         0.0600 
    233 H233       -3.7801  -19.4451  -59.3704 H         1 UNK         0.0600 
    234 H234       -3.7434  -21.0984  -58.7813 H         1 UNK         0.0600 
    235 H235       -2.0385  -18.6180  -55.8610 H         1 UNK         0.3000 
    236 H236       -2.2488  -15.8285  -56.6325 H         1 UNK         0.0600 
    237 H237       -0.0575  -16.8369  -56.1673 H         1 UNK         0.0600 
    238 H238       -0.3707  -15.5923  -54.9689 H         1 UNK         0.0600 
    239 H239       -0.5571  -17.2900  -54.5401 H         1 UNK         0.0600 
    240 H240       -3.7935  -17.7610  -54.1859 H         1 UNK         0.3000 
    241 H241       -4.5910  -15.3509  -52.6064 H         1 UNK         0.0600 
    242 H242       -7.5099  -17.7046  -54.3137 H         1 UNK         0.3800 
    243 H243       -5.8629  -18.2995  -54.3139 H         1 UNK         0.3800 
    244 H244       -4.4790  -18.2762  -51.7170 H         1 UNK         0.0800 
    245 H245       -5.1723  -16.9785  -50.7805 H         1 UNK         0.0800 
    246 H246       -1.9517  -19.0198  -50.7229 H         1 UNK         0.0800 
    247 H247       -2.1088  -18.4760  -52.3843 H         1 UNK         0.0800 
@<TRIPOS>BOND
     1    1    2 1    
     2    1  127 1    
     3    1  128 1    
     4    1  129 1    
     5    2    3 2    
     6    2    4 am   BACKBONE|DICT|INTERRES
     7    4    5 1    
     8    4  130 1    
     9    5    6 1    
    10    5   65 1    
    11    5  131 1    
    12    6    7 1    
    13    6  132 1    
    14    6  133 1    
    15    7    8 1    
    16    8    9 1    
    17    8  134 1    
    18    8  135 1    
    19    9   10 ar   
    20    9   14 ar   
    21   10   11 ar   
    22   10  136 1    
    23   11   12 ar   
    24   11  126 1    
    25   12   13 ar   
    26   12  137 1    
    27   13   14 ar   
    28   13   15 1    
    29   14  138 1    
    30   15   16 1    
    31   15  139 1    
    32   15  140 1    
    33   16   17 1    
    34   17   18 1    
    35   17  141 1    
    36   17  142 1    
    37   18   19 1    
    38   18   67 1    
    39   18  143 1    
    40   19   20 am   BACKBONE|DICT|INTERRES
    41   19  144 1    
    42   20   21 2    
    43   20   22 1    
    44   22   23 1    
    45   22   24 1    
    46   22  145 1    
    47   23  146 1    
    48   23  147 1    
    49   23  148 1    
    50   24   25 am   BACKBONE|DICT|INTERRES
    51   24  149 1    
    52   25   26 2    
    53   25   27 1    
    54   27   28 1    
    55   27   29 1    
    56   27  150 1    
    57   28  151 1    
    58   28  152 1    
    59   28  153 1    
    60   29   30 am   BACKBONE|DICT|INTERRES
    61   29  154 1    
    62   30   31 2    
    63   30   32 1    
    64   32   33 1    
    65   32   34 1    
    66   32  155 1    
    67   33  156 1    
    68   33  157 1    
    69   33  158 1    
    70   34   35 am   BACKBONE|DICT|INTERRES
    71   34  159 1    
    72   35   36 2    
    73   35   37 1    
    74   37   38 1    
    75   37   39 1    
    76   37  160 1    
    77   38  161 1    
    78   38  162 1    
    79   38  163 1    
    80   39   40 am   BACKBONE|DICT|INTERRES
    81   39  164 1    
    82   40   41 2    
    83   40   42 1    
    84   42   43 1    
    85   42   44 1    
    86   42  165 1    
    87   43  166 1    
    88   43  167 1    
    89   43  168 1    
    90   44   45 am   BACKBONE|DICT|INTERRES
    91   44  169 1    
    92   45   46 2    
    93   45   47 1    
    94   47   48 1    
    95   47   49 1    
    96   47  170 1    
    97   48  171 1    
    98   48  172 1    
    99   48  173 1    
   100   49   50 am   BACKBONE|DICT|INTERRES
   101   49  174 1    
   102   50   51 2    
   103   50   52 1    
   104   52   53 1    
   105   52   54 1    
   106   52  175 1    
   107   53  176 1    
   108   53  177 1    
   109   53  178 1    
   110   54   55 am   BACKBONE|DICT|INTERRES
   111   54  179 1    
   112   55   56 2    
   113   55   57 1    
   114   57   58 1    
   115   57   59 1    
   116   57  180 1    
   117   58  181 1    
   118   58  182 1    
   119   58  183 1    
   120   59   60 am   BACKBONE|DICT|INTERRES
   121   59  184 1    
   122   60   61 2    
   123   60   62 1    
   124   62   63 1    
   125   62   64 1    
   126   62  185 1    
   127   63  186 1    
   128   63  187 1    
   129   63  188 1    
   130   64   65 am   BACKBONE|DICT|INTERRES
   131   64  189 1    
   132   65   66 2    
   133   67   68 2    
   134   67   69 am   BACKBONE|DICT|INTERRES
   135   69   70 1    
   136   69  190 1    
   137   70   71 1    
   138   70   72 1    
   139   70  191 1    
   140   71  192 1    
   141   71  193 1    
   142   71  194 1    
   143   72   73 2    
   144   72   74 am   BACKBONE|DICT|INTERRES
   145   74   75 1    
   146   74  195 1    
   147   75   76 1    
   148   75   77 1    
   149   75  196 1    
   150   76  197 1    
   151   76  198 1    
   152   76  199 1    
   153   77   78 2    
   154   77   79 am   BACKBONE|DICT|INTERRES
   155   79   80 1    
   156   79  200 1    
   157   80   81 1    
   158   80   82 1    
   159   80  201 1    
   160   81  202 1    
   161   81  203 1    
   162   81  204 1    
   163   82   83 2    
   164   82   84 am   BACKBONE|DICT|INTERRES
   165   84   85 1    
   166   84  205 1    
   167   85   86 1    
   168   85   87 1    
   169   85  206 1    
   170   86  207 1    
   171   86  208 1    
   172   86  209 1    
   173   87   88 2    
   174   87   89 am   BACKBONE|DICT|INTERRES
   175   89   90 1    
   176   89  210 1    
   177   90   91 1    
   178   90   92 1    
   179   90  211 1    
   180   91  212 1    
   181   91  213 1    
   182   91  214 1    
   183   92   93 2    
   184   92   94 am   BACKBONE|DICT|INTERRES
   185   94   95 1    
   186   94  215 1    
   187   95   96 1    
   188   95   97 1    
   189   95  216 1    
   190   96  217 1    
   191   96  218 1    
   192   96  219 1    
   193   97   98 2    
   194   97   99 am   BACKBONE|DICT|INTERRES
   195   99  100 1    
   196   99  220 1    
   197  100  101 1    
   198  100  102 1    
   199  100  221 1    
   200  101  222 1    
   201  101  223 1    
   202  101  224 1    
   203  102  103 2    
   204  102  104 am   BACKBONE|DICT|INTERRES
   205  104  105 1    
   206  104  225 1    
   207  105  106 1    
   208  105  107 1    
   209  105  226 1    
   210  106  227 1    
   211  106  228 1    
   212  106  229 1    
   213  107  108 2    
   214  107  109 am   BACKBONE|DICT|INTERRES
   215  109  110 1    
   216  109  230 1    
   217  110  111 1    
   218  110  112 1    
   219  110  231 1    
   220  111  232 1    
   221  111  233 1    
   222  111  234 1    
   223  112  113 2    
   224  112  114 am   BACKBONE|DICT|INTERRES
   225  114  115 1    
   226  114  235 1    
   227  115  116 1    
   228  115  117 1    
   229  115  236 1    
   230  116  237 1    
   231  116  238 1    
   232  116  239 1    
   233  117  118 2    
   234  117  119 am   BACKBONE|DICT|INTERRES
   235  119  120 1    
   236  119  240 1    
   237  120  121 1    
   238  120  124 1    
   239  120  241 1    
   240  121  122 am   BACKBONE|DICT|INTERRES
   241  121  123 2    
   242  122  242 1    
   243  122  243 1    
   244  124  125 1    
   245  124  244 1    
   246  124  245 1    
   247  125  126 1    
   248  126  246 1    
   249  126  247 1    
@<TRIPOS>SUBSTRUCTURE
     1 UNK         1 GROUP             0       ****    0 ROOT    
