@<TRIPOS>MOLECULE
3R540
247   249    1
SMALL
USER_CHARGES


@<TRIPOS>ATOM
      1 CA         -4.4779  -17.0798  -45.8769 C.3       0 UNK        -0.1800 
      2 C          -3.0978  -16.4426  -45.7854 C.2       0 UNK         0.5000 
      3 O          -2.2496  -16.9282  -45.0404 O.2       0 UNK        -0.5000 
      4 N          -2.8826  -15.3458  -46.5274 N.am      1 UNK        -0.5000 
      5 CA         -1.6343  -14.5663  -46.6250 C.3       1 UNK         0.1400 
      6 C6         -0.4359  -15.3749  -47.2063 C.3       23 UNK        -0.0398 
      7 S7         -0.6716  -15.7080  -48.9845 S.3       23 UNK        -0.2404 
      8 C8          1.0348  -15.7220  -49.6196 C.3       23 UNK        -0.0205 
      9 C9          1.5784  -17.1349  -49.7848 C.ar      23 UNK        -0.0193 
     10 C10         1.2120  -17.8900  -50.9027 C.ar      23 UNK        -0.1150 
     11 C11         1.7590  -19.1577  -51.1168 C.ar      23 UNK        -0.0193 
     12 C12         2.6840  -19.6693  -50.2007 C.ar      23 UNK        -0.1150 
     13 C13         3.0631  -18.9262  -49.0775 C.ar      23 UNK        -0.0193 
     14 C14         2.4946  -17.6632  -48.8690 C.ar      23 UNK        -0.1150 
     15 C15         4.1436  -19.4451  -48.1304 C.3       23 UNK        -0.0205 
     16 S16         3.8047  -21.1011  -47.4388 S.3       23 UNK        -0.2404 
     17 C17         2.2843  -20.7890  -46.4911 C.3       23 UNK        -0.0398 
     18 CA          1.1775  -21.8169  -46.8255 C.3       11 UNK         0.1400 
     19 N           1.3791  -23.1128  -46.1672 N.am      11 UNK        -0.5000 
     20 C           0.6558  -24.2163  -46.4122 C.2       10 UNK         0.5000 
     21 O          -0.2296  -24.2824  -47.2629 O.2       10 UNK        -0.5000 
     22 CA          0.9309  -25.4411  -45.5212 C.3       10 UNK         0.1400 
     23 CB          2.1950  -26.1800  -45.9856 C.3       10 UNK        -0.1800 
     24 N           1.0658  -25.0868  -44.1090 N.am      10 UNK        -0.5000 
     25 C           0.0887  -24.5648  -43.3524 C.2       9 UNK         0.5000 
     26 O          -1.0633  -24.3868  -43.7457 O.2       9 UNK        -0.5000 
     27 CA          0.4859  -24.1116  -41.9334 C.3       9 UNK         0.1400 
     28 CB          0.3224  -25.2642  -40.9319 C.3       9 UNK        -0.1800 
     29 N           1.8558  -23.5917  -41.8602 N.am      9 UNK        -0.5000 
     30 C           2.2964  -22.5304  -42.5487 C.2       8 UNK         0.5000 
     31 O           1.5799  -21.8656  -43.3001 O.2       8 UNK        -0.5000 
     32 CA          3.8026  -22.2270  -42.4423 C.3       8 UNK         0.1400 
     33 CB          4.5956  -23.1760  -43.3562 C.3       8 UNK        -0.1800 
     34 N           4.1269  -20.8523  -42.8192 N.am      8 UNK        -0.5000 
     35 C           3.7628  -19.7592  -42.1382 C.2       7 UNK         0.5000 
     36 O           3.1660  -19.7948  -41.0594 O.2       7 UNK        -0.5000 
     37 CA          4.1587  -18.3902  -42.7308 C.3       7 UNK         0.1400 
     38 CB          4.8363  -18.4573  -44.1198 C.3       7 UNK        -0.1800 
     39 N           3.0213  -17.4686  -42.7469 N.am      7 UNK        -0.5000 
     40 C           1.8827  -17.5923  -43.4466 C.2       6 UNK         0.5000 
     41 O           1.6477  -18.5102  -44.2307 O.2       6 UNK        -0.5000 
     42 CA          0.8202  -16.4943  -43.2420 C.3       6 UNK         0.1400 
     43 CB         -0.3010  -16.9993  -42.3207 C.3       6 UNK        -0.1800 
     44 N           1.3493  -15.2371  -42.7009 N.am      6 UNK        -0.5000 
     45 C           2.1573  -14.4011  -43.3674 C.2       5 UNK         0.5000 
     46 O           2.6146  -14.6445  -44.4854 O.2       5 UNK        -0.5000 
     47 CA          2.5007  -13.0820  -42.6483 C.3       5 UNK         0.1400 
     48 CB          3.9658  -13.0478  -42.1710 C.3       5 UNK        -0.1800 
     49 N           2.1388  -11.9191  -43.4645 N.am      5 UNK        -0.5000 
     50 C           2.7225  -11.4490  -44.5795 C.2       4 UNK         0.5000 
     51 O           3.8245  -11.8119  -44.9932 O.2       4 UNK        -0.5000 
     52 CA          1.9359  -10.3849  -45.3750 C.3       4 UNK         0.1400 
     53 CB          2.0254  -10.6313  -46.8920 C.3       4 UNK        -0.1800 
     54 N           0.5223  -10.3768  -44.9955 N.am      4 UNK        -0.5000 
     55 C          -0.1395   -9.3493  -44.4483 C.2       3 UNK         0.5000 
     56 O           0.3680   -8.2488  -44.2293 O.2       3 UNK        -0.5000 
     57 CA         -1.6182   -9.5844  -44.0687 C.3       3 UNK         0.1400 
     58 CB         -2.5460   -8.9783  -45.1330 C.3       3 UNK        -0.1800 
     59 N          -1.9740  -10.9945  -43.8824 N.am      3 UNK        -0.5000 
     60 C          -1.4899  -11.7928  -42.9212 C.2       2 UNK         0.5000 
     61 O          -0.6934  -11.4196  -42.0597 O.2       2 UNK        -0.5000 
     62 CA         -1.9122  -13.2738  -42.9665 C.3       2 UNK         0.1400 
     63 CB         -3.1709  -13.5041  -42.1181 C.3       2 UNK        -0.1800 
     64 N          -2.1337  -13.8203  -44.3105 N.am      2 UNK        -0.5000 
     65 C          -1.2581  -13.8111  -45.3277 C.2       1 UNK         0.5000 
     66 O          -0.1988  -13.1878  -45.2887 O.2       1 UNK        -0.5000 
     67 C          -0.2054  -21.2397  -46.4903 C.2       11 UNK         0.5000 
     68 O          -0.9199  -20.8456  -47.4078 O.2       11 UNK        -0.5000 
     69 N          -0.5731  -21.2433  -45.2015 N.am      12 UNK        -0.5000 
     70 CA         -1.8680  -20.7694  -44.7132 C.3       12 UNK         0.1400 
     71 CB         -1.8975  -20.8491  -43.1796 C.3       12 UNK        -0.1800 
     72 C          -3.0535  -21.5351  -45.3319 C.2       12 UNK         0.5000 
     73 O          -4.0044  -20.9075  -45.7976 O.2       12 UNK        -0.5000 
     74 N          -2.9542  -22.8718  -45.3687 N.am      13 UNK        -0.5000 
     75 CA         -3.9377  -23.7593  -45.9879 C.3       13 UNK         0.1400 
     76 CB         -3.6020  -25.2193  -45.6486 C.3       13 UNK        -0.1800 
     77 C          -4.0426  -23.5639  -47.5102 C.2       13 UNK         0.5000 
     78 O          -5.1528  -23.4459  -48.0301 O.2       13 UNK        -0.5000 
     79 N          -2.8933  -23.5091  -48.1975 N.am      14 UNK        -0.5000 
     80 CA         -2.8180  -23.3062  -49.6438 C.3       14 UNK         0.1400 
     81 CB         -1.3888  -23.5668  -50.1339 C.3       14 UNK        -0.1800 
     82 C          -3.3119  -21.9155  -50.0773 C.2       14 UNK         0.5000 
     83 O          -4.0053  -21.8145  -51.0860 O.2       14 UNK        -0.5000 
     84 N          -2.9965  -20.8763  -49.2952 N.am      15 UNK        -0.5000 
     85 CA         -3.4719  -19.5097  -49.5007 C.3       15 UNK         0.1400 
     86 CB         -2.6745  -18.5551  -48.6099 C.3       15 UNK        -0.1800 
     87 C          -4.9819  -19.3537  -49.2577 C.2       15 UNK         0.5000 
     88 O          -5.6296  -18.6001  -49.9845 O.2       15 UNK        -0.5000 
     89 N          -5.5225  -20.0795  -48.2680 N.am      16 UNK        -0.5000 
     90 CA         -6.9591  -20.1510  -47.9970 C.3       16 UNK         0.1400 
     91 CB         -7.2002  -20.8163  -46.6338 C.3       16 UNK        -0.1800 
     92 C          -7.7297  -20.8811  -49.1136 C.2       16 UNK         0.5000 
     93 O          -8.8234  -20.4465  -49.4771 O.2       16 UNK        -0.5000 
     94 N          -7.1393  -21.9580  -49.6522 N.am      17 UNK        -0.5000 
     95 CA         -7.6550  -22.6942  -50.8081 C.3       17 UNK         0.1400 
     96 CB         -6.9150  -24.0354  -50.9285 C.3       17 UNK        -0.1800 
     97 C          -7.5438  -21.8947  -52.1214 C.2       17 UNK         0.5000 
     98 O          -8.4478  -21.9739  -52.9541 O.2       17 UNK        -0.5000 
     99 N          -6.4436  -21.1420  -52.2673 N.am      18 UNK        -0.5000 
    100 CA        -6.0324  -20.3527  -53.4271 C.3       18 UNK         0.1400 
    101 CB        -7.0032  -19.1776  -53.6775 C.3       18 UNK        -0.1800 
    102 C         -5.7945  -21.2679  -54.6425 C.2       18 UNK         0.5000 
    103 O         -4.8379  -22.0463  -54.6202 O.2       18 UNK        -0.5000 
    104 N         -6.6558  -21.1645  -55.6651 N.am      19 UNK        -0.5000 
    105 CA        -6.7009  -21.9952  -56.8721 C.3       19 UNK         0.1400 
    106 CB        -7.2534  -23.3939  -56.5137 C.3       19 UNK        -0.1800 
    107 C         -5.3522  -22.0301  -57.6262 C.2       19 UNK         0.5000 
    108 O         -4.6836  -20.9995  -57.7279 O.2       19 UNK        -0.5000 
    109 N         -4.9637  -23.2071  -58.1306 N.am      20 UNK        -0.5000 
    110 CA        -3.6939  -23.4390  -58.8198 C.3       20 UNK         0.1400 
    111 CB        -3.7880  -24.7661  -59.5895 C.3       20 UNK        -0.1800 
    112 C         -2.4707  -23.4464  -57.8793 C.2       20 UNK         0.5000 
    113 O         -1.3461  -23.3283  -58.3675 O.2       20 UNK        -0.5000 
    114 N         -2.6951  -23.6055  -56.5660 N.am      21 UNK        -0.5000 
    115 CA        -1.6437  -23.6466  -55.5523 C.3       21 UNK         0.1400 
    116 CB        -2.1720  -24.3122  -54.2694 C.3       21 UNK        -0.1800 
    117 C         -1.0690  -22.2492  -55.2696 C.2       21 UNK         0.5000 
    118 O          0.1313  -22.0430  -55.4562 O.2       21 UNK        -0.5000 
    119 N         -1.9326  -21.3242  -54.8314 N.am      22 UNK        -0.5000 
    120 CA        -1.5554  -19.9658  -54.3981 C.3       22 UNK         0.1400 
    121 C         -2.4892  -18.8516  -54.9539 C.2       22 UNK         0.5000 
    122 N         -3.3864  -19.1191  -55.8937 N.am      22 UNK        -0.7600 
    123 O         -2.3888  -17.7002  -54.5402 O.2       22 UNK        -0.5000 
    124 C124       -1.3916  -19.8590  -52.8540 C.3       23 UNK        -0.0398 
    125 S125       -0.1032  -20.9462  -52.1520 S.3       23 UNK        -0.2404 
    126 C126        1.4026  -19.9486  -52.3675 C.3       23 UNK        -0.0205 
    127 H127       -5.0713  -16.8159  -45.0019 H         1 UNK         0.0600 
    128 H128       -4.3937  -18.1657  -45.9128 H         1 UNK         0.0600 
    129 H129       -5.0142  -16.7551  -46.7688 H         1 UNK         0.0600 
    130 H130       -3.6357  -15.0021  -47.1070 H         1 UNK         0.3000 
    131 H131       -1.8545  -13.7645  -47.3315 H         1 UNK         0.0600 
    132 H132       -0.2931  -16.3197  -46.6810 H         1 UNK         0.0800 
    133 H133        0.4990  -14.8252  -47.0882 H         1 UNK         0.0800 
    134 H134        1.0399  -15.2275  -50.5921 H         1 UNK         0.0800 
    135 H135        1.6922  -15.1262  -48.9854 H         1 UNK         0.0800 
    136 H136        0.5164  -17.4765  -51.6188 H         1 UNK         0.1150 
    137 H137        3.1292  -20.6392  -50.3733 H         1 UNK         0.1150 
    138 H138        2.7929  -17.0732  -48.0136 H         1 UNK         0.1150 
    139 H139        5.0878  -19.4852  -48.6749 H         1 UNK         0.0800 
    140 H140        4.2997  -18.7477  -47.3063 H         1 UNK         0.0800 
    141 H141        1.9476  -19.7722  -46.7027 H         1 UNK         0.0800 
    142 H142        2.5248  -20.7990  -45.4288 H         1 UNK         0.0800 
    143 H143        1.1862  -21.9911  -47.9043 H         1 UNK         0.0600 
    144 H144        2.0458  -23.1283  -45.4111 H         1 UNK         0.3000 
    145 H145        0.0817  -26.1211  -45.6179 H         1 UNK         0.0600 
    146 H146        2.3508  -27.0935  -45.4116 H         1 UNK         0.0600 
    147 H147        2.1150  -26.4665  -47.0351 H         1 UNK         0.0600 
    148 H148        3.0873  -25.5613  -45.8813 H         1 UNK         0.0600 
    149 H149        1.9787  -25.2028  -43.6959 H         1 UNK         0.3000 
    150 H150       -0.1918  -23.3066  -41.6422 H         1 UNK         0.0600 
    151 H151        0.9975  -26.0914  -41.1546 H         1 UNK         0.0600 
    152 H152       -0.6954  -25.6564  -40.9520 H         1 UNK         0.0600 
    153 H153        0.5210  -24.9326  -39.9126 H         1 UNK         0.0600 
    154 H154        2.4992  -24.0980  -41.2688 H         1 UNK         0.3000 
    155 H155        4.1164  -22.3829  -41.4081 H         1 UNK         0.0600 
    156 H156        4.3219  -23.0490  -44.4047 H         1 UNK         0.0600 
    157 H157        4.4183  -24.2198  -43.0943 H         1 UNK         0.0600 
    158 H158        5.6683  -23.0020  -43.2682 H         1 UNK         0.0600 
    159 H159        4.5945  -20.7286  -43.7044 H         1 UNK         0.3000 
    160 H160        4.8838  -17.9627  -42.0370 H         1 UNK         0.0600 
    161 H161        4.1989  -18.9307  -44.8662 H         1 UNK         0.0600 
    162 H162        5.7722  -19.0156  -44.0775 H         1 UNK         0.0600 
    163 H163        5.0784  -17.4581  -44.4824 H         1 UNK         0.0600 
    164 H164        3.0874  -16.6874  -42.1117 H         1 UNK         0.3000 
    165 H165        0.3846  -16.2816  -44.2202 H         1 UNK         0.0600 
    166 H166       -1.1068  -16.2705  -42.2383 H         1 UNK         0.0600 
    167 H167       -0.7423  -17.9144  -42.7168 H         1 UNK         0.0600 
    168 H168        0.0664  -17.2176  -41.3173 H         1 UNK         0.0600 
    169 H169        1.0387  -14.9861  -41.7736 H         1 UNK         0.3000 
    170 H170        1.8725  -13.0074  -41.7591 H         1 UNK         0.0600 
    171 H171        4.1454  -13.8236  -41.4261 H         1 UNK         0.0600 
    172 H172        4.6686  -13.2192  -42.9866 H         1 UNK         0.0600 
    173 H173        4.2100  -12.0907  -41.7102 H         1 UNK         0.0600 
    174 H174        1.2388  -11.5193  -43.2313 H         1 UNK         0.3000 
    175 H175        2.4002   -9.4217  -45.1554 H         1 UNK         0.0600 
    176 H176        1.6282  -11.6113  -47.1606 H         1 UNK         0.0600 
    177 H177        1.4648   -9.8787  -47.4468 H         1 UNK         0.0600 
    178 H178        3.0578  -10.5862  -47.2404 H         1 UNK         0.0600 
    179 H179        0.0441  -11.2660  -45.1161 H         1 UNK         0.3000 
    180 H180       -1.7969   -9.0670  -43.1239 H         1 UNK         0.0600 
    181 H181       -2.4265   -9.4722  -46.0982 H         1 UNK         0.0600 
    182 H182       -2.3348   -7.9180  -45.2785 H         1 UNK         0.0600 
    183 H183       -3.5924   -9.0616  -44.8389 H         1 UNK         0.0600 
    184 H184       -2.6084  -11.3944  -44.5581 H         1 UNK         0.3000 
    185 H185       -1.0980  -13.8454  -42.5203 H         1 UNK         0.0600 
    186 H186       -3.0324  -13.1320  -41.1020 H         1 UNK         0.0600 
    187 H187       -4.0383  -12.9947  -42.5396 H         1 UNK         0.0600 
    188 H188       -3.4073  -14.5659  -42.0436 H         1 UNK         0.0600 
    189 H189       -2.9868  -14.3428  -44.4433 H         1 UNK         0.3000 
    190 H190        0.0993  -21.5512  -44.5038 H         1 UNK         0.3000 
    191 H191       -1.9598  -19.7203  -45.0019 H         1 UNK         0.0600 
    192 H192       -1.0559  -20.3138  -42.7400 H         1 UNK         0.0600 
    193 H193       -2.8119  -20.4040  -42.7858 H         1 UNK         0.0600 
    194 H194       -1.8552  -21.8799  -42.8281 H         1 UNK         0.0600 
    195 H195       -2.1514  -23.3182  -44.9336 H         1 UNK         0.3000 
    196 H196       -4.9138  -23.5274  -45.5567 H         1 UNK         0.0600 
    197 H197       -4.3236  -25.9021  -46.0988 H         1 UNK         0.0600 
    198 H198       -3.6230  -25.3872  -44.5717 H         1 UNK         0.0600 
    199 H199       -2.6118  -25.4994  -46.0103 H         1 UNK         0.0600 
    200 H200       -2.0095  -23.6306  -47.7107 H         1 UNK         0.3000 
    201 H201       -3.4688  -24.0455  -50.1152 H         1 UNK         0.0600 
    202 H202       -1.3289  -23.4715  -51.2178 H         1 UNK         0.0600 
    203 H203       -1.0615  -24.5751  -49.8807 H         1 UNK         0.0600 
    204 H204       -0.6796  -22.8623  -49.6971 H         1 UNK         0.0600 
    205 H205       -2.3632  -21.0185  -48.5101 H         1 UNK         0.3000 
    206 H206       -3.2819  -19.2303  -50.5371 H         1 UNK         0.0600 
    207 H207       -1.6182  -18.5618  -48.8800 H         1 UNK         0.0600 
    208 H208       -3.0348  -17.5314  -48.7127 H         1 UNK         0.0600 
    209 H209       -2.7483  -18.8335  -47.5590 H         1 UNK         0.0600 
    210 H210       -4.9167  -20.6308  -47.6697 H         1 UNK         0.3000 
    211 H211       -7.3424  -19.1299  -47.9432 H         1 UNK         0.0600 
    212 H212       -6.8033  -21.8311  -46.6026 H         1 UNK         0.0600 
    213 H213       -8.2660  -20.8728  -46.4096 H         1 UNK         0.0600 
    214 H214       -6.7289  -20.2486  -45.8313 H         1 UNK         0.0600 
    215 H215       -6.2725  -22.2939  -49.2444 H         1 UNK         0.3000 
    216 H216       -8.7121  -22.9049  -50.6333 H         1 UNK         0.0600 
    217 H217       -7.3032  -24.6217  -51.7621 H         1 UNK         0.0600 
    218 H218       -7.0334  -24.6338  -50.0249 H         1 UNK         0.0600 
    219 H219       -5.8472  -23.8929  -51.0971 H         1 UNK         0.0600 
    220 H220       -5.7099  -21.2615  -51.5734 H         1 UNK         0.3000 
    221 H221       -5.0611  -19.9252  -53.1739 H         1 UNK         0.0600 
    222 H222       -8.0158  -19.5102  -53.9062 H         1 UNK         0.0600 
    223 H223       -7.0609  -18.5345  -52.7989 H         1 UNK         0.0600 
    224 H224       -6.6595  -18.5571  -54.5061 H         1 UNK         0.0600 
    225 H225       -7.3876  -20.4731  -55.5878 H         1 UNK         0.3000 
    226 H226       -7.4125  -21.5182  -57.5472 H         1 UNK         0.0600 
    227 H227       -8.1932  -23.3111  -55.9670 H         1 UNK         0.0600 
    228 H228       -7.4600  -23.9851  -57.4065 H         1 UNK         0.0600 
    229 H229       -6.5603  -23.9571  -55.8872 H         1 UNK         0.0600 
    230 H230       -5.5621  -24.0104  -58.0030 H         1 UNK         0.3000 
    231 H231       -3.5429  -22.6357  -59.5441 H         1 UNK         0.0600 
    232 H232       -3.9473  -25.6105  -58.9175 H         1 UNK         0.0600 
    233 H233       -2.8718  -24.9604  -60.1488 H         1 UNK         0.0600 
    234 H234       -4.6072  -24.7485  -60.3085 H         1 UNK         0.0600 
    235 H235       -3.6486  -23.6437  -56.2345 H         1 UNK         0.3000 
    236 H236       -0.8297  -24.2700  -55.9291 H         1 UNK         0.0600 
    237 H237       -2.9939  -23.7542  -53.8206 H         1 UNK         0.0600 
    238 H238       -2.5249  -25.3242  -54.4679 H         1 UNK         0.0600 
    239 H239       -1.3823  -24.3856  -53.5210 H         1 UNK         0.0600 
    240 H240       -2.9103  -21.5773  -54.7195 H         1 UNK         0.3000 
    241 H241       -0.5887  -19.7189  -54.8395 H         1 UNK         0.0600 
    242 H242       -3.4865  -20.0330  -56.3176 H         1 UNK         0.3800 
    243 H243       -3.9529  -18.3633  -56.2432 H         1 UNK         0.3800 
    244 H244       -1.1752  -18.8359  -52.5450 H         1 UNK         0.0800 
    245 H245       -2.3369  -20.1221  -52.3826 H         1 UNK         0.0800 
    246 H246        2.2231  -20.6203  -52.6238 H         1 UNK         0.0800 
    247 H247        1.2920  -19.2777  -53.2204 H         1 UNK         0.0800 
@<TRIPOS>BOND
     1    1    2 1    
     2    1  127 1    
     3    1  128 1    
     4    1  129 1    
     5    2    3 2    
     6    2    4 am   BACKBONE|DICT|INTERRES
     7    4    5 1    
     8    4  130 1    
     9    5    6 1    
    10    5   65 1    
    11    5  131 1    
    12    6    7 1    
    13    6  132 1    
    14    6  133 1    
    15    7    8 1    
    16    8    9 1    
    17    8  134 1    
    18    8  135 1    
    19    9   10 ar   
    20    9   14 ar   
    21   10   11 ar   
    22   10  136 1    
    23   11   12 ar   
    24   11  126 1    
    25   12   13 ar   
    26   12  137 1    
    27   13   14 ar   
    28   13   15 1    
    29   14  138 1    
    30   15   16 1    
    31   15  139 1    
    32   15  140 1    
    33   16   17 1    
    34   17   18 1    
    35   17  141 1    
    36   17  142 1    
    37   18   19 1    
    38   18   67 1    
    39   18  143 1    
    40   19   20 am   BACKBONE|DICT|INTERRES
    41   19  144 1    
    42   20   21 2    
    43   20   22 1    
    44   22   23 1    
    45   22   24 1    
    46   22  145 1    
    47   23  146 1    
    48   23  147 1    
    49   23  148 1    
    50   24   25 am   BACKBONE|DICT|INTERRES
    51   24  149 1    
    52   25   26 2    
    53   25   27 1    
    54   27   28 1    
    55   27   29 1    
    56   27  150 1    
    57   28  151 1    
    58   28  152 1    
    59   28  153 1    
    60   29   30 am   BACKBONE|DICT|INTERRES
    61   29  154 1    
    62   30   31 2    
    63   30   32 1    
    64   32   33 1    
    65   32   34 1    
    66   32  155 1    
    67   33  156 1    
    68   33  157 1    
    69   33  158 1    
    70   34   35 am   BACKBONE|DICT|INTERRES
    71   34  159 1    
    72   35   36 2    
    73   35   37 1    
    74   37   38 1    
    75   37   39 1    
    76   37  160 1    
    77   38  161 1    
    78   38  162 1    
    79   38  163 1    
    80   39   40 am   BACKBONE|DICT|INTERRES
    81   39  164 1    
    82   40   41 2    
    83   40   42 1    
    84   42   43 1    
    85   42   44 1    
    86   42  165 1    
    87   43  166 1    
    88   43  167 1    
    89   43  168 1    
    90   44   45 am   BACKBONE|DICT|INTERRES
    91   44  169 1    
    92   45   46 2    
    93   45   47 1    
    94   47   48 1    
    95   47   49 1    
    96   47  170 1    
    97   48  171 1    
    98   48  172 1    
    99   48  173 1    
   100   49   50 am   BACKBONE|DICT|INTERRES
   101   49  174 1    
   102   50   51 2    
   103   50   52 1    
   104   52   53 1    
   105   52   54 1    
   106   52  175 1    
   107   53  176 1    
   108   53  177 1    
   109   53  178 1    
   110   54   55 am   BACKBONE|DICT|INTERRES
   111   54  179 1    
   112   55   56 2    
   113   55   57 1    
   114   57   58 1    
   115   57   59 1    
   116   57  180 1    
   117   58  181 1    
   118   58  182 1    
   119   58  183 1    
   120   59   60 am   BACKBONE|DICT|INTERRES
   121   59  184 1    
   122   60   61 2    
   123   60   62 1    
   124   62   63 1    
   125   62   64 1    
   126   62  185 1    
   127   63  186 1    
   128   63  187 1    
   129   63  188 1    
   130   64   65 am   BACKBONE|DICT|INTERRES
   131   64  189 1    
   132   65   66 2    
   133   67   68 2    
   134   67   69 am   BACKBONE|DICT|INTERRES
   135   69   70 1    
   136   69  190 1    
   137   70   71 1    
   138   70   72 1    
   139   70  191 1    
   140   71  192 1    
   141   71  193 1    
   142   71  194 1    
   143   72   73 2    
   144   72   74 am   BACKBONE|DICT|INTERRES
   145   74   75 1    
   146   74  195 1    
   147   75   76 1    
   148   75   77 1    
   149   75  196 1    
   150   76  197 1    
   151   76  198 1    
   152   76  199 1    
   153   77   78 2    
   154   77   79 am   BACKBONE|DICT|INTERRES
   155   79   80 1    
   156   79  200 1    
   157   80   81 1    
   158   80   82 1    
   159   80  201 1    
   160   81  202 1    
   161   81  203 1    
   162   81  204 1    
   163   82   83 2    
   164   82   84 am   BACKBONE|DICT|INTERRES
   165   84   85 1    
   166   84  205 1    
   167   85   86 1    
   168   85   87 1    
   169   85  206 1    
   170   86  207 1    
   171   86  208 1    
   172   86  209 1    
   173   87   88 2    
   174   87   89 am   BACKBONE|DICT|INTERRES
   175   89   90 1    
   176   89  210 1    
   177   90   91 1    
   178   90   92 1    
   179   90  211 1    
   180   91  212 1    
   181   91  213 1    
   182   91  214 1    
   183   92   93 2    
   184   92   94 am   BACKBONE|DICT|INTERRES
   185   94   95 1    
   186   94  215 1    
   187   95   96 1    
   188   95   97 1    
   189   95  216 1    
   190   96  217 1    
   191   96  218 1    
   192   96  219 1    
   193   97   98 2    
   194   97   99 am   BACKBONE|DICT|INTERRES
   195   99  100 1    
   196   99  220 1    
   197  100  101 1    
   198  100  102 1    
   199  100  221 1    
   200  101  222 1    
   201  101  223 1    
   202  101  224 1    
   203  102  103 2    
   204  102  104 am   BACKBONE|DICT|INTERRES
   205  104  105 1    
   206  104  225 1    
   207  105  106 1    
   208  105  107 1    
   209  105  226 1    
   210  106  227 1    
   211  106  228 1    
   212  106  229 1    
   213  107  108 2    
   214  107  109 am   BACKBONE|DICT|INTERRES
   215  109  110 1    
   216  109  230 1    
   217  110  111 1    
   218  110  112 1    
   219  110  231 1    
   220  111  232 1    
   221  111  233 1    
   222  111  234 1    
   223  112  113 2    
   224  112  114 am   BACKBONE|DICT|INTERRES
   225  114  115 1    
   226  114  235 1    
   227  115  116 1    
   228  115  117 1    
   229  115  236 1    
   230  116  237 1    
   231  116  238 1    
   232  116  239 1    
   233  117  118 2    
   234  117  119 am   BACKBONE|DICT|INTERRES
   235  119  120 1    
   236  119  240 1    
   237  120  121 1    
   238  120  124 1    
   239  120  241 1    
   240  121  122 am   BACKBONE|DICT|INTERRES
   241  121  123 2    
   242  122  242 1    
   243  122  243 1    
   244  124  125 1    
   245  124  244 1    
   246  124  245 1    
   247  125  126 1    
   248  126  246 1    
   249  126  247 1    
@<TRIPOS>SUBSTRUCTURE
     1 UNK         1 GROUP             0       ****    0 ROOT    
