@<TRIPOS>MOLECULE
3R540
247   249    1
SMALL
USER_CHARGES


@<TRIPOS>ATOM
      1 CA          2.8648  -19.4233  -51.3563 C.3       0 UNK        -0.1800 
      2 C           2.5732  -18.5790  -50.1252 C.2       0 UNK         0.5000 
      3 O           3.1269  -18.8313  -49.0545 O.2       0 UNK        -0.5000 
      4 N           1.7199  -17.5565  -50.2717 N.am      1 UNK        -0.5000 
      5 CA          1.2711  -16.6725  -49.1885 C.3       1 UNK         0.1400 
      6 C6         -0.1128  -16.0318  -49.4450 C.3       23 UNK        -0.0398 
      7 S7         -0.3202  -15.2053  -51.0584 S.3       23 UNK        -0.2404 
      8 C8         -1.6609  -14.0273  -50.6735 C.3       23 UNK        -0.0205 
      9 C9         -2.9548  -14.7258  -50.2694 C.ar      23 UNK        -0.0193 
     10 C10        -3.9511  -14.9887  -51.2143 C.ar      23 UNK        -0.1150 
     11 C11        -5.1423  -15.6200  -50.8367 C.ar      23 UNK        -0.0193 
     12 C12        -5.3150  -16.0249  -49.5068 C.ar      23 UNK        -0.1150 
     13 C13        -4.3322  -15.7533  -48.5500 C.ar      23 UNK        -0.0193 
     14 C14        -3.1710  -15.0824  -48.9358 C.ar      23 UNK        -0.1150 
     15 C15        -4.5318  -16.1172  -47.0849 C.3       23 UNK        -0.0205 
     16 S16        -3.2913  -17.3175  -46.4940 S.3       23 UNK        -0.2404 
     17 C17        -4.2080  -18.8921  -46.5803 C.3       23 UNK        -0.0398 
     18 CA         -3.3256  -20.0836  -47.0248 C.3       11 UNK         0.1400 
     19 N          -2.1256  -20.2480  -46.2035 N.am      11 UNK        -0.5000 
     20 C          -1.0854  -21.0195  -46.5439 C.2       10 UNK         0.5000 
     21 O          -1.0145  -21.6427  -47.6017 O.2       10 UNK        -0.5000 
     22 CA          0.0417  -21.1676  -45.5099 C.3       10 UNK         0.1400 
     23 CB          1.0001  -19.9753  -45.6075 C.3       10 UNK        -0.1800 
     24 N          -0.4529  -21.2904  -44.1373 N.am      10 UNK        -0.5000 
     25 C          -1.3276  -22.2131  -43.7012 C.2       9 UNK         0.5000 
     26 O          -1.7208  -23.1600  -44.3860 O.2       9 UNK        -0.5000 
     27 CA         -1.8997  -22.0368  -42.2803 C.3       9 UNK         0.1400 
     28 CB         -1.1715  -22.9681  -41.3008 C.3       9 UNK        -0.1800 
     29 N          -1.8312  -20.6644  -41.7758 N.am      9 UNK        -0.5000 
     30 C          -2.3451  -19.5738  -42.3645 C.2       8 UNK         0.5000 
     31 O          -3.0515  -19.6142  -43.3732 O.2       8 UNK        -0.5000 
     32 CA         -1.9462  -18.2077  -41.7668 C.3       8 UNK         0.1400 
     33 CB         -3.1282  -17.5884  -41.0071 C.3       8 UNK        -0.1800 
     34 N          -0.7749  -18.2496  -40.8789 N.am      8 UNK        -0.5000 
     35 C           0.4630  -18.6180  -41.2386 C.2       7 UNK         0.5000 
     36 O           0.7562  -19.0221  -42.3649 O.2       7 UNK        -0.5000 
     37 CA          1.5316  -18.6029  -40.1416 C.3       7 UNK         0.1400 
     38 CB          1.9353  -20.0384  -39.7573 C.3       7 UNK        -0.1800 
     39 N           2.6946  -17.8547  -40.6067 N.am      7 UNK        -0.5000 
     40 C           3.5928  -17.2749  -39.7993 C.2       6 UNK         0.5000 
     41 O           3.5507  -17.3416  -38.5698 O.2       6 UNK        -0.5000 
     42 CA          4.7097  -16.4577  -40.4678 C.3       6 UNK         0.1400 
     43 CB          5.7874  -17.3750  -41.0686 C.3       6 UNK        -0.1800 
     44 N           4.1659  -15.5807  -41.5029 N.am      6 UNK        -0.5000 
     45 C           3.6847  -14.3494  -41.2740 C.2       5 UNK         0.5000 
     46 O           3.7122  -13.8010  -40.1715 O.2       5 UNK        -0.5000 
     47 CA          3.0693  -13.5937  -42.4699 C.3       5 UNK         0.1400 
     48 CB          4.1108  -12.6648  -43.1121 C.3       5 UNK        -0.1800 
     49 N           2.5386  -14.4868  -43.4977 N.am      5 UNK        -0.5000 
     50 C           1.4425  -15.2458  -43.3618 C.2       4 UNK         0.5000 
     51 O           0.6887  -15.1930  -42.3902 O.2       4 UNK        -0.5000 
     52 CA          1.1684  -16.2665  -44.4823 C.3       4 UNK         0.1400 
     53 CB          0.0768  -15.7576  -45.4348 C.3       4 UNK        -0.1800 
     54 N           2.3726  -16.6494  -45.2353 N.am      4 UNK        -0.5000 
     55 C           3.4059  -17.3270  -44.7050 C.2       3 UNK         0.5000 
     56 O           3.4506  -17.6477  -43.5174 O.2       3 UNK        -0.5000 
     57 CA          4.6002  -17.6900  -45.6117 C.3       3 UNK         0.1400 
     58 CB          4.6616  -19.2064  -45.8500 C.3       3 UNK        -0.1800 
     59 N           4.5816  -17.0108  -46.9060 N.am      3 UNK        -0.5000 
     60 C           4.9806  -15.7465  -47.1163 C.2       2 UNK         0.5000 
     61 O           5.4583  -15.0273  -46.2387 O.2       2 UNK        -0.5000 
     62 CA          4.7520  -15.1755  -48.5346 C.3       2 UNK         0.1400 
     63 CB          5.9855  -15.4104  -49.4187 C.3       2 UNK        -0.1800 
     64 N           3.5758  -15.7639  -49.1820 N.am      2 UNK        -0.5000 
     65 C           2.3306  -15.6603  -48.6980 C.2       1 UNK         0.5000 
     66 O           2.0356  -14.8680  -47.8049 O.2       1 UNK        -0.5000 
     67 C          -4.1464  -21.3850  -47.0495 C.2       11 UNK         0.5000 
     68 O          -4.5839  -21.8058  -48.1197 O.2       11 UNK        -0.5000 
     69 N          -4.3234  -21.9891  -45.8674 N.am      12 UNK        -0.5000 
     70 CA         -5.1800  -23.1478  -45.6413 C.3       12 UNK         0.1400 
     71 CB         -5.3886  -23.3431  -44.1310 C.3       12 UNK        -0.1800 
     72 C          -4.6673  -24.4420  -46.2939 C.2       12 UNK         0.5000 
     73 O          -5.4161  -25.0634  -47.0493 O.2       12 UNK        -0.5000 
     74 N          -3.4311  -24.8504  -45.9701 N.am      13 UNK        -0.5000 
     75 CA         -2.9328  -26.1865  -46.3156 C.3       13 UNK         0.1400 
     76 CB         -3.5660  -27.2386  -45.3826 C.3       13 UNK        -0.1800 
     77 C          -1.4040  -26.3362  -46.3011 C.2       13 UNK         0.5000 
     78 O          -0.9057  -27.2371  -46.9768 O.2       13 UNK        -0.5000 
     79 N          -0.6732  -25.4981  -45.5479 N.am      14 UNK        -0.5000 
     80 CA          0.7855  -25.6202  -45.4071 C.3       14 UNK         0.1400 
     81 CB          1.2791  -24.7999  -44.2057 C.3       14 UNK        -0.1800 
     82 C           1.5406  -25.2498  -46.6984 C.2       14 UNK         0.5000 
     83 O           2.5659  -25.8621  -46.9989 O.2       14 UNK        -0.5000 
     84 N           0.9837  -24.2980  -47.4570 N.am      15 UNK        -0.5000 
     85 CA          1.3482  -24.0118  -48.8459 C.3       15 UNK         0.1400 
     86 CB          2.0148  -22.6275  -48.9279 C.3       15 UNK        -0.1800 
     87 C           0.1213  -24.1006  -49.7777 C.2       15 UNK         0.5000 
     88 O           0.3015  -24.1417  -50.9948 O.2       15 UNK        -0.5000 
     89 N          -1.0930  -24.1276  -49.1982 N.am      16 UNK        -0.5000 
     90 CA         -2.4070  -24.1144  -49.8526 C.3       16 UNK         0.1400 
     91 CB         -2.6558  -25.4335  -50.6108 C.3       16 UNK        -0.1800 
     92 C          -2.6198  -22.8614  -50.7275 C.2       16 UNK         0.5000 
     93 O          -3.2422  -22.9370  -51.7886 O.2       16 UNK        -0.5000 
     94 N          -2.0844  -21.7208  -50.2700 N.am      17 UNK        -0.5000 
     95 CA         -2.0152  -20.4719  -51.0261 C.3       17 UNK         0.1400 
     96 CB         -1.0609  -19.4968  -50.3271 C.3       17 UNK        -0.1800 
     97 C          -3.3773  -19.8201  -51.3302 C.2       17 UNK         0.5000 
     98 O          -3.4439  -19.0055  -52.2465 O.2       17 UNK        -0.5000 
     99 N          -4.4521  -20.2289  -50.6381 N.am      18 UNK        -0.5000 
    100 CA        -5.8290  -19.8462  -50.9687 C.3       18 UNK         0.1400 
    101 CB        -6.7701  -20.2724  -49.8325 C.3       18 UNK        -0.1800 
    102 C         -6.3227  -20.4140  -52.3184 C.2       18 UNK         0.5000 
    103 O         -7.3211  -19.9226  -52.8439 O.2       18 UNK        -0.5000 
    104 N         -5.6301  -21.4262  -52.8606 N.am      19 UNK        -0.5000 
    105 CA        -5.8841  -21.9908  -54.1855 C.3       19 UNK         0.1400 
    106 CB        -5.7028  -23.5159  -54.1134 C.3       19 UNK        -0.1800 
    107 C         -4.9678  -21.3889  -55.2708 C.2       19 UNK         0.5000 
    108 O         -5.1556  -21.7049  -56.4471 O.2       19 UNK        -0.5000 
    109 N         -3.9918  -20.5476  -54.8934 N.am      20 UNK        -0.5000 
    110 CA        -2.9788  -19.9834  -55.7902 C.3       20 UNK         0.1400 
    111 CB        -1.7025  -19.6663  -54.9896 C.3       20 UNK        -0.1800 
    112 C         -3.5109  -18.7677  -56.5763 C.2       20 UNK         0.5000 
    113 O         -3.0143  -17.6523  -56.4111 O.2       20 UNK        -0.5000 
    114 N         -4.5150  -19.0222  -57.4268 N.am      21 UNK        -0.5000 
    115 CA        -5.1642  -18.0834  -58.3501 C.3       21 UNK         0.1400 
    116 CB        -4.1734  -17.6079  -59.4341 C.3       21 UNK        -0.1800 
    117 C         -5.8936  -16.9184  -57.6454 C.2       21 UNK         0.5000 
    118 O         -5.9462  -15.8080  -58.1781 O.2       21 UNK        -0.5000 
    119 N         -6.4658  -17.1999  -56.4680 N.am      22 UNK        -0.5000 
    120 CA        -7.2760  -16.2565  -55.6774 C.3       22 UNK         0.1400 
    121 C         -8.6780  -15.9395  -56.2817 C.2       22 UNK         0.5000 
    122 N         -9.1731  -16.6882  -57.2603 N.am      22 UNK        -0.7600 
    123 O         -9.3280  -14.9886  -55.8561 O.2       22 UNK        -0.5000 
    124 C124       -7.4176  -16.7265  -54.2085 C.3       23 UNK        -0.0398 
    125 S125       -5.8267  -16.7515  -53.3109 S.3       23 UNK        -0.2404 
    126 C126       -6.2795  -15.7810  -51.8381 C.3       23 UNK        -0.0205 
    127 H127        2.4133  -20.4088  -51.2492 H         1 UNK         0.0600 
    128 H128        3.9402  -19.5496  -51.4809 H         1 UNK         0.0600 
    129 H129        2.4690  -18.9648  -52.2628 H         1 UNK         0.0600 
    130 H130        1.3195  -17.3614  -51.1789 H         1 UNK         0.3000 
    131 H131        1.1206  -17.3201  -48.3214 H         1 UNK         0.0600 
    132 H132       -0.8833  -16.7984  -49.3713 H         1 UNK         0.0800 
    133 H133       -0.3419  -15.3223  -48.6502 H         1 UNK         0.0800 
    134 H134       -1.3352  -13.3536  -49.8793 H         1 UNK         0.0800 
    135 H135       -1.8364  -13.3992  -51.5480 H         1 UNK         0.0800 
    136 H136       -3.8106  -14.6837  -52.2419 H         1 UNK         0.1150 
    137 H137       -6.2324  -16.5114  -49.2068 H         1 UNK         0.1150 
    138 H138       -2.4327  -14.8448  -48.1846 H         1 UNK         0.1150 
    139 H139       -4.4390  -15.2082  -46.4891 H         1 UNK         0.0800 
    140 H140       -5.5404  -16.4910  -46.9031 H         1 UNK         0.0800 
    141 H141       -4.6447  -19.0753  -45.5969 H         1 UNK         0.0800 
    142 H142       -5.0437  -18.7754  -47.2715 H         1 UNK         0.0800 
    143 H143       -3.0117  -19.8884  -48.0483 H         1 UNK         0.0600 
    144 H144       -2.1431  -19.8039  -45.2931 H         1 UNK         0.3000 
    145 H145        0.6003  -22.0695  -45.7550 H         1 UNK         0.0600 
    146 H146        1.8307  -20.0784  -44.9091 H         1 UNK         0.0600 
    147 H147        1.4197  -19.8910  -46.6111 H         1 UNK         0.0600 
    148 H148        0.4910  -19.0379  -45.3862 H         1 UNK         0.0600 
    149 H149       -0.1580  -20.5635  -43.4936 H         1 UNK         0.3000 
    150 H150       -2.9522  -22.3210  -42.3117 H         1 UNK         0.0600 
    151 H151       -1.2286  -24.0061  -41.6318 H         1 UNK         0.0600 
    152 H152       -1.6157  -22.9214  -40.3064 H         1 UNK         0.0600 
    153 H153       -0.1154  -22.7100  -41.2105 H         1 UNK         0.0600 
    154 H154       -1.2645  -20.5210  -40.9538 H         1 UNK         0.3000 
    155 H155       -1.6986  -17.5539  -42.6059 H         1 UNK         0.0600 
    156 H156       -2.8920  -16.5812  -40.6632 H         1 UNK         0.0600 
    157 H157       -3.4051  -18.1859  -40.1377 H         1 UNK         0.0600 
    158 H158       -4.0083  -17.5123  -41.6475 H         1 UNK         0.0600 
    159 H159       -0.9332  -17.9476  -39.9282 H         1 UNK         0.3000 
    160 H160        1.1177  -18.1050  -39.2619 H         1 UNK         0.0600 
    161 H161        2.3888  -20.5649  -40.5982 H         1 UNK         0.0600 
    162 H162        1.0685  -20.6168  -39.4355 H         1 UNK         0.0600 
    163 H163        2.6508  -20.0440  -38.9350 H         1 UNK         0.0600 
    164 H164        2.7949  -17.7793  -41.6162 H         1 UNK         0.3000 
    165 H165        5.1904  -15.8507  -39.6974 H         1 UNK         0.0600 
    166 H166        5.3808  -18.0532  -41.8184 H         1 UNK         0.0600 
    167 H167        6.5817  -16.7943  -41.5378 H         1 UNK         0.0600 
    168 H168        6.2479  -17.9883  -40.2932 H         1 UNK         0.0600 
    169 H169        4.0445  -15.9953  -42.4183 H         1 UNK         0.3000 
    170 H170        2.2496  -12.9805  -42.0895 H         1 UNK         0.0600 
    171 H171        4.5184  -11.9677  -42.3788 H         1 UNK         0.0600 
    172 H172        4.9464  -13.2265  -43.5322 H         1 UNK         0.0600 
    173 H173        3.6694  -12.0712  -43.9130 H         1 UNK         0.0600 
    174 H174        3.0903  -14.5906  -44.3373 H         1 UNK         0.3000 
    175 H175        0.7816  -17.1648  -44.0066 H         1 UNK         0.0600 
    176 H176       -0.8642  -15.6177  -44.9014 H         1 UNK         0.0600 
    177 H177        0.3400  -14.7973  -45.8775 H         1 UNK         0.0600 
    178 H178       -0.1139  -16.4675  -46.2393 H         1 UNK         0.0600 
    179 H179        2.4244  -16.3390  -46.1954 H         1 UNK         0.3000 
    180 H180        5.5059  -17.4001  -45.0748 H         1 UNK         0.0600 
    181 H181        3.8167  -19.5564  -46.4425 H         1 UNK         0.0600 
    182 H182        4.6545  -19.7557  -44.9076 H         1 UNK         0.0600 
    183 H183        5.5737  -19.4829  -46.3791 H         1 UNK         0.0600 
    184 H184        4.1956  -17.5397  -47.6807 H         1 UNK         0.3000 
    185 H185        4.5906  -14.0995  -48.4419 H         1 UNK         0.0600 
    186 H186        5.8570  -14.9594  -50.4028 H         1 UNK         0.0600 
    187 H187        6.8757  -14.9658  -48.9718 H         1 UNK         0.0600 
    188 H188        6.1842  -16.4737  -49.5591 H         1 UNK         0.0600 
    189 H189        3.7469  -16.4446  -49.9075 H         1 UNK         0.3000 
    190 H190       -3.8844  -21.5848  -45.0530 H         1 UNK         0.3000 
    191 H191       -6.1539  -22.9230  -46.0819 H         1 UNK         0.0600 
    192 H192       -6.0875  -24.1582  -43.9384 H         1 UNK         0.0600 
    193 H193       -5.8009  -22.4463  -43.6681 H         1 UNK         0.0600 
    194 H194       -4.4573  -23.5877  -43.6208 H         1 UNK         0.0600 
    195 H195       -2.8574  -24.2661  -45.3676 H         1 UNK         0.3000 
    196 H196       -3.2374  -26.4112  -47.3404 H         1 UNK         0.0600 
    197 H197       -3.1875  -28.2385  -45.5993 H         1 UNK         0.0600 
    198 H198       -4.6491  -27.2779  -45.4974 H         1 UNK         0.0600 
    199 H199       -3.3481  -27.0243  -44.3357 H         1 UNK         0.0600 
    200 H200       -1.1211  -24.7579  -45.0147 H         1 UNK         0.3000 
    201 H201        1.0092  -26.6679  -45.1938 H         1 UNK         0.0600 
    202 H202        0.7492  -25.0760  -43.2940 H         1 UNK         0.0600 
    203 H203        1.1518  -23.7308  -44.3559 H         1 UNK         0.0600 
    204 H204        2.3410  -24.9756  -44.0294 H         1 UNK         0.0600 
    205 H205        0.1723  -23.8197  -47.0985 H         1 UNK         0.3000 
    206 H206        2.0627  -24.7540  -49.2078 H         1 UNK         0.0600 
    207 H207        2.8806  -22.5666  -48.2685 H         1 UNK         0.0600 
    208 H208        2.3656  -22.4291  -49.9406 H         1 UNK         0.0600 
    209 H209        1.3324  -21.8231  -48.6563 H         1 UNK         0.0600 
    210 H210       -1.1290  -24.0311  -48.1972 H         1 UNK         0.3000 
    211 H211       -3.1465  -24.0513  -49.0533 H         1 UNK         0.0600 
    212 H212       -1.9910  -25.5393  -51.4684 H         1 UNK         0.0600 
    213 H213       -3.6798  -25.4822  -50.9830 H         1 UNK         0.0600 
    214 H214       -2.5058  -26.2955  -49.9606 H         1 UNK         0.0600 
    215 H215       -1.6169  -21.7350  -49.3665 H         1 UNK         0.3000 
    216 H216       -1.5697  -20.7185  -51.9917 H         1 UNK         0.0600 
    217 H217       -1.4497  -19.1416  -49.3753 H         1 UNK         0.0600 
    218 H218       -0.0946  -19.9634  -50.1380 H         1 UNK         0.0600 
    219 H219       -0.8862  -18.6233  -50.9559 H         1 UNK         0.0600 
    220 H220       -4.3394  -20.9217  -49.9049 H         1 UNK         0.3000 
    221 H221       -5.8641  -18.7579  -51.0417 H         1 UNK         0.0600 
    222 H222       -6.7735  -21.3548  -49.6993 H         1 UNK         0.0600 
    223 H223       -6.4814  -19.8163  -48.8866 H         1 UNK         0.0600 
    224 H224       -7.7960  -19.9642  -50.0382 H         1 UNK         0.0600 
    225 H225       -4.8299  -21.8052  -52.3629 H         1 UNK         0.3000 
    226 H226       -6.9148  -21.7928  -54.4863 H         1 UNK         0.0600 
    227 H227       -4.6724  -23.7902  -53.8853 H         1 UNK         0.0600 
    228 H228       -6.3438  -23.9543  -53.3483 H         1 UNK         0.0600 
    229 H229       -5.9630  -23.9862  -55.0624 H         1 UNK         0.0600 
    230 H230       -3.9462  -20.2461  -53.9274 H         1 UNK         0.3000 
    231 H231       -2.7066  -20.7429  -56.5264 H         1 UNK         0.0600 
    232 H232       -0.8994  -19.3458  -55.6542 H         1 UNK         0.0600 
    233 H233       -1.3451  -20.5436  -54.4508 H         1 UNK         0.0600 
    234 H234       -1.8616  -18.8655  -54.2678 H         1 UNK         0.0600 
    235 H235       -4.8672  -19.9748  -57.4418 H         1 UNK         0.3000 
    236 H236       -5.9436  -18.6551  -58.8555 H         1 UNK         0.0600 
    237 H237       -3.6910  -18.4528  -59.9256 H         1 UNK         0.0600 
    238 H238       -4.6848  -17.0343  -60.2080 H         1 UNK         0.0600 
    239 H239       -3.3925  -16.9705  -59.0185 H         1 UNK         0.0600 
    240 H240       -6.3553  -18.1264  -56.0847 H         1 UNK         0.3000 
    241 H241       -6.7428  -15.3037  -55.6650 H         1 UNK         0.0600 
    242 H242       -8.6564  -17.4740  -57.6203 H         1 UNK         0.3800 
    243 H243      -10.0791  -16.4672  -57.6434 H         1 UNK         0.3800 
    244 H244       -8.1111  -16.0793  -53.6687 H         1 UNK         0.0800 
    245 H245       -7.8570  -17.7237  -54.1722 H         1 UNK         0.0800 
    246 H246       -7.1401  -16.2538  -51.3620 H         1 UNK         0.0800 
    247 H247       -6.6060  -14.7886  -52.1521 H         1 UNK         0.0800 
@<TRIPOS>BOND
     1    1    2 1    
     2    1  127 1    
     3    1  128 1    
     4    1  129 1    
     5    2    3 2    
     6    2    4 am   BACKBONE|DICT|INTERRES
     7    4    5 1    
     8    4  130 1    
     9    5    6 1    
    10    5   65 1    
    11    5  131 1    
    12    6    7 1    
    13    6  132 1    
    14    6  133 1    
    15    7    8 1    
    16    8    9 1    
    17    8  134 1    
    18    8  135 1    
    19    9   10 ar   
    20    9   14 ar   
    21   10   11 ar   
    22   10  136 1    
    23   11   12 ar   
    24   11  126 1    
    25   12   13 ar   
    26   12  137 1    
    27   13   14 ar   
    28   13   15 1    
    29   14  138 1    
    30   15   16 1    
    31   15  139 1    
    32   15  140 1    
    33   16   17 1    
    34   17   18 1    
    35   17  141 1    
    36   17  142 1    
    37   18   19 1    
    38   18   67 1    
    39   18  143 1    
    40   19   20 am   BACKBONE|DICT|INTERRES
    41   19  144 1    
    42   20   21 2    
    43   20   22 1    
    44   22   23 1    
    45   22   24 1    
    46   22  145 1    
    47   23  146 1    
    48   23  147 1    
    49   23  148 1    
    50   24   25 am   BACKBONE|DICT|INTERRES
    51   24  149 1    
    52   25   26 2    
    53   25   27 1    
    54   27   28 1    
    55   27   29 1    
    56   27  150 1    
    57   28  151 1    
    58   28  152 1    
    59   28  153 1    
    60   29   30 am   BACKBONE|DICT|INTERRES
    61   29  154 1    
    62   30   31 2    
    63   30   32 1    
    64   32   33 1    
    65   32   34 1    
    66   32  155 1    
    67   33  156 1    
    68   33  157 1    
    69   33  158 1    
    70   34   35 am   BACKBONE|DICT|INTERRES
    71   34  159 1    
    72   35   36 2    
    73   35   37 1    
    74   37   38 1    
    75   37   39 1    
    76   37  160 1    
    77   38  161 1    
    78   38  162 1    
    79   38  163 1    
    80   39   40 am   BACKBONE|DICT|INTERRES
    81   39  164 1    
    82   40   41 2    
    83   40   42 1    
    84   42   43 1    
    85   42   44 1    
    86   42  165 1    
    87   43  166 1    
    88   43  167 1    
    89   43  168 1    
    90   44   45 am   BACKBONE|DICT|INTERRES
    91   44  169 1    
    92   45   46 2    
    93   45   47 1    
    94   47   48 1    
    95   47   49 1    
    96   47  170 1    
    97   48  171 1    
    98   48  172 1    
    99   48  173 1    
   100   49   50 am   BACKBONE|DICT|INTERRES
   101   49  174 1    
   102   50   51 2    
   103   50   52 1    
   104   52   53 1    
   105   52   54 1    
   106   52  175 1    
   107   53  176 1    
   108   53  177 1    
   109   53  178 1    
   110   54   55 am   BACKBONE|DICT|INTERRES
   111   54  179 1    
   112   55   56 2    
   113   55   57 1    
   114   57   58 1    
   115   57   59 1    
   116   57  180 1    
   117   58  181 1    
   118   58  182 1    
   119   58  183 1    
   120   59   60 am   BACKBONE|DICT|INTERRES
   121   59  184 1    
   122   60   61 2    
   123   60   62 1    
   124   62   63 1    
   125   62   64 1    
   126   62  185 1    
   127   63  186 1    
   128   63  187 1    
   129   63  188 1    
   130   64   65 am   BACKBONE|DICT|INTERRES
   131   64  189 1    
   132   65   66 2    
   133   67   68 2    
   134   67   69 am   BACKBONE|DICT|INTERRES
   135   69   70 1    
   136   69  190 1    
   137   70   71 1    
   138   70   72 1    
   139   70  191 1    
   140   71  192 1    
   141   71  193 1    
   142   71  194 1    
   143   72   73 2    
   144   72   74 am   BACKBONE|DICT|INTERRES
   145   74   75 1    
   146   74  195 1    
   147   75   76 1    
   148   75   77 1    
   149   75  196 1    
   150   76  197 1    
   151   76  198 1    
   152   76  199 1    
   153   77   78 2    
   154   77   79 am   BACKBONE|DICT|INTERRES
   155   79   80 1    
   156   79  200 1    
   157   80   81 1    
   158   80   82 1    
   159   80  201 1    
   160   81  202 1    
   161   81  203 1    
   162   81  204 1    
   163   82   83 2    
   164   82   84 am   BACKBONE|DICT|INTERRES
   165   84   85 1    
   166   84  205 1    
   167   85   86 1    
   168   85   87 1    
   169   85  206 1    
   170   86  207 1    
   171   86  208 1    
   172   86  209 1    
   173   87   88 2    
   174   87   89 am   BACKBONE|DICT|INTERRES
   175   89   90 1    
   176   89  210 1    
   177   90   91 1    
   178   90   92 1    
   179   90  211 1    
   180   91  212 1    
   181   91  213 1    
   182   91  214 1    
   183   92   93 2    
   184   92   94 am   BACKBONE|DICT|INTERRES
   185   94   95 1    
   186   94  215 1    
   187   95   96 1    
   188   95   97 1    
   189   95  216 1    
   190   96  217 1    
   191   96  218 1    
   192   96  219 1    
   193   97   98 2    
   194   97   99 am   BACKBONE|DICT|INTERRES
   195   99  100 1    
   196   99  220 1    
   197  100  101 1    
   198  100  102 1    
   199  100  221 1    
   200  101  222 1    
   201  101  223 1    
   202  101  224 1    
   203  102  103 2    
   204  102  104 am   BACKBONE|DICT|INTERRES
   205  104  105 1    
   206  104  225 1    
   207  105  106 1    
   208  105  107 1    
   209  105  226 1    
   210  106  227 1    
   211  106  228 1    
   212  106  229 1    
   213  107  108 2    
   214  107  109 am   BACKBONE|DICT|INTERRES
   215  109  110 1    
   216  109  230 1    
   217  110  111 1    
   218  110  112 1    
   219  110  231 1    
   220  111  232 1    
   221  111  233 1    
   222  111  234 1    
   223  112  113 2    
   224  112  114 am   BACKBONE|DICT|INTERRES
   225  114  115 1    
   226  114  235 1    
   227  115  116 1    
   228  115  117 1    
   229  115  236 1    
   230  116  237 1    
   231  116  238 1    
   232  116  239 1    
   233  117  118 2    
   234  117  119 am   BACKBONE|DICT|INTERRES
   235  119  120 1    
   236  119  240 1    
   237  120  121 1    
   238  120  124 1    
   239  120  241 1    
   240  121  122 am   BACKBONE|DICT|INTERRES
   241  121  123 2    
   242  122  242 1    
   243  122  243 1    
   244  124  125 1    
   245  124  244 1    
   246  124  245 1    
   247  125  126 1    
   248  126  246 1    
   249  126  247 1    
@<TRIPOS>SUBSTRUCTURE
     1 UNK         1 GROUP             0       ****    0 ROOT    
