@<TRIPOS>MOLECULE
3R540
247   249    1
SMALL
USER_CHARGES


@<TRIPOS>ATOM
      1 CA          0.4384  -16.3086  -50.6592 C.3       0 UNK        -0.1800 
      2 C           1.2949  -15.0872  -50.3758 C.2       0 UNK         0.5000 
      3 O           0.8497  -13.9607  -50.5930 O.2       0 UNK        -0.5000 
      4 N           2.5267  -15.3115  -49.9010 N.am      1 UNK        -0.5000 
      5 CA          3.5157  -14.2702  -49.6005 C.3       1 UNK         0.1400 
      6 C6          4.9445  -14.8462  -49.4155 C.3       23 UNK        -0.0398 
      7 S7          5.8348  -15.4622  -50.9019 S.3       23 UNK        -0.2404 
      8 C8          4.5934  -15.9930  -52.1435 C.3       23 UNK        -0.0205 
      9 C9          3.8784  -17.3230  -51.8761 C.ar      23 UNK        -0.0193 
     10 C10         3.0025  -17.8176  -52.8498 C.ar      23 UNK        -0.1150 
     11 C11         2.2890  -19.0041  -52.6440 C.ar      23 UNK        -0.0193 
     12 C12         2.4463  -19.6984  -51.4421 C.ar      23 UNK        -0.1150 
     13 C13         3.3213  -19.2230  -50.4626 C.ar      23 UNK        -0.0193 
     14 C14         4.0434  -18.0506  -50.6906 C.ar      23 UNK        -0.1150 
     15 C15         3.4951  -19.9662  -49.1496 C.3       23 UNK        -0.0205 
     16 S16         2.6898  -19.0888  -47.7723 S.3       23 UNK        -0.2404 
     17 C17         0.9257  -19.3923  -48.1238 C.3       23 UNK        -0.0398 
     18 CA          0.4573  -20.7687  -47.6021 C.3       11 UNK         0.1400 
     19 N           0.4892  -20.8760  -46.1419 N.am      11 UNK        -0.5000 
     20 C           0.3399  -22.0216  -45.4636 C.2       10 UNK         0.5000 
     21 O           0.1897  -23.1185  -46.0018 O.2       10 UNK        -0.5000 
     22 CA          0.3048  -21.9241  -43.9282 C.3       10 UNK         0.1400 
     23 CB          1.7218  -21.7831  -43.3531 C.3       10 UNK        -0.1800 
     24 N          -0.5404  -20.8276  -43.4526 N.am      10 UNK        -0.5000 
     25 C          -1.8653  -20.7586  -43.6498 C.2       9 UNK         0.5000 
     26 O          -2.5160  -21.6303  -44.2266 O.2       9 UNK        -0.5000 
     27 CA         -2.5817  -19.4906  -43.1516 C.3       9 UNK         0.1400 
     28 CB         -2.8410  -19.5709  -41.6399 C.3       9 UNK        -0.1800 
     29 N          -1.8463  -18.2643  -43.4580 N.am      9 UNK        -0.5000 
     30 C          -1.5817  -17.8211  -44.6955 C.2       8 UNK         0.5000 
     31 O          -1.9644  -18.3816  -45.7219 O.2       8 UNK        -0.5000 
     32 CA         -0.6786  -16.5772  -44.8038 C.3       8 UNK         0.1400 
     33 CB         -1.4682  -15.2951  -44.4993 C.3       8 UNK        -0.1800 
     34 N           0.4953  -16.6598  -43.9307 N.am      8 UNK        -0.5000 
     35 C           1.4131  -17.6366  -43.9976 C.2       7 UNK         0.5000 
     36 O           1.3817  -18.5464  -44.8212 O.2       7 UNK        -0.5000 
     37 CA          2.5252  -17.6293  -42.9411 C.3       7 UNK         0.1400 
     38 CB          3.6390  -16.6576  -43.3436 C.3       7 UNK        -0.1800 
     39 N           2.0068  -17.2853  -41.6192 N.am      7 UNK        -0.5000 
     40 C           1.2334  -18.1017  -40.8888 C.2       6 UNK         0.5000 
     41 O           0.9158  -19.2390  -41.2384 O.2       6 UNK        -0.5000 
     42 CA          0.6847  -17.5304  -39.5693 C.3       6 UNK         0.1400 
     43 CB          1.7468  -17.5977  -38.4617 C.3       6 UNK        -0.1800 
     44 N           0.2136  -16.1519  -39.7095 N.am      6 UNK        -0.5000 
     45 C          -0.8183  -15.7799  -40.4795 C.2       5 UNK         0.5000 
     46 O          -1.5029  -16.5669  -41.1324 O.2       5 UNK        -0.5000 
     47 CA         -1.1168  -14.2725  -40.5638 C.3       5 UNK         0.1400 
     48 CB         -2.1167  -13.8630  -39.4723 C.3       5 UNK        -0.1800 
     49 N           0.0711  -13.4182  -40.4756 N.am      5 UNK        -0.5000 
     50 C           1.0992  -13.4295  -41.3348 C.2       4 UNK         0.5000 
     51 O           1.1961  -14.2307  -42.2703 O.2       4 UNK        -0.5000 
     52 CA          2.1668  -12.3400  -41.1051 C.3       4 UNK         0.1400 
     53 CB          2.8765  -12.4937  -39.7428 C.3       4 UNK        -0.1800 
     54 N           3.1074  -12.2492  -42.2264 N.am      4 UNK        -0.5000 
     55 C           4.1398  -13.0469  -42.5298 C.2       3 UNK         0.5000 
     56 O           4.5997  -13.9091  -41.7797 O.2       3 UNK        -0.5000 
     57 CA          4.7114  -12.8730  -43.9554 C.3       3 UNK         0.1400 
     58 CB          6.0462  -13.6130  -44.1555 C.3       3 UNK        -0.1800 
     59 N           3.7589  -13.3474  -44.9634 N.am      3 UNK        -0.5000 
     60 C           2.6278  -12.7238  -45.3187 C.2       2 UNK         0.5000 
     61 O           2.3150  -11.6021  -44.9115 O.2       2 UNK        -0.5000 
     62 CA          1.6934  -13.5020  -46.2670 C.3       2 UNK         0.1400 
     63 CB          0.4732  -12.6763  -46.7228 C.3       2 UNK        -0.1800 
     64 N           2.3711  -14.0840  -47.4302 N.am      2 UNK        -0.5000 
     65 C           3.0968  -13.4425  -48.3623 C.2       1 UNK         0.5000 
     66 O           3.4109  -12.2535  -48.2993 O.2       1 UNK        -0.5000 
     67 C          -0.9222  -21.1327  -48.1777 C.2       11 UNK         0.5000 
     68 O          -0.9741  -21.8403  -49.1825 O.2       11 UNK        -0.5000 
     69 N          -2.0057  -20.7014  -47.5150 N.am      12 UNK        -0.5000 
     70 CA         -3.3753  -21.0676  -47.8725 C.3       12 UNK         0.1400 
     71 CB         -4.3777  -20.2668  -47.0294 C.3       12 UNK        -0.1800 
     72 C          -3.6231  -22.5786  -47.7370 C.2       12 UNK         0.5000 
     73 O          -4.1756  -23.1802  -48.6568 O.2       12 UNK        -0.5000 
     74 N          -3.1725  -23.1751  -46.6241 N.am      13 UNK        -0.5000 
     75 CA         -3.2362  -24.6157  -46.3716 C.3       13 UNK         0.1400 
     76 CB         -2.7633  -24.9150  -44.9414 C.3       13 UNK        -0.1800 
     77 C          -2.4396  -25.4378  -47.4021 C.2       13 UNK         0.5000 
     78 O          -2.9612  -26.4283  -47.9165 O.2       13 UNK        -0.5000 
     79 N          -1.2195  -24.9836  -47.7259 N.am      14 UNK        -0.5000 
     80 CA         -0.3592  -25.5592  -48.7643 C.3       14 UNK         0.1400 
     81 CB          1.0173  -24.8785  -48.7267 C.3       14 UNK        -0.1800 
     82 C          -0.9726  -25.4673  -50.1755 C.2       14 UNK         0.5000 
     83 O          -0.8086  -26.3911  -50.9721 O.2       14 UNK        -0.5000 
     84 N          -1.7135  -24.3837  -50.4376 N.am      15 UNK        -0.5000 
     85 CA         -2.4830  -24.1370  -51.6570 C.3       15 UNK         0.1400 
     86 CB         -2.5549  -22.6195  -51.8954 C.3       15 UNK        -0.1800 
     87 C          -3.8852  -24.7858  -51.6349 C.2       15 UNK         0.5000 
     88 O          -4.7800  -24.3022  -52.3283 O.2       15 UNK        -0.5000 
     89 N          -4.0586  -25.8616  -50.8513 N.am      16 UNK        -0.5000 
     90 CA         -5.2574  -26.6989  -50.7347 C.3       16 UNK         0.1400 
     91 CB         -5.5038  -27.4740  -52.0462 C.3       16 UNK        -0.1800 
     92 C          -6.4943  -25.9176  -50.2472 C.2       16 UNK         0.5000 
     93 O          -7.5698  -26.0209  -50.8396 O.2       16 UNK        -0.5000 
     94 N          -6.2969  -25.1431  -49.1713 N.am      17 UNK        -0.5000 
     95 CA         -7.2517  -24.2158  -48.5547 C.3       17 UNK         0.1400 
     96 CB         -8.4933  -24.9543  -48.0108 C.3       17 UNK        -0.1800 
     97 C          -7.5884  -23.0396  -49.4938 C.2       17 UNK         0.5000 
     98 O          -8.7577  -22.6864  -49.6563 O.2       17 UNK        -0.5000 
     99 N          -6.5304  -22.4638  -50.0841 N.am      18 UNK        -0.5000 
    100 CA        -6.5174  -21.3454  -51.0290 C.3       18 UNK         0.1400 
    101 CB        -6.9050  -20.0352  -50.3143 C.3       18 UNK        -0.1800 
    102 C         -7.3747  -21.6246  -52.2790 C.2       18 UNK         0.5000 
    103 O         -8.3374  -20.9018  -52.5494 O.2       18 UNK        -0.5000 
    104 N         -7.0248  -22.6917  -53.0088 N.am      19 UNK        -0.5000 
    105 CA        -7.6981  -23.1586  -54.2215 C.3       19 UNK         0.1400 
    106 CB        -7.2540  -24.6021  -54.5141 C.3       19 UNK        -0.1800 
    107 C         -7.4649  -22.2129  -55.4190 C.2       19 UNK         0.5000 
    108 O         -6.6967  -22.5323  -56.3276 O.2       19 UNK        -0.5000 
    109 N         -8.1300  -21.0512  -55.3714 N.am      20 UNK        -0.5000 
    110 CA        -8.1440  -19.9580  -56.3508 C.3       20 UNK         0.1400 
    111 CB        -8.6439  -20.4471  -57.7265 C.3       20 UNK        -0.1800 
    112 C         -6.8232  -19.1646  -56.4537 C.2       20 UNK         0.5000 
    113 O         -6.6956  -18.3263  -57.3481 O.2       20 UNK        -0.5000 
    114 N         -5.8800  -19.3990  -55.5342 N.am      21 UNK        -0.5000 
    115 CA        -4.5991  -18.7082  -55.4408 C.3       21 UNK         0.1400 
    116 CB        -3.6263  -19.2417  -56.5096 C.3       21 UNK        -0.1800 
    117 C         -4.0138  -18.9107  -54.0381 C.2       21 UNK         0.5000 
    118 O         -4.2837  -19.9351  -53.4072 O.2       21 UNK        -0.5000 
    119 N         -3.1985  -17.9405  -53.6069 N.am      22 UNK        -0.5000 
    120 CA        -2.3324  -17.9780  -52.4124 C.3       22 UNK         0.1400 
    121 C         -3.0599  -18.1155  -51.0405 C.2       22 UNK         0.5000 
    122 N         -4.3451  -17.8017  -50.9462 N.am      22 UNK        -0.7600 
    123 O         -2.4442  -18.4589  -50.0369 O.2       22 UNK        -0.5000 
    124 C124       -1.1427  -18.9665  -52.5756 C.3       23 UNK        -0.0398 
    125 S125       -0.0990  -18.5305  -54.0098 S.3       23 UNK        -0.2404 
    126 C126        1.3791  -19.5557  -53.7341 C.3       23 UNK        -0.0205 
    127 H127        0.9115  -17.2236  -50.3057 H         1 UNK         0.0600 
    128 H128        0.2861  -16.4013  -51.7335 H         1 UNK         0.0600 
    129 H129       -0.5326  -16.2155  -50.1731 H         1 UNK         0.0600 
    130 H130        2.8427  -16.2651  -49.7906 H         1 UNK         0.3000 
    131 H131        3.5415  -13.5776  -50.4445 H         1 UNK         0.0600 
    132 H132        4.9302  -15.6463  -48.6737 H         1 UNK         0.0800 
    133 H133        5.5967  -14.0792  -48.9926 H         1 UNK         0.0800 
    134 H134        3.8584  -15.2018  -52.2919 H         1 UNK         0.0800 
    135 H135        5.1180  -16.0876  -53.0952 H         1 UNK         0.0800 
    136 H136        2.8703  -17.2749  -53.7755 H         1 UNK         0.1150 
    137 H137        1.8940  -20.6121  -51.2716 H         1 UNK         0.1150 
    138 H138        4.7181  -17.7106  -49.9200 H         1 UNK         0.1150 
    139 H139        3.1104  -20.9842  -49.2217 H         1 UNK         0.0800 
    140 H140        4.5596  -20.0602  -48.9301 H         1 UNK         0.0800 
    141 H141        0.7612  -19.3090  -49.1985 H         1 UNK         0.0800 
    142 H142        0.3390  -18.5936  -47.6664 H         1 UNK         0.0800 
    143 H143        1.1508  -21.5195  -47.9851 H         1 UNK         0.0600 
    144 H144        0.6680  -20.0144  -45.6284 H         1 UNK         0.3000 
    145 H145       -0.1195  -22.8558  -43.5486 H         1 UNK         0.0600 
    146 H146        1.7064  -21.7786  -42.2632 H         1 UNK         0.0600 
    147 H147        2.3534  -22.6151  -43.6666 H         1 UNK         0.0600 
    148 H148        2.2036  -20.8638  -43.6849 H         1 UNK         0.0600 
    149 H149       -0.0782  -20.0822  -42.9448 H         1 UNK         0.3000 
    150 H150       -3.5469  -19.4346  -43.6589 H         1 UNK         0.0600 
    151 H151       -3.3954  -20.4749  -41.3849 H         1 UNK         0.0600 
    152 H152       -3.4297  -18.7200  -41.2964 H         1 UNK         0.0600 
    153 H153       -1.9101  -19.5829  -41.0717 H         1 UNK         0.0600 
    154 H154       -1.5254  -17.7183  -42.6626 H         1 UNK         0.3000 
    155 H155       -0.3155  -16.5166  -45.8319 H         1 UNK         0.0600 
    156 H156       -1.9461  -15.3387  -43.5214 H         1 UNK         0.0600 
    157 H157       -0.8277  -14.4140  -44.5172 H         1 UNK         0.0600 
    158 H158       -2.2554  -15.1425  -45.2383 H         1 UNK         0.0600 
    159 H159        0.6070  -15.9325  -43.2318 H         1 UNK         0.3000 
    160 H160        2.9547  -18.6320  -42.8919 H         1 UNK         0.0600 
    161 H161        3.2542  -15.6451  -43.4473 H         1 UNK         0.0600 
    162 H162        4.0794  -16.9422  -44.3000 H         1 UNK         0.0600 
    163 H163        4.4405  -16.6420  -42.6050 H         1 UNK         0.0600 
    164 H164        2.1764  -16.3443  -41.2934 H         1 UNK         0.3000 
    165 H165       -0.1640  -18.1481  -39.2675 H         1 UNK         0.0600 
    166 H166        1.3394  -17.2709  -37.5049 H         1 UNK         0.0600 
    167 H167        2.1069  -18.6188  -38.3287 H         1 UNK         0.0600 
    168 H168        2.6104  -16.9720  -38.6907 H         1 UNK         0.0600 
    169 H169        0.7233  -15.4381  -39.2105 H         1 UNK         0.3000 
    170 H170       -1.5810  -14.0851  -41.5334 H         1 UNK         0.0600 
    171 H171       -1.6973  -13.9899  -38.4735 H         1 UNK         0.0600 
    172 H172       -2.4163  -12.8206  -39.5818 H         1 UNK         0.0600 
    173 H173       -3.0236  -14.4670  -39.5269 H         1 UNK         0.0600 
    174 H174        0.0659  -12.7300  -39.7367 H         1 UNK         0.3000 
    175 H175        1.6401  -11.3847  -41.0969 H         1 UNK         0.0600 
    176 H176        3.6973  -11.7837  -39.6418 H         1 UNK         0.0600 
    177 H177        3.2792  -13.4970  -39.6009 H         1 UNK         0.0600 
    178 H178        2.1876  -12.3065  -38.9188 H         1 UNK         0.0600 
    179 H179        2.7876  -11.6554  -42.9860 H         1 UNK         0.3000 
    180 H180        4.8937  -11.8080  -44.1139 H         1 UNK         0.0600 
    181 H181        5.9333  -14.6917  -44.0400 H         1 UNK         0.0600 
    182 H182        6.7887  -13.2806  -43.4290 H         1 UNK         0.0600 
    183 H183        6.4563  -13.4237  -45.1477 H         1 UNK         0.0600 
    184 H184        3.9384  -14.2626  -45.3478 H         1 UNK         0.3000 
    185 H185        1.3182  -14.3432  -45.6834 H         1 UNK         0.0600 
    186 H186       -0.1020  -12.3193  -45.8677 H         1 UNK         0.0600 
    187 H187        0.7714  -11.8041  -47.3054 H         1 UNK         0.0600 
    188 H188       -0.1992  -13.2751  -47.3374 H         1 UNK         0.0600 
    189 H189        2.1850  -15.0628  -47.5947 H         1 UNK         0.3000 
    190 H190       -1.8919  -20.0705  -46.7272 H         1 UNK         0.3000 
    191 H191       -3.5291  -20.8008  -48.9202 H         1 UNK         0.0600 
    192 H192       -4.2758  -19.1973  -47.2143 H         1 UNK         0.0600 
    193 H193       -5.4039  -20.5443  -47.2727 H         1 UNK         0.0600 
    194 H194       -4.2362  -20.4364  -45.9623 H         1 UNK         0.0600 
    195 H195       -2.7582  -22.6027  -45.8933 H         1 UNK         0.3000 
    196 H196       -4.2831  -24.9163  -46.4488 H         1 UNK         0.0600 
    197 H197       -2.8224  -25.9824  -44.7254 H         1 UNK         0.0600 
    198 H198       -3.3822  -24.3993  -44.2069 H         1 UNK         0.0600 
    199 H199       -1.7306  -24.6039  -44.7832 H         1 UNK         0.0600 
    200 H200       -0.8462  -24.1845  -47.2197 H         1 UNK         0.3000 
    201 H201       -0.2224  -26.6171  -48.5316 H         1 UNK         0.0600 
    202 H202        1.4877  -24.9929  -47.7500 H         1 UNK         0.0600 
    203 H203        0.9442  -23.8120  -48.9400 H         1 UNK         0.0600 
    204 H204        1.6898  -25.3158  -49.4655 H         1 UNK         0.0600 
    205 H205       -1.7535  -23.6494  -49.7382 H         1 UNK         0.3000 
    206 H206       -1.9499  -24.5767  -52.5019 H         1 UNK         0.0600 
    207 H207       -1.5556  -22.1867  -51.9279 H         1 UNK         0.0600 
    208 H208       -3.0395  -22.3865  -52.8443 H         1 UNK         0.0600 
    209 H209       -3.1122  -22.1134  -51.1067 H         1 UNK         0.0600 
    210 H210       -3.2786  -26.1455  -50.2737 H         1 UNK         0.3000 
    211 H211       -5.0401  -27.4337  -49.9581 H         1 UNK         0.0600 
    212 H212       -5.7421  -26.8064  -52.8743 H         1 UNK         0.0600 
    213 H213       -6.3349  -28.1718  -51.9386 H         1 UNK         0.0600 
    214 H214       -4.6270  -28.0565  -52.3289 H         1 UNK         0.0600 
    215 H215       -5.3478  -25.0657  -48.8271 H         1 UNK         0.3000 
    216 H216       -6.7382  -23.7793  -47.6968 H         1 UNK         0.0600 
    217 H217       -9.1210  -24.2787  -47.4289 H         1 UNK         0.0600 
    218 H218       -8.2070  -25.7765  -47.3551 H         1 UNK         0.0600 
    219 H219       -9.1118  -25.3616  -48.8107 H         1 UNK         0.0600 
    220 H220       -5.6178  -22.8426  -49.8452 H         1 UNK         0.3000 
    221 H221       -5.4876  -21.2414  -51.3727 H         1 UNK         0.0600 
    222 H222       -7.9165  -20.0746  -49.9094 H         1 UNK         0.0600 
    223 H223       -6.2221  -19.8192  -49.4936 H         1 UNK         0.0600 
    224 H224       -6.8630  -19.1912  -51.0033 H         1 UNK         0.0600 
    225 H225       -6.2149  -23.2381  -52.7179 H         1 UNK         0.3000 
    226 H226       -8.7723  -23.1825  -54.0267 H         1 UNK         0.0600 
    227 H227       -7.5020  -25.2629  -53.6833 H         1 UNK         0.0600 
    228 H228       -7.7527  -24.9936  -55.4014 H         1 UNK         0.0600 
    229 H229       -6.1786  -24.6677  -54.6837 H         1 UNK         0.0600 
    230 H230       -8.6362  -20.8641  -54.5102 H         1 UNK         0.3000 
    231 H231       -8.8805  -19.2458  -55.9766 H         1 UNK         0.0600 
    232 H232       -7.9210  -21.1026  -58.2125 H         1 UNK         0.0600 
    233 H233       -8.8225  -19.6076  -58.3993 H         1 UNK         0.0600 
    234 H234       -9.5839  -20.9914  -57.6349 H         1 UNK         0.0600 
    235 H235       -6.0422  -20.0889  -54.8121 H         1 UNK         0.3000 
    236 H236       -4.7617  -17.6396  -55.5966 H         1 UNK         0.0600 
    237 H237       -3.9949  -19.0510  -57.5174 H         1 UNK         0.0600 
    238 H238       -2.6502  -18.7616  -56.4272 H         1 UNK         0.0600 
    239 H239       -3.4728  -20.3167  -56.4072 H         1 UNK         0.0600 
    240 H240       -3.0617  -17.1353  -54.2007 H         1 UNK         0.3000 
    241 H241       -1.9036  -16.9777  -52.3619 H         1 UNK         0.0600 
    242 H242       -4.8594  -17.5001  -51.7572 H         1 UNK         0.3800 
    243 H243       -4.7990  -17.8579  -50.0500 H         1 UNK         0.3800 
    244 H244       -0.5120  -18.9703  -51.6856 H         1 UNK         0.0800 
    245 H245       -1.5089  -19.9848  -52.7000 H         1 UNK         0.0800 
    246 H246        1.9436  -19.6079  -54.6660 H         1 UNK         0.0800 
    247 H247        1.0715  -20.5782  -53.5090 H         1 UNK         0.0800 
@<TRIPOS>BOND
     1    1    2 1    
     2    1  127 1    
     3    1  128 1    
     4    1  129 1    
     5    2    3 2    
     6    2    4 am   BACKBONE|DICT|INTERRES
     7    4    5 1    
     8    4  130 1    
     9    5    6 1    
    10    5   65 1    
    11    5  131 1    
    12    6    7 1    
    13    6  132 1    
    14    6  133 1    
    15    7    8 1    
    16    8    9 1    
    17    8  134 1    
    18    8  135 1    
    19    9   10 ar   
    20    9   14 ar   
    21   10   11 ar   
    22   10  136 1    
    23   11   12 ar   
    24   11  126 1    
    25   12   13 ar   
    26   12  137 1    
    27   13   14 ar   
    28   13   15 1    
    29   14  138 1    
    30   15   16 1    
    31   15  139 1    
    32   15  140 1    
    33   16   17 1    
    34   17   18 1    
    35   17  141 1    
    36   17  142 1    
    37   18   19 1    
    38   18   67 1    
    39   18  143 1    
    40   19   20 am   BACKBONE|DICT|INTERRES
    41   19  144 1    
    42   20   21 2    
    43   20   22 1    
    44   22   23 1    
    45   22   24 1    
    46   22  145 1    
    47   23  146 1    
    48   23  147 1    
    49   23  148 1    
    50   24   25 am   BACKBONE|DICT|INTERRES
    51   24  149 1    
    52   25   26 2    
    53   25   27 1    
    54   27   28 1    
    55   27   29 1    
    56   27  150 1    
    57   28  151 1    
    58   28  152 1    
    59   28  153 1    
    60   29   30 am   BACKBONE|DICT|INTERRES
    61   29  154 1    
    62   30   31 2    
    63   30   32 1    
    64   32   33 1    
    65   32   34 1    
    66   32  155 1    
    67   33  156 1    
    68   33  157 1    
    69   33  158 1    
    70   34   35 am   BACKBONE|DICT|INTERRES
    71   34  159 1    
    72   35   36 2    
    73   35   37 1    
    74   37   38 1    
    75   37   39 1    
    76   37  160 1    
    77   38  161 1    
    78   38  162 1    
    79   38  163 1    
    80   39   40 am   BACKBONE|DICT|INTERRES
    81   39  164 1    
    82   40   41 2    
    83   40   42 1    
    84   42   43 1    
    85   42   44 1    
    86   42  165 1    
    87   43  166 1    
    88   43  167 1    
    89   43  168 1    
    90   44   45 am   BACKBONE|DICT|INTERRES
    91   44  169 1    
    92   45   46 2    
    93   45   47 1    
    94   47   48 1    
    95   47   49 1    
    96   47  170 1    
    97   48  171 1    
    98   48  172 1    
    99   48  173 1    
   100   49   50 am   BACKBONE|DICT|INTERRES
   101   49  174 1    
   102   50   51 2    
   103   50   52 1    
   104   52   53 1    
   105   52   54 1    
   106   52  175 1    
   107   53  176 1    
   108   53  177 1    
   109   53  178 1    
   110   54   55 am   BACKBONE|DICT|INTERRES
   111   54  179 1    
   112   55   56 2    
   113   55   57 1    
   114   57   58 1    
   115   57   59 1    
   116   57  180 1    
   117   58  181 1    
   118   58  182 1    
   119   58  183 1    
   120   59   60 am   BACKBONE|DICT|INTERRES
   121   59  184 1    
   122   60   61 2    
   123   60   62 1    
   124   62   63 1    
   125   62   64 1    
   126   62  185 1    
   127   63  186 1    
   128   63  187 1    
   129   63  188 1    
   130   64   65 am   BACKBONE|DICT|INTERRES
   131   64  189 1    
   132   65   66 2    
   133   67   68 2    
   134   67   69 am   BACKBONE|DICT|INTERRES
   135   69   70 1    
   136   69  190 1    
   137   70   71 1    
   138   70   72 1    
   139   70  191 1    
   140   71  192 1    
   141   71  193 1    
   142   71  194 1    
   143   72   73 2    
   144   72   74 am   BACKBONE|DICT|INTERRES
   145   74   75 1    
   146   74  195 1    
   147   75   76 1    
   148   75   77 1    
   149   75  196 1    
   150   76  197 1    
   151   76  198 1    
   152   76  199 1    
   153   77   78 2    
   154   77   79 am   BACKBONE|DICT|INTERRES
   155   79   80 1    
   156   79  200 1    
   157   80   81 1    
   158   80   82 1    
   159   80  201 1    
   160   81  202 1    
   161   81  203 1    
   162   81  204 1    
   163   82   83 2    
   164   82   84 am   BACKBONE|DICT|INTERRES
   165   84   85 1    
   166   84  205 1    
   167   85   86 1    
   168   85   87 1    
   169   85  206 1    
   170   86  207 1    
   171   86  208 1    
   172   86  209 1    
   173   87   88 2    
   174   87   89 am   BACKBONE|DICT|INTERRES
   175   89   90 1    
   176   89  210 1    
   177   90   91 1    
   178   90   92 1    
   179   90  211 1    
   180   91  212 1    
   181   91  213 1    
   182   91  214 1    
   183   92   93 2    
   184   92   94 am   BACKBONE|DICT|INTERRES
   185   94   95 1    
   186   94  215 1    
   187   95   96 1    
   188   95   97 1    
   189   95  216 1    
   190   96  217 1    
   191   96  218 1    
   192   96  219 1    
   193   97   98 2    
   194   97   99 am   BACKBONE|DICT|INTERRES
   195   99  100 1    
   196   99  220 1    
   197  100  101 1    
   198  100  102 1    
   199  100  221 1    
   200  101  222 1    
   201  101  223 1    
   202  101  224 1    
   203  102  103 2    
   204  102  104 am   BACKBONE|DICT|INTERRES
   205  104  105 1    
   206  104  225 1    
   207  105  106 1    
   208  105  107 1    
   209  105  226 1    
   210  106  227 1    
   211  106  228 1    
   212  106  229 1    
   213  107  108 2    
   214  107  109 am   BACKBONE|DICT|INTERRES
   215  109  110 1    
   216  109  230 1    
   217  110  111 1    
   218  110  112 1    
   219  110  231 1    
   220  111  232 1    
   221  111  233 1    
   222  111  234 1    
   223  112  113 2    
   224  112  114 am   BACKBONE|DICT|INTERRES
   225  114  115 1    
   226  114  235 1    
   227  115  116 1    
   228  115  117 1    
   229  115  236 1    
   230  116  237 1    
   231  116  238 1    
   232  116  239 1    
   233  117  118 2    
   234  117  119 am   BACKBONE|DICT|INTERRES
   235  119  120 1    
   236  119  240 1    
   237  120  121 1    
   238  120  124 1    
   239  120  241 1    
   240  121  122 am   BACKBONE|DICT|INTERRES
   241  121  123 2    
   242  122  242 1    
   243  122  243 1    
   244  124  125 1    
   245  124  244 1    
   246  124  245 1    
   247  125  126 1    
   248  126  246 1    
   249  126  247 1    
@<TRIPOS>SUBSTRUCTURE
     1 UNK         1 GROUP             0       ****    0 ROOT    
