@<TRIPOS>MOLECULE
3R540
247   249    1
SMALL
USER_CHARGES


@<TRIPOS>ATOM
      1 CA          1.9725  -13.1670  -43.8127 C.3       0 UNK        -0.1800 
      2 C           1.3719  -12.2030  -44.8224 C.2       0 UNK         0.5000 
      3 O           1.3881  -10.9911  -44.6053 O.2       0 UNK        -0.5000 
      4 N           0.8508  -12.7364  -45.9305 N.am      1 UNK        -0.5000 
      5 CA          0.2574  -11.9817  -47.0337 C.3       1 UNK         0.1400 
      6 C6         -0.9344  -12.7438  -47.6640 C.3       23 UNK        -0.0398 
      7 S7         -2.4347  -12.6630  -46.6266 S.3       23 UNK        -0.2404 
      8 C8         -2.3155  -14.1732  -45.6119 C.3       23 UNK        -0.0205 
      9 C9         -2.3207  -15.4512  -46.4389 C.ar      23 UNK        -0.0193 
     10 C10        -3.4300  -15.7873  -47.2201 C.ar      23 UNK        -0.1150 
     11 C11        -3.4377  -16.9695  -47.9641 C.ar      23 UNK        -0.0193 
     12 C12        -2.3253  -17.8129  -47.9242 C.ar      23 UNK        -0.1150 
     13 C13        -1.2140  -17.5073  -47.1269 C.ar      23 UNK        -0.0193 
     14 C14        -1.2248  -16.3173  -46.3938 C.ar      23 UNK        -0.1150 
     15 C15        -0.0091  -18.4406  -46.9672 C.3       23 UNK        -0.0205 
     16 S16         0.1302  -19.8096  -48.1641 S.3       23 UNK        -0.2404 
     17 C17        -1.2081  -20.9221  -47.6177 C.3       23 UNK        -0.0398 
     18 CA         -0.6813  -22.1934  -46.9226 C.3       11 UNK         0.1400 
     19 N          -0.1157  -21.9231  -45.6000 N.am      11 UNK        -0.5000 
     20 C           0.6283  -22.7961  -44.9083 C.2       10 UNK         0.5000 
     21 O           0.9482  -23.9085  -45.3283 O.2       10 UNK        -0.5000 
     22 CA          1.0259  -22.3708  -43.4855 C.3       10 UNK         0.1400 
     23 CB          2.2176  -21.4003  -43.5159 C.3       10 UNK        -0.1800 
     24 N          -0.0977  -21.7584  -42.7733 N.am      10 UNK        -0.5000 
     25 C          -1.1795  -22.4376  -42.3606 C.2       9 UNK         0.5000 
     26 O          -1.3237  -23.6489  -42.5249 O.2       9 UNK        -0.5000 
     27 CA         -2.3085  -21.6345  -41.6840 C.3       9 UNK         0.1400 
     28 CB         -2.0739  -21.5563  -40.1683 C.3       9 UNK        -0.1800 
     29 N          -2.4676  -20.2801  -42.2128 N.am      9 UNK        -0.5000 
     30 C          -2.7542  -19.9718  -43.4852 C.2       8 UNK         0.5000 
     31 O          -2.9612  -20.8092  -44.3627 O.2       8 UNK        -0.5000 
     32 CA         -2.7387  -18.4769  -43.8563 C.3       8 UNK         0.1400 
     33 CB         -4.1519  -17.8819  -43.7899 C.3       8 UNK        -0.1800 
     34 N          -1.8246  -17.6597  -43.0467 N.am      8 UNK        -0.5000 
     35 C          -0.5069  -17.8708  -42.9288 C.2       7 UNK         0.5000 
     36 O           0.0853  -18.8172  -43.4556 O.2       7 UNK        -0.5000 
     37 CA          0.2737  -16.8995  -42.0362 C.3       7 UNK         0.1400 
     38 CB          0.0547  -17.2454  -40.5503 C.3       7 UNK        -0.1800 
     39 N           1.6823  -17.0237  -42.3896 N.am      7 UNK        -0.5000 
     40 C           2.6837  -16.2257  -42.0073 C.2       6 UNK         0.5000 
     41 O           2.5350  -15.2460  -41.2775 O.2       6 UNK        -0.5000 
     42 CA          4.0917  -16.5668  -42.5310 C.3       6 UNK         0.1400 
     43 CB          4.9531  -17.1380  -41.3940 C.3       6 UNK        -0.1800 
     44 N           4.0591  -17.5503  -43.6217 N.am      6 UNK        -0.5000 
     45 C           4.1546  -17.3358  -44.9419 C.2       5 UNK         0.5000 
     46 O           4.0611  -18.2725  -45.7362 O.2       5 UNK        -0.5000 
     47 CA          4.4410  -15.9155  -45.4833 C.3       5 UNK         0.1400 
     48 CB          5.9343  -15.5692  -45.3462 C.3       5 UNK        -0.1800 
     49 N           4.0995  -15.8177  -46.8995 N.am      5 UNK        -0.5000 
     50 C           2.8799  -15.5968  -47.3975 C.2       4 UNK         0.5000 
     51 O           1.8975  -15.3174  -46.7078 O.2       4 UNK        -0.5000 
     52 CA          2.7786  -15.6562  -48.9336 C.3       4 UNK         0.1400 
     53 CB          1.3332  -15.7112  -49.4547 C.3       4 UNK        -0.1800 
     54 N           3.4555  -14.5009  -49.5187 N.am      4 UNK        -0.5000 
     55 C           4.7716  -14.4305  -49.7643 C.2       3 UNK         0.5000 
     56 O           5.5462  -15.3701  -49.5767 O.2       3 UNK        -0.5000 
     57 CA          5.3269  -13.0895  -50.2841 C.3       3 UNK         0.1400 
     58 CB          5.4278  -13.1075  -51.8169 C.3       3 UNK        -0.1800 
     59 N           4.5316  -11.9317  -49.8729 N.am      3 UNK        -0.5000 
     60 C           4.4247  -11.4816  -48.6157 C.2       2 UNK         0.5000 
     61 O           5.0286  -11.9716  -47.6602 O.2       2 UNK        -0.5000 
     62 CA          3.4645  -10.3004  -48.3684 C.3       2 UNK         0.1400 
     63 CB          3.0826   -9.5138  -49.6432 C.3       2 UNK        -0.1800 
     64 N           2.2647  -10.7393  -47.6512 N.am      2 UNK        -0.5000 
     65 C           1.3762  -11.6644  -48.0437 C.2       1 UNK         0.5000 
     66 O           1.4432  -12.2721  -49.1142 O.2       1 UNK        -0.5000 
     67 C          -1.7876  -23.2616  -46.8572 C.2       11 UNK         0.5000 
     68 O          -1.8843  -24.0700  -47.7782 O.2       11 UNK        -0.5000 
     69 N          -2.5943  -23.2651  -45.7871 N.am      12 UNK        -0.5000 
     70 CA         -3.6249  -24.2739  -45.5391 C.3       12 UNK         0.1400 
     71 CB         -4.5043  -23.8457  -44.3562 C.3       12 UNK        -0.1800 
     72 C          -3.0279  -25.6731  -45.3090 C.2       12 UNK         0.5000 
     73 O          -3.5227  -26.6406  -45.8869 O.2       12 UNK        -0.5000 
     74 N          -1.9451  -25.7484  -44.5208 N.am      13 UNK        -0.5000 
     75 CA         -1.1788  -26.9727  -44.2734 C.3       13 UNK         0.1400 
     76 CB         -0.1458  -26.7151  -43.1661 C.3       13 UNK        -0.1800 
     77 C          -0.4939  -27.5196  -45.5410 C.2       13 UNK         0.5000 
     78 O          -0.4555  -28.7349  -45.7357 O.2       13 UNK        -0.5000 
     79 N           0.0041  -26.6133  -46.3930 N.am      14 UNK        -0.5000 
     80 CA          0.6027  -26.9276  -47.6926 C.3       14 UNK         0.1400 
     81 CB          1.4580  -25.7302  -48.1375 C.3       14 UNK        -0.1800 
     82 C          -0.4305  -27.2743  -48.7863 C.2       14 UNK         0.5000 
     83 O          -0.0360  -27.7672  -49.8434 O.2       14 UNK        -0.5000 
     84 N          -1.7145  -26.9742  -48.5341 N.am      15 UNK        -0.5000 
     85 CA         -2.8568  -27.0322  -49.4569 C.3       15 UNK         0.1400 
     86 CB         -3.1206  -28.4730  -49.9397 C.3       15 UNK        -0.1800 
     87 C          -2.7584  -26.0172  -50.6196 C.2       15 UNK         0.5000 
     88 O          -3.4344  -26.1722  -51.6374 O.2       15 UNK        -0.5000 
     89 N          -1.9408  -24.9740  -50.4332 N.am      16 UNK        -0.5000 
     90 CA         -1.7343  -23.8681  -51.3642 C.3       16 UNK         0.1400 
     91 CB         -0.3797  -23.2110  -51.0586 C.3       16 UNK        -0.1800 
     92 C          -2.8651  -22.8287  -51.2870 C.2       16 UNK         0.5000 
     93 O          -3.1405  -22.1635  -52.2836 O.2       16 UNK        -0.5000 
     94 N          -3.5265  -22.7290  -50.1225 N.am      17 UNK        -0.5000 
     95 CA         -4.6440  -21.8121  -49.8628 C.3       17 UNK         0.1400 
     96 CB         -4.9664  -21.8194  -48.3598 C.3       17 UNK        -0.1800 
     97 C          -5.9143  -22.1158  -50.6861 C.2       17 UNK         0.5000 
     98 O          -6.7988  -21.2655  -50.7688 O.2       17 UNK        -0.5000 
     99 N          -5.9857  -23.3123  -51.2822 N.am      18 UNK        -0.5000 
    100 CA        -7.0478  -23.7299  -52.1954 C.3       18 UNK         0.1400 
    101 CB        -7.1047  -25.2665  -52.1944 C.3       18 UNK        -0.1800 
    102 C         -6.8627  -23.1963  -53.6329 C.2       18 UNK         0.5000 
    103 O         -7.7764  -23.3540  -54.4443 O.2       18 UNK        -0.5000 
    104 N         -5.6969  -22.6118  -53.9401 N.am      19 UNK        -0.5000 
    105 CA        -5.3098  -22.1403  -55.2672 C.3       19 UNK         0.1400 
    106 CB        -4.1155  -22.9885  -55.7405 C.3       19 UNK        -0.1800 
    107 C         -4.9409  -20.6469  -55.2411 C.2       19 UNK         0.5000 
    108 O         -4.8285  -20.0458  -54.1699 O.2       19 UNK        -0.5000 
    109 N         -4.7358  -20.0889  -56.4431 N.am      20 UNK        -0.5000 
    110 CA        -4.3046  -18.7156  -56.7238 C.3       20 UNK         0.1400 
    111 CB        -2.8446  -18.5096  -56.2576 C.3       20 UNK        -0.1800 
    112 C         -5.2908  -17.6560  -56.1837 C.2       20 UNK         0.5000 
    113 O         -6.5021  -17.8919  -56.1843 O.2       20 UNK        -0.5000 
    114 N         -4.7640  -16.5067  -55.7377 N.am      21 UNK        -0.5000 
    115 CA        -5.5167  -15.3651  -55.2057 C.3       21 UNK         0.1400 
    116 CB        -4.5414  -14.2052  -54.9508 C.3       21 UNK        -0.1800 
    117 C         -6.3293  -15.6756  -53.9320 C.2       21 UNK         0.5000 
    118 O         -7.2832  -14.9552  -53.6344 O.2       21 UNK        -0.5000 
    119 N         -5.9535  -16.7438  -53.2189 N.am      22 UNK        -0.5000 
    120 CA        -6.6974  -17.2977  -52.0797 C.3       22 UNK         0.1400 
    121 C         -8.0091  -18.0389  -52.4810 C.2       22 UNK         0.5000 
    122 N         -8.2375  -18.3689  -53.7485 N.am      22 UNK        -0.7600 
    123 O         -8.8501  -18.2983  -51.6250 O.2       22 UNK        -0.5000 
    124 C124       -5.8023  -18.2096  -51.2060 C.3       23 UNK        -0.0398 
    125 S125       -4.3143  -17.3683  -50.5634 S.3       23 UNK        -0.2404 
    126 C126       -4.6588  -17.3724  -48.7769 C.3       23 UNK        -0.0205 
    127 H127        1.5687  -12.9722  -42.8192 H         1 UNK         0.0600 
    128 H128        3.0549  -13.0465  -43.7728 H         1 UNK         0.0600 
    129 H129        1.7488  -14.2025  -44.0694 H         1 UNK         0.0600 
    130 H130        0.9825  -13.7293  -46.1079 H         1 UNK         0.3000 
    131 H131       -0.1203  -11.0229  -46.6712 H         1 UNK         0.0600 
    132 H132       -1.2009  -12.3074  -48.6282 H         1 UNK         0.0800 
    133 H133       -0.6769  -13.7824  -47.8650 H         1 UNK         0.0800 
    134 H134       -1.4221  -14.1147  -44.9891 H         1 UNK         0.0800 
    135 H135       -3.1618  -14.1992  -44.9243 H         1 UNK         0.0800 
    136 H136       -4.2871  -15.1291  -47.2418 H         1 UNK         0.1150 
    137 H137       -2.3556  -18.7143  -48.5150 H         1 UNK         0.1150 
    138 H138       -0.3789  -16.0746  -45.7668 H         1 UNK         0.1150 
    139 H139        0.9079  -17.8548  -47.0246 H         1 UNK         0.0800 
    140 H140       -0.0275  -18.8669  -45.9668 H         1 UNK         0.0800 
    141 H141       -1.7710  -21.1773  -48.5166 H         1 UNK         0.0800 
    142 H142       -1.9030  -20.3969  -46.9607 H         1 UNK         0.0800 
    143 H143        0.1159  -22.6082  -47.5430 H         1 UNK         0.0600 
    144 H144       -0.3562  -21.0433  -45.1673 H         1 UNK         0.3000 
    145 H145        1.3305  -23.2657  -42.9384 H         1 UNK         0.0600 
    146 H146        2.4942  -21.0815  -42.5109 H         1 UNK         0.0600 
    147 H147        3.0926  -21.8771  -43.9591 H         1 UNK         0.0600 
    148 H148        2.0026  -20.5082  -44.1050 H         1 UNK         0.0600 
    149 H149       -0.0753  -20.7503  -42.6718 H         1 UNK         0.3000 
    150 H150       -3.2448  -22.1676  -41.8563 H         1 UNK         0.0600 
    151 H151       -1.1661  -21.0007  -39.9295 H         1 UNK         0.0600 
    152 H152       -1.9722  -22.5532  -39.7370 H         1 UNK         0.0600 
    153 H153       -2.9088  -21.0696  -39.6639 H         1 UNK         0.0600 
    154 H154       -2.3048  -19.5217  -41.5677 H         1 UNK         0.3000 
    155 H155       -2.4032  -18.4222  -44.8903 H         1 UNK         0.0600 
    156 H156       -4.5380  -17.8726  -42.7700 H         1 UNK         0.0600 
    157 H157       -4.8473  -18.4589  -44.4012 H         1 UNK         0.0600 
    158 H158       -4.1656  -16.8589  -44.1668 H         1 UNK         0.0600 
    159 H159       -2.2388  -16.8743  -42.5658 H         1 UNK         0.3000 
    160 H160       -0.0598  -15.8804  -42.2419 H         1 UNK         0.0600 
    161 H161        0.4008  -18.2537  -40.3188 H         1 UNK         0.0600 
    162 H162       -1.0013  -17.1907  -40.2838 H         1 UNK         0.0600 
    163 H163        0.5837  -16.5534  -39.8953 H         1 UNK         0.0600 
    164 H164        1.8664  -17.7947  -43.0198 H         1 UNK         0.3000 
    165 H165        4.5478  -15.6298  -42.8468 H         1 UNK         0.0600 
    166 H166        5.9693  -17.3394  -41.7336 H         1 UNK         0.0600 
    167 H167        5.0237  -16.4345  -40.5632 H         1 UNK         0.0600 
    168 H168        4.5397  -18.0682  -41.0020 H         1 UNK         0.0600 
    169 H169        3.9300  -18.5050  -43.3217 H         1 UNK         0.3000 
    170 H170        3.8452  -15.1867  -44.9338 H         1 UNK         0.0600 
    171 H171        6.5570  -16.2488  -45.9295 H         1 UNK         0.0600 
    172 H172        6.1334  -14.5550  -45.6941 H         1 UNK         0.0600 
    173 H173        6.2763  -15.6285  -44.3133 H         1 UNK         0.0600 
    174 H174        4.8442  -16.0194  -47.5546 H         1 UNK         0.3000 
    175 H175        3.2710  -16.5749  -49.2599 H         1 UNK         0.0600 
    176 H176        0.7737  -14.8160  -49.1961 H         1 UNK         0.0600 
    177 H177        1.3127  -15.8105  -50.5399 H         1 UNK         0.0600 
    178 H178        0.7973  -16.5659  -49.0443 H         1 UNK         0.0600 
    179 H179        2.8904  -13.6651  -49.6277 H         1 UNK         0.3000 
    180 H180        6.3332  -12.9711  -49.8768 H         1 UNK         0.0600 
    181 H181        4.4467  -13.2050  -52.2835 H         1 UNK         0.0600 
    182 H182        6.0384  -13.9445  -52.1583 H         1 UNK         0.0600 
    183 H183        5.8905  -12.1949  -52.1930 H         1 UNK         0.0600 
    184 H184        3.9771  -11.4857  -50.5891 H         1 UNK         0.3000 
    185 H185        3.9907   -9.6130  -47.7044 H         1 UNK         0.0600 
    186 H186        3.9716   -9.1551  -50.1635 H         1 UNK         0.0600 
    187 H187        2.5031  -10.1114  -50.3473 H         1 UNK         0.0600 
    188 H188        2.4855   -8.6374  -49.3912 H         1 UNK         0.0600 
    189 H189        2.1530  -10.3593  -46.7192 H         1 UNK         0.3000 
    190 H190       -2.5238  -22.5081  -45.1129 H         1 UNK         0.3000 
    191 H191       -4.2589  -24.3283  -46.4260 H         1 UNK         0.0600 
    192 H192       -4.9466  -22.8641  -44.5276 H         1 UNK         0.0600 
    193 H193       -5.3228  -24.5505  -44.2054 H         1 UNK         0.0600 
    194 H194       -3.9364  -23.8017  -43.4278 H         1 UNK         0.0600 
    195 H195       -1.6279  -24.9118  -44.0404 H         1 UNK         0.3000 
    196 H196       -1.8744  -27.7357  -43.9182 H         1 UNK         0.0600 
    197 H197        0.4326  -27.6149  -42.9530 H         1 UNK         0.0600 
    198 H198       -0.6312  -26.4131  -42.2379 H         1 UNK         0.0600 
    199 H199        0.5572  -25.9298  -43.4457 H         1 UNK         0.0600 
    200 H200       -0.0048  -25.6363  -46.1218 H         1 UNK         0.3000 
    201 H201        1.2593  -27.7919  -47.5746 H         1 UNK         0.0600 
    202 H202        1.9664  -25.9383  -49.0798 H         1 UNK         0.0600 
    203 H203        2.2258  -25.4972  -47.3995 H         1 UNK         0.0600 
    204 H204        0.8517  -24.8361  -48.2832 H         1 UNK         0.0600 
    205 H205       -1.9198  -26.5608  -47.6337 H         1 UNK         0.3000 
    206 H206       -3.7223  -26.7231  -48.8693 H         1 UNK         0.0600 
    207 H207       -3.1800  -29.1650  -49.0996 H         1 UNK         0.0600 
    208 H208       -4.0666  -28.5365  -50.4785 H         1 UNK         0.0600 
    209 H209       -2.3398  -28.8266  -50.6132 H         1 UNK         0.0600 
    210 H210       -1.5170  -24.8769  -49.5166 H         1 UNK         0.3000 
    211 H211       -1.7066  -24.2620  -52.3824 H         1 UNK         0.0600 
    212 H212       -0.3479  -22.8004  -50.0491 H         1 UNK         0.0600 
    213 H213       -0.1768  -22.3936  -51.7518 H         1 UNK         0.0600 
    214 H214        0.4359  -23.9282  -51.1534 H         1 UNK         0.0600 
    215 H215       -3.2346  -23.3261  -49.3592 H         1 UNK         0.3000 
    216 H216       -4.3187  -20.8059  -50.1358 H         1 UNK         0.0600 
    217 H217       -5.7876  -21.1382  -48.1328 H         1 UNK         0.0600 
    218 H218       -4.1145  -21.4963  -47.7639 H         1 UNK         0.0600 
    219 H219       -5.2623  -22.8116  -48.0191 H         1 UNK         0.0600 
    220 H220       -5.2132  -23.9522  -51.1684 H         1 UNK         0.3000 
    221 H221       -8.0040  -23.3532  -51.8264 H         1 UNK         0.0600 
    222 H222       -6.1748  -25.7031  -52.5616 H         1 UNK         0.0600 
    223 H223       -7.2844  -25.6545  -51.1916 H         1 UNK         0.0600 
    224 H224       -7.9122  -25.6303  -52.8311 H         1 UNK         0.0600 
    225 H225       -5.0136  -22.4384  -53.2107 H         1 UNK         0.3000 
    226 H226       -6.1309  -22.2626  -55.9762 H         1 UNK         0.0600 
    227 H227       -3.8055  -22.7155  -56.7496 H         1 UNK         0.0600 
    228 H228       -3.2518  -22.8637  -55.0858 H         1 UNK         0.0600 
    229 H229       -4.3693  -24.0487  -55.7581 H         1 UNK         0.0600 
    230 H230       -4.8938  -20.6593  -57.2616 H         1 UNK         0.3000 
    231 H231       -4.3205  -18.6107  -57.8094 H         1 UNK         0.0600 
    232 H232       -2.7602  -18.5071  -55.1700 H         1 UNK         0.0600 
    233 H233       -2.4344  -17.5697  -56.6282 H         1 UNK         0.0600 
    234 H234       -2.1998  -19.3035  -56.6350 H         1 UNK         0.0600 
    235 H235       -3.7601  -16.4019  -55.7650 H         1 UNK         0.3000 
    236 H236       -6.2278  -15.0526  -55.9730 H         1 UNK         0.0600 
    237 H237       -4.0239  -13.9148  -55.8653 H         1 UNK         0.0600 
    238 H238       -5.0690  -13.3235  -54.5845 H         1 UNK         0.0600 
    239 H239       -3.7891  -14.4699  -54.2066 H         1 UNK         0.0600 
    240 H240       -5.1658  -17.2884  -53.5388 H         1 UNK         0.3000 
    241 H241       -7.0088  -16.4580  -51.4553 H         1 UNK         0.0600 
    242 H242       -7.5632  -18.1603  -54.4771 H         1 UNK         0.3800 
    243 H243       -9.0964  -18.8375  -53.9873 H         1 UNK         0.3800 
    244 H244       -5.4735  -19.0746  -51.7831 H         1 UNK         0.0800 
    245 H245       -6.3767  -18.6095  -50.3688 H         1 UNK         0.0800 
    246 H246       -4.9664  -18.3719  -48.4657 H         1 UNK         0.0800 
    247 H247       -5.5002  -16.7086  -48.5726 H         1 UNK         0.0800 
@<TRIPOS>BOND
     1    1    2 1    
     2    1  127 1    
     3    1  128 1    
     4    1  129 1    
     5    2    3 2    
     6    2    4 am   BACKBONE|DICT|INTERRES
     7    4    5 1    
     8    4  130 1    
     9    5    6 1    
    10    5   65 1    
    11    5  131 1    
    12    6    7 1    
    13    6  132 1    
    14    6  133 1    
    15    7    8 1    
    16    8    9 1    
    17    8  134 1    
    18    8  135 1    
    19    9   10 ar   
    20    9   14 ar   
    21   10   11 ar   
    22   10  136 1    
    23   11   12 ar   
    24   11  126 1    
    25   12   13 ar   
    26   12  137 1    
    27   13   14 ar   
    28   13   15 1    
    29   14  138 1    
    30   15   16 1    
    31   15  139 1    
    32   15  140 1    
    33   16   17 1    
    34   17   18 1    
    35   17  141 1    
    36   17  142 1    
    37   18   19 1    
    38   18   67 1    
    39   18  143 1    
    40   19   20 am   BACKBONE|DICT|INTERRES
    41   19  144 1    
    42   20   21 2    
    43   20   22 1    
    44   22   23 1    
    45   22   24 1    
    46   22  145 1    
    47   23  146 1    
    48   23  147 1    
    49   23  148 1    
    50   24   25 am   BACKBONE|DICT|INTERRES
    51   24  149 1    
    52   25   26 2    
    53   25   27 1    
    54   27   28 1    
    55   27   29 1    
    56   27  150 1    
    57   28  151 1    
    58   28  152 1    
    59   28  153 1    
    60   29   30 am   BACKBONE|DICT|INTERRES
    61   29  154 1    
    62   30   31 2    
    63   30   32 1    
    64   32   33 1    
    65   32   34 1    
    66   32  155 1    
    67   33  156 1    
    68   33  157 1    
    69   33  158 1    
    70   34   35 am   BACKBONE|DICT|INTERRES
    71   34  159 1    
    72   35   36 2    
    73   35   37 1    
    74   37   38 1    
    75   37   39 1    
    76   37  160 1    
    77   38  161 1    
    78   38  162 1    
    79   38  163 1    
    80   39   40 am   BACKBONE|DICT|INTERRES
    81   39  164 1    
    82   40   41 2    
    83   40   42 1    
    84   42   43 1    
    85   42   44 1    
    86   42  165 1    
    87   43  166 1    
    88   43  167 1    
    89   43  168 1    
    90   44   45 am   BACKBONE|DICT|INTERRES
    91   44  169 1    
    92   45   46 2    
    93   45   47 1    
    94   47   48 1    
    95   47   49 1    
    96   47  170 1    
    97   48  171 1    
    98   48  172 1    
    99   48  173 1    
   100   49   50 am   BACKBONE|DICT|INTERRES
   101   49  174 1    
   102   50   51 2    
   103   50   52 1    
   104   52   53 1    
   105   52   54 1    
   106   52  175 1    
   107   53  176 1    
   108   53  177 1    
   109   53  178 1    
   110   54   55 am   BACKBONE|DICT|INTERRES
   111   54  179 1    
   112   55   56 2    
   113   55   57 1    
   114   57   58 1    
   115   57   59 1    
   116   57  180 1    
   117   58  181 1    
   118   58  182 1    
   119   58  183 1    
   120   59   60 am   BACKBONE|DICT|INTERRES
   121   59  184 1    
   122   60   61 2    
   123   60   62 1    
   124   62   63 1    
   125   62   64 1    
   126   62  185 1    
   127   63  186 1    
   128   63  187 1    
   129   63  188 1    
   130   64   65 am   BACKBONE|DICT|INTERRES
   131   64  189 1    
   132   65   66 2    
   133   67   68 2    
   134   67   69 am   BACKBONE|DICT|INTERRES
   135   69   70 1    
   136   69  190 1    
   137   70   71 1    
   138   70   72 1    
   139   70  191 1    
   140   71  192 1    
   141   71  193 1    
   142   71  194 1    
   143   72   73 2    
   144   72   74 am   BACKBONE|DICT|INTERRES
   145   74   75 1    
   146   74  195 1    
   147   75   76 1    
   148   75   77 1    
   149   75  196 1    
   150   76  197 1    
   151   76  198 1    
   152   76  199 1    
   153   77   78 2    
   154   77   79 am   BACKBONE|DICT|INTERRES
   155   79   80 1    
   156   79  200 1    
   157   80   81 1    
   158   80   82 1    
   159   80  201 1    
   160   81  202 1    
   161   81  203 1    
   162   81  204 1    
   163   82   83 2    
   164   82   84 am   BACKBONE|DICT|INTERRES
   165   84   85 1    
   166   84  205 1    
   167   85   86 1    
   168   85   87 1    
   169   85  206 1    
   170   86  207 1    
   171   86  208 1    
   172   86  209 1    
   173   87   88 2    
   174   87   89 am   BACKBONE|DICT|INTERRES
   175   89   90 1    
   176   89  210 1    
   177   90   91 1    
   178   90   92 1    
   179   90  211 1    
   180   91  212 1    
   181   91  213 1    
   182   91  214 1    
   183   92   93 2    
   184   92   94 am   BACKBONE|DICT|INTERRES
   185   94   95 1    
   186   94  215 1    
   187   95   96 1    
   188   95   97 1    
   189   95  216 1    
   190   96  217 1    
   191   96  218 1    
   192   96  219 1    
   193   97   98 2    
   194   97   99 am   BACKBONE|DICT|INTERRES
   195   99  100 1    
   196   99  220 1    
   197  100  101 1    
   198  100  102 1    
   199  100  221 1    
   200  101  222 1    
   201  101  223 1    
   202  101  224 1    
   203  102  103 2    
   204  102  104 am   BACKBONE|DICT|INTERRES
   205  104  105 1    
   206  104  225 1    
   207  105  106 1    
   208  105  107 1    
   209  105  226 1    
   210  106  227 1    
   211  106  228 1    
   212  106  229 1    
   213  107  108 2    
   214  107  109 am   BACKBONE|DICT|INTERRES
   215  109  110 1    
   216  109  230 1    
   217  110  111 1    
   218  110  112 1    
   219  110  231 1    
   220  111  232 1    
   221  111  233 1    
   222  111  234 1    
   223  112  113 2    
   224  112  114 am   BACKBONE|DICT|INTERRES
   225  114  115 1    
   226  114  235 1    
   227  115  116 1    
   228  115  117 1    
   229  115  236 1    
   230  116  237 1    
   231  116  238 1    
   232  116  239 1    
   233  117  118 2    
   234  117  119 am   BACKBONE|DICT|INTERRES
   235  119  120 1    
   236  119  240 1    
   237  120  121 1    
   238  120  124 1    
   239  120  241 1    
   240  121  122 am   BACKBONE|DICT|INTERRES
   241  121  123 2    
   242  122  242 1    
   243  122  243 1    
   244  124  125 1    
   245  124  244 1    
   246  124  245 1    
   247  125  126 1    
   248  126  246 1    
   249  126  247 1    
@<TRIPOS>SUBSTRUCTURE
     1 UNK         1 GROUP             0       ****    0 ROOT    
