@<TRIPOS>MOLECULE
3R540
247   249    1
SMALL
USER_CHARGES


@<TRIPOS>ATOM
      1 CA          1.6830   -8.4207  -48.9256 C.3       0 UNK        -0.1800 
      2 C           1.8492   -9.8686  -48.4905 C.2       0 UNK         0.5000 
      3 O           2.4345  -10.1268  -47.4389 O.2       0 UNK        -0.5000 
      4 N           1.3218  -10.8138  -49.2818 N.am      1 UNK        -0.5000 
      5 CA          1.4000  -12.2667  -49.0635 C.3       1 UNK         0.1400 
      6 C6          0.7254  -13.0419  -50.2228 C.3       23 UNK        -0.0398 
      7 S7          1.3173  -14.7588  -50.4169 S.3       23 UNK        -0.2404 
      8 C8          0.0664  -15.6665  -49.4584 C.3       23 UNK        -0.0205 
      9 C9         -0.0019  -17.1297  -49.8566 C.ar      23 UNK        -0.0193 
     10 C10        -0.8574  -17.5291  -50.8849 C.ar      23 UNK        -0.1150 
     11 C11        -0.9667  -18.8761  -51.2380 C.ar      23 UNK        -0.0193 
     12 C12        -0.2064  -19.8286  -50.5499 C.ar      23 UNK        -0.1150 
     13 C13         0.6744  -19.4392  -49.5351 C.ar      23 UNK        -0.0193 
     14 C14         0.7687  -18.0867  -49.1917 C.ar      23 UNK        -0.1150 
     15 C15         1.5690  -20.4671  -48.8526 C.3       23 UNK        -0.0205 
     16 S16         1.3449  -20.5172  -47.0465 S.3       23 UNK        -0.2404 
     17 C17        -0.2140  -21.4422  -46.8782 C.3       23 UNK        -0.0398 
     18 CA          0.0039  -22.8503  -46.2751 C.3       11 UNK         0.1400 
     19 N           0.6585  -22.8140  -44.9636 N.am      11 UNK        -0.5000 
     20 C           1.2357  -23.8740  -44.3803 C.2       10 UNK         0.5000 
     21 O           1.2771  -24.9918  -44.8924 O.2       10 UNK        -0.5000 
     22 CA          1.8049  -23.6691  -42.9631 C.3       10 UNK         0.1400 
     23 CB          3.2407  -23.1294  -43.0324 C.3       10 UNK        -0.1800 
     24 N           0.9896  -22.7711  -42.1432 N.am      10 UNK        -0.5000 
     25 C          -0.2956  -22.9786  -41.8281 C.2       9 UNK         0.5000 
     26 O          -0.9189  -23.9891  -42.1543 O.2       9 UNK        -0.5000 
     27 CA         -1.0403  -21.8488  -41.0917 C.3       9 UNK         0.1400 
     28 CB         -0.1091  -20.8583  -40.3562 C.3       9 UNK        -0.1800 
     29 N          -1.9466  -21.1305  -41.9967 N.am      9 UNK        -0.5000 
     30 C          -1.6111  -20.4774  -43.1191 C.2       8 UNK         0.5000 
     31 O          -0.4600  -20.4312  -43.5628 O.2       8 UNK        -0.5000 
     32 CA         -2.7392  -19.7595  -43.8825 C.3       8 UNK         0.1400 
     33 CB         -3.7455  -19.0655  -42.9387 C.3       8 UNK        -0.1800 
     34 N          -2.1077  -18.7854  -44.7632 N.am      8 UNK        -0.5000 
     35 C          -2.6696  -18.0766  -45.7473 C.2       7 UNK         0.5000 
     36 O          -3.8397  -18.2160  -46.1051 O.2       7 UNK        -0.5000 
     37 CA         -1.7608  -17.0411  -46.4485 C.3       7 UNK         0.1400 
     38 CB         -2.5505  -15.8227  -46.9729 C.3       7 UNK        -0.1800 
     39 N          -0.6208  -16.6181  -45.6207 N.am      7 UNK        -0.5000 
     40 C          -0.6545  -15.9614  -44.4519 C.2       6 UNK         0.5000 
     41 O          -1.6889  -15.5287  -43.9441 O.2       6 UNK        -0.5000 
     42 CA          0.6773  -15.7795  -43.6913 C.3       6 UNK         0.1400 
     43 CB          0.9030  -16.9573  -42.7213 C.3       6 UNK        -0.1800 
     44 N           1.8703  -15.5416  -44.5200 N.am      6 UNK        -0.5000 
     45 C           2.4699  -16.3658  -45.3917 C.2       5 UNK         0.5000 
     46 O           2.0383  -17.4833  -45.6692 O.2       5 UNK        -0.5000 
     47 CA          3.7561  -15.8652  -46.0733 C.3       5 UNK         0.1400 
     48 CB          3.8313  -16.2852  -47.5526 C.3       5 UNK        -0.1800 
     49 N           3.8970  -14.4112  -45.9865 N.am      5 UNK        -0.5000 
     50 C           5.0373  -13.7709  -45.7029 C.2       4 UNK         0.5000 
     51 O           6.0822  -14.3411  -45.3856 O.2       4 UNK        -0.5000 
     52 CA          5.0281  -12.2356  -45.8101 C.3       4 UNK         0.1400 
     53 CB          5.3714  -11.8006  -47.2431 C.3       4 UNK        -0.1800 
     54 N           3.7649  -11.6127  -45.4158 N.am      4 UNK        -0.5000 
     55 C           3.3147  -11.5271  -44.1567 C.2       3 UNK         0.5000 
     56 O           3.8660  -12.0606  -43.1939 O.2       3 UNK        -0.5000 
     57 CA          2.0366  -10.7017  -43.9378 C.3       3 UNK         0.1400 
     58 CB          2.3402   -9.1965  -44.0112 C.3       3 UNK        -0.1800 
     59 N           1.0253  -11.0413  -44.9360 N.am      3 UNK        -0.5000 
     60 C           0.0259  -11.9090  -44.7313 C.2       2 UNK         0.5000 
     61 O          -0.2026  -12.4357  -43.6431 O.2       2 UNK        -0.5000 
     62 CA         -0.8688  -12.2641  -45.9373 C.3       2 UNK         0.1400 
     63 CB         -2.1878  -11.4797  -45.8820 C.3       2 UNK        -0.1800 
     64 N          -0.2367  -12.0395  -47.2395 N.am      2 UNK        -0.5000 
     65 C           0.8371  -12.7018  -47.6923 C.2       1 UNK         0.5000 
     66 O           1.4110  -13.5797  -47.0505 O.2       1 UNK        -0.5000 
     67 C          -1.3299  -23.6189  -46.2187 C.2       11 UNK         0.5000 
     68 O          -1.7097  -24.2329  -47.2147 O.2       11 UNK        -0.5000 
     69 N          -2.0164  -23.5866  -45.0674 N.am      12 UNK        -0.5000 
     70 CA         -3.2449  -24.3451  -44.8314 C.3       12 UNK         0.1400 
     71 CB         -4.0261  -23.7356  -43.6576 C.3       12 UNK        -0.1800 
     72 C          -2.9444  -25.8345  -44.6002 C.2       12 UNK         0.5000 
     73 O          -3.6368  -26.6825  -45.1614 O.2       12 UNK        -0.5000 
     74 N          -1.8820  -26.1248  -43.8353 N.am      13 UNK        -0.5000 
     75 CA         -1.3626  -27.4737  -43.5950 C.3       13 UNK         0.1400 
     76 CB         -0.2476  -27.4089  -42.5406 C.3       13 UNK        -0.1800 
     77 C          -0.8612  -28.1602  -44.8810 C.2       13 UNK         0.5000 
     78 O          -1.0968  -29.3545  -45.0659 O.2       13 UNK        -0.5000 
     79 N          -0.2184  -27.3826  -45.7632 N.am      14 UNK        -0.5000 
     80 CA          0.2192  -27.8067  -47.0953 C.3       14 UNK         0.1400 
     81 CB          1.2718  -26.8097  -47.6065 C.3       14 UNK        -0.1800 
     82 C          -0.9301  -27.9277  -48.1183 C.2       14 UNK         0.5000 
     83 O          -0.7099  -28.4801  -49.1967 O.2       14 UNK        -0.5000 
     84 N          -2.1129  -27.3878  -47.7829 N.am      15 UNK        -0.5000 
     85 CA         -3.3107  -27.2594  -48.6225 C.3       15 UNK         0.1400 
     86 CB         -3.8985  -28.6438  -48.9661 C.3       15 UNK        -0.1800 
     87 C          -3.0852  -26.3680  -49.8646 C.2       15 UNK         0.5000 
     88 O          -3.7151  -26.5761  -50.9031 O.2       15 UNK        -0.5000 
     89 N          -2.1861  -25.3868  -49.7267 N.am      16 UNK        -0.5000 
     90 CA         -1.8563  -24.3878  -50.7379 C.3       16 UNK         0.1400 
     91 CB         -0.3724  -24.0124  -50.5946 C.3       16 UNK        -0.1800 
     92 C          -2.7385  -23.1361  -50.6011 C.2       16 UNK         0.5000 
     93 O          -3.0261  -22.4950  -51.6100 O.2       16 UNK        -0.5000 
     94 N          -3.1410  -22.8091  -49.3636 N.am      17 UNK        -0.5000 
     95 CA         -4.0031  -21.6748  -49.0311 C.3       17 UNK         0.1400 
     96 CB         -4.0757  -21.5220  -47.5037 C.3       17 UNK        -0.1800 
     97 C          -5.4228  -21.8143  -49.6120 C.2       17 UNK         0.5000 
     98 O          -5.9178  -22.9319  -49.7762 O.2       17 UNK        -0.5000 
     99 N          -6.0532  -20.6606  -49.8724 N.am      18 UNK        -0.5000 
    100 CA        -7.4072  -20.4811  -50.4145 C.3       18 UNK         0.1400 
    101 CB        -8.4715  -21.0674  -49.4628 C.3       18 UNK        -0.1800 
    102 C         -7.5823  -20.9630  -51.8721 C.2       18 UNK         0.5000 
    103 O         -8.7159  -21.1062  -52.3347 O.2       18 UNK        -0.5000 
    104 N         -6.4687  -21.1715  -52.5848 N.am      19 UNK        -0.5000 
    105 CA        -6.4324  -21.4275  -54.0214 C.3       19 UNK         0.1400 
    106 CB        -5.0869  -22.0878  -54.3633 C.3       19 UNK        -0.1800 
    107 C         -6.5972  -20.1164  -54.8103 C.2       19 UNK         0.5000 
    108 O         -6.3524  -19.0341  -54.2715 O.2       19 UNK        -0.5000 
    109 N         -6.9394  -20.2315  -56.1008 N.am      20 UNK        -0.5000 
    110 CA        -7.0301  -19.1024  -57.0371 C.3       20 UNK         0.1400 
    111 CB        -7.5704  -19.6046  -58.3843 C.3       20 UNK        -0.1800 
    112 C         -5.6889  -18.3636  -57.2322 C.2       20 UNK         0.5000 
    113 O         -5.6820  -17.1564  -57.4767 O.2       20 UNK        -0.5000 
    114 N         -4.5793  -19.0969  -57.0636 N.am      21 UNK        -0.5000 
    115 CA        -3.2076  -18.5893  -57.0666 C.3       21 UNK         0.1400 
    116 CB        -2.2437  -19.7860  -57.0433 C.3       21 UNK        -0.1800 
    117 C         -2.8902  -17.6282  -55.9020 C.2       21 UNK         0.5000 
    118 O         -1.9345  -16.8591  -56.0109 O.2       21 UNK        -0.5000 
    119 N         -3.6767  -17.6806  -54.8170 N.am      22 UNK        -0.5000 
    120 CA        -3.5373  -16.7968  -53.6484 C.3       22 UNK         0.1400 
    121 C         -4.1218  -15.3684  -53.8617 C.2       22 UNK         0.5000 
    122 N         -4.8206  -15.0842  -54.9556 N.am      22 UNK        -0.7600 
    123 O         -3.9293  -14.4960  -53.0195 O.2       22 UNK        -0.5000 
    124 C124       -4.1095  -17.4335  -52.3505 C.3       23 UNK        -0.0398 
    125 S125       -3.6387  -19.1674  -51.9930 S.3       23 UNK        -0.2404 
    126 C126       -1.8641  -19.2971  -52.3933 C.3       23 UNK        -0.0205 
    127 H127        2.6601   -7.9568  -49.0595 H         1 UNK         0.0600 
    128 H128        1.1406   -7.8613  -48.1634 H         1 UNK         0.0600 
    129 H129        1.1348   -8.3388  -49.8643 H         1 UNK         0.0600 
    130 H130        0.8476  -10.5250  -50.1258 H         1 UNK         0.3000 
    131 H131        2.4632  -12.5149  -49.0641 H         1 UNK         0.0600 
    132 H132       -0.3628  -13.0162  -50.1424 H         1 UNK         0.0800 
    133 H133        0.9532  -12.5474  -51.1682 H         1 UNK         0.0800 
    134 H134       -0.9144  -15.2114  -49.6017 H         1 UNK         0.0800 
    135 H135        0.2964  -15.5846  -48.3957 H         1 UNK         0.0800 
    136 H136       -1.4350  -16.7845  -51.4110 H         1 UNK         0.1150 
    137 H137       -0.2782  -20.8703  -50.8277 H         1 UNK         0.1150 
    138 H138        1.4428  -17.7818  -48.4041 H         1 UNK         0.1150 
    139 H139        1.4134  -21.4650  -49.2653 H         1 UNK         0.0800 
    140 H140        2.6078  -20.2097  -49.0628 H         1 UNK         0.0800 
    141 H141       -0.6968  -21.5096  -47.8550 H         1 UNK         0.0800 
    142 H142       -0.8806  -20.8529  -46.2493 H         1 UNK         0.0800 
    143 H143        0.6566  -23.4008  -46.9562 H         1 UNK         0.0600 
    144 H144        0.6279  -21.9281  -44.4687 H         1 UNK         0.3000 
    145 H145        1.8272  -24.6429  -42.4701 H         1 UNK         0.0600 
    146 H146        3.6827  -23.0544  -42.0388 H         1 UNK         0.0600 
    147 H147        3.8778  -23.7904  -43.6217 H         1 UNK         0.0600 
    148 H148        3.2775  -22.1412  -43.4930 H         1 UNK         0.0600 
    149 H149        1.4096  -21.8920  -41.8787 H         1 UNK         0.3000 
    150 H150       -1.6646  -22.3344  -40.3401 H         1 UNK         0.0600 
    151 H151        0.5544  -21.3819  -39.6667 H         1 UNK         0.0600 
    152 H152       -0.6897  -20.1500  -39.7652 H         1 UNK         0.0600 
    153 H153        0.5119  -20.2787  -41.0399 H         1 UNK         0.0600 
    154 H154       -2.9178  -21.1327  -41.7191 H         1 UNK         0.3000 
    155 H155       -3.2575  -20.4993  -44.4947 H         1 UNK         0.0600 
    156 H156       -4.2775  -19.7869  -42.3181 H         1 UNK         0.0600 
    157 H157       -4.5052  -18.5170  -43.4953 H         1 UNK         0.0600 
    158 H158       -3.2471  -18.3571  -42.2756 H         1 UNK         0.0600 
    159 H159       -1.1184  -18.6645  -44.5821 H         1 UNK         0.3000 
    160 H160       -1.3335  -17.5561  -47.3085 H         1 UNK         0.0600 
    161 H161       -3.2437  -16.1194  -47.7606 H         1 UNK         0.0600 
    162 H162       -1.8895  -15.0648  -47.3900 H         1 UNK         0.0600 
    163 H163       -3.1372  -15.3510  -46.1841 H         1 UNK         0.0600 
    164 H164        0.2894  -16.9805  -45.8986 H         1 UNK         0.3000 
    165 H165        0.5647  -14.8830  -43.0814 H         1 UNK         0.0600 
    166 H166        1.7950  -16.8032  -42.1143 H         1 UNK         0.0600 
    167 H167        0.0600  -17.0658  -42.0376 H         1 UNK         0.0600 
    168 H168        1.0146  -17.9065  -43.2464 H         1 UNK         0.0600 
    169 H169        2.2972  -14.6348  -44.3963 H         1 UNK         0.3000 
    170 H170        4.5747  -16.3530  -45.5410 H         1 UNK         0.0600 
    171 H171        3.7816  -17.3693  -47.6615 H         1 UNK         0.0600 
    172 H172        3.0113  -15.8553  -48.1279 H         1 UNK         0.0600 
    173 H173        4.7659  -15.9587  -48.0085 H         1 UNK         0.0600 
    174 H174        3.0755  -13.8805  -46.2695 H         1 UNK         0.3000 
    175 H175        5.8091  -11.8562  -45.1477 H         1 UNK         0.0600 
    176 H176        4.6176  -12.1362  -47.9558 H         1 UNK         0.0600 
    177 H177        5.4436  -10.7155  -47.3196 H         1 UNK         0.0600 
    178 H178        6.3301  -12.2138  -47.5593 H         1 UNK         0.0600 
    179 H179        3.2609  -11.1197  -46.1496 H         1 UNK         0.3000 
    180 H180        1.6670  -10.9152  -42.9325 H         1 UNK         0.0600 
    181 H181        2.7180   -8.9031  -44.9912 H         1 UNK         0.0600 
    182 H182        3.0910   -8.9141  -43.2722 H         1 UNK         0.0600 
    183 H183        1.4465   -8.6063  -43.8083 H         1 UNK         0.0600 
    184 H184        1.1761  -10.6778  -45.8693 H         1 UNK         0.3000 
    185 H185       -1.1029  -13.3270  -45.8603 H         1 UNK         0.0600 
    186 H186       -2.7033  -11.6493  -44.9357 H         1 UNK         0.0600 
    187 H187       -2.0216  -10.4060  -45.9784 H         1 UNK         0.0600 
    188 H188       -2.8649  -11.7898  -46.6782 H         1 UNK         0.0600 
    189 H189       -0.6305  -11.3088  -47.8144 H         1 UNK         0.3000 
    190 H190       -1.5998  -23.1341  -44.2669 H         1 UNK         0.3000 
    191 H191       -3.8754  -24.2747  -45.7198 H         1 UNK         0.0600 
    192 H192       -4.2865  -22.6962  -43.8552 H         1 UNK         0.0600 
    193 H193       -4.9591  -24.2760  -43.4927 H         1 UNK         0.0600 
    194 H194       -3.4623  -23.7710  -42.7260 H         1 UNK         0.0600 
    195 H195       -1.4032  -25.3635  -43.3613 H         1 UNK         0.3000 
    196 H196       -2.1788  -28.0771  -43.1924 H         1 UNK         0.0600 
    197 H197        0.1272  -28.4061  -42.3070 H         1 UNK         0.0600 
    198 H198       -0.6093  -26.9700  -41.6104 H         1 UNK         0.0600 
    199 H199        0.5976  -26.8126  -42.8847 H         1 UNK         0.0600 
    200 H200        0.0169  -26.4328  -45.4931 H         1 UNK         0.3000 
    201 H201        0.6892  -28.7886  -47.0108 H         1 UNK         0.0600 
    202 H202        0.8561  -25.8068  -47.7109 H         1 UNK         0.0600 
    203 H203        1.6564  -27.1083  -48.5825 H         1 UNK         0.0600 
    204 H204        2.1229  -26.7513  -46.9278 H         1 UNK         0.0600 
    205 H205       -2.1940  -26.9772  -46.8620 H         1 UNK         0.3000 
    206 H206       -4.0473  -26.7353  -48.0120 H         1 UNK         0.0600 
    207 H207       -4.0462  -29.2421  -48.0671 H         1 UNK         0.0600 
    208 H208       -4.8697  -28.5458  -49.4524 H         1 UNK         0.0600 
    209 H209       -3.2516  -29.2045  -49.6411 H         1 UNK         0.0600 
    210 H210       -1.7769  -25.2453  -48.8080 H         1 UNK         0.3000 
    211 H211       -2.0104  -24.8066  -51.7346 H         1 UNK         0.0600 
    212 H212       -0.0765  -23.2940  -51.3599 H         1 UNK         0.0600 
    213 H213        0.2670  -24.8882  -50.7066 H         1 UNK         0.0600 
    214 H214       -0.1601  -23.5663  -49.6222 H         1 UNK         0.0600 
    215 H215       -2.8592  -23.4086  -48.5972 H         1 UNK         0.3000 
    216 H216       -3.5409  -20.7768  -49.4458 H         1 UNK         0.0600 
    217 H217       -4.7151  -20.6840  -47.2230 H         1 UNK         0.0600 
    218 H218       -3.0954  -21.3273  -47.0749 H         1 UNK         0.0600 
    219 H219       -4.4846  -22.4146  -47.0308 H         1 UNK         0.0600 
    220 H220       -5.5474  -19.8009  -49.7088 H         1 UNK         0.3000 
    221 H221       -7.5657  -19.4023  -50.4474 H         1 UNK         0.0600 
    222 H222       -8.4411  -22.1569  -49.4404 H         1 UNK         0.0600 
    223 H223       -8.3323  -20.7059  -48.4440 H         1 UNK         0.0600 
    224 H224       -9.4760  -20.7777  -49.7730 H         1 UNK         0.0600 
    225 H225       -5.5777  -20.9886  -52.1440 H         1 UNK         0.3000 
    226 H226       -7.2426  -22.1089  -54.2893 H         1 UNK         0.0600 
    227 H227       -4.9462  -23.0089  -53.7970 H         1 UNK         0.0600 
    228 H228       -5.0291  -22.3466  -55.4210 H         1 UNK         0.0600 
    229 H229       -4.2458  -21.4301  -54.1383 H         1 UNK         0.0600 
    230 H230       -7.1227  -21.1487  -56.4823 H         1 UNK         0.3000 
    231 H231       -7.7430  -18.3840  -56.6271 H         1 UNK         0.0600 
    232 H232       -6.9089  -20.3472  -58.8323 H         1 UNK         0.0600 
    233 H233       -7.6711  -18.7832  -59.0951 H         1 UNK         0.0600 
    234 H234       -8.5560  -20.0564  -58.2708 H         1 UNK         0.0600 
    235 H235       -4.6914  -20.0798  -56.8661 H         1 UNK         0.3000 
    236 H236       -3.0545  -18.0390  -57.9971 H         1 UNK         0.0600 
    237 H237       -2.3662  -20.3826  -56.1381 H         1 UNK         0.0600 
    238 H238       -2.4028  -20.4391  -57.9016 H         1 UNK         0.0600 
    239 H239       -1.2054  -19.4533  -57.0786 H         1 UNK         0.0600 
    240 H240       -4.4673  -18.3142  -54.7937 H         1 UNK         0.3000 
    241 H241       -2.4714  -16.6347  -53.4860 H         1 UNK         0.0600 
    242 H242       -5.1882  -14.1542  -55.0808 H         1 UNK         0.3800 
    243 H243       -4.9884  -15.7883  -55.6607 H         1 UNK         0.3800 
    244 H244       -3.8319  -16.8312  -51.4842 H         1 UNK         0.0800 
    245 H245       -5.2001  -17.4111  -52.3835 H         1 UNK         0.0800 
    246 H246       -1.6646  -20.3376  -52.6531 H         1 UNK         0.0800 
    247 H247       -1.6106  -18.7278  -53.2855 H         1 UNK         0.0800 
@<TRIPOS>BOND
     1    1    2 1    
     2    1  127 1    
     3    1  128 1    
     4    1  129 1    
     5    2    3 2    
     6    2    4 am   BACKBONE|DICT|INTERRES
     7    4    5 1    
     8    4  130 1    
     9    5    6 1    
    10    5   65 1    
    11    5  131 1    
    12    6    7 1    
    13    6  132 1    
    14    6  133 1    
    15    7    8 1    
    16    8    9 1    
    17    8  134 1    
    18    8  135 1    
    19    9   10 ar   
    20    9   14 ar   
    21   10   11 ar   
    22   10  136 1    
    23   11   12 ar   
    24   11  126 1    
    25   12   13 ar   
    26   12  137 1    
    27   13   14 ar   
    28   13   15 1    
    29   14  138 1    
    30   15   16 1    
    31   15  139 1    
    32   15  140 1    
    33   16   17 1    
    34   17   18 1    
    35   17  141 1    
    36   17  142 1    
    37   18   19 1    
    38   18   67 1    
    39   18  143 1    
    40   19   20 am   BACKBONE|DICT|INTERRES
    41   19  144 1    
    42   20   21 2    
    43   20   22 1    
    44   22   23 1    
    45   22   24 1    
    46   22  145 1    
    47   23  146 1    
    48   23  147 1    
    49   23  148 1    
    50   24   25 am   BACKBONE|DICT|INTERRES
    51   24  149 1    
    52   25   26 2    
    53   25   27 1    
    54   27   28 1    
    55   27   29 1    
    56   27  150 1    
    57   28  151 1    
    58   28  152 1    
    59   28  153 1    
    60   29   30 am   BACKBONE|DICT|INTERRES
    61   29  154 1    
    62   30   31 2    
    63   30   32 1    
    64   32   33 1    
    65   32   34 1    
    66   32  155 1    
    67   33  156 1    
    68   33  157 1    
    69   33  158 1    
    70   34   35 am   BACKBONE|DICT|INTERRES
    71   34  159 1    
    72   35   36 2    
    73   35   37 1    
    74   37   38 1    
    75   37   39 1    
    76   37  160 1    
    77   38  161 1    
    78   38  162 1    
    79   38  163 1    
    80   39   40 am   BACKBONE|DICT|INTERRES
    81   39  164 1    
    82   40   41 2    
    83   40   42 1    
    84   42   43 1    
    85   42   44 1    
    86   42  165 1    
    87   43  166 1    
    88   43  167 1    
    89   43  168 1    
    90   44   45 am   BACKBONE|DICT|INTERRES
    91   44  169 1    
    92   45   46 2    
    93   45   47 1    
    94   47   48 1    
    95   47   49 1    
    96   47  170 1    
    97   48  171 1    
    98   48  172 1    
    99   48  173 1    
   100   49   50 am   BACKBONE|DICT|INTERRES
   101   49  174 1    
   102   50   51 2    
   103   50   52 1    
   104   52   53 1    
   105   52   54 1    
   106   52  175 1    
   107   53  176 1    
   108   53  177 1    
   109   53  178 1    
   110   54   55 am   BACKBONE|DICT|INTERRES
   111   54  179 1    
   112   55   56 2    
   113   55   57 1    
   114   57   58 1    
   115   57   59 1    
   116   57  180 1    
   117   58  181 1    
   118   58  182 1    
   119   58  183 1    
   120   59   60 am   BACKBONE|DICT|INTERRES
   121   59  184 1    
   122   60   61 2    
   123   60   62 1    
   124   62   63 1    
   125   62   64 1    
   126   62  185 1    
   127   63  186 1    
   128   63  187 1    
   129   63  188 1    
   130   64   65 am   BACKBONE|DICT|INTERRES
   131   64  189 1    
   132   65   66 2    
   133   67   68 2    
   134   67   69 am   BACKBONE|DICT|INTERRES
   135   69   70 1    
   136   69  190 1    
   137   70   71 1    
   138   70   72 1    
   139   70  191 1    
   140   71  192 1    
   141   71  193 1    
   142   71  194 1    
   143   72   73 2    
   144   72   74 am   BACKBONE|DICT|INTERRES
   145   74   75 1    
   146   74  195 1    
   147   75   76 1    
   148   75   77 1    
   149   75  196 1    
   150   76  197 1    
   151   76  198 1    
   152   76  199 1    
   153   77   78 2    
   154   77   79 am   BACKBONE|DICT|INTERRES
   155   79   80 1    
   156   79  200 1    
   157   80   81 1    
   158   80   82 1    
   159   80  201 1    
   160   81  202 1    
   161   81  203 1    
   162   81  204 1    
   163   82   83 2    
   164   82   84 am   BACKBONE|DICT|INTERRES
   165   84   85 1    
   166   84  205 1    
   167   85   86 1    
   168   85   87 1    
   169   85  206 1    
   170   86  207 1    
   171   86  208 1    
   172   86  209 1    
   173   87   88 2    
   174   87   89 am   BACKBONE|DICT|INTERRES
   175   89   90 1    
   176   89  210 1    
   177   90   91 1    
   178   90   92 1    
   179   90  211 1    
   180   91  212 1    
   181   91  213 1    
   182   91  214 1    
   183   92   93 2    
   184   92   94 am   BACKBONE|DICT|INTERRES
   185   94   95 1    
   186   94  215 1    
   187   95   96 1    
   188   95   97 1    
   189   95  216 1    
   190   96  217 1    
   191   96  218 1    
   192   96  219 1    
   193   97   98 2    
   194   97   99 am   BACKBONE|DICT|INTERRES
   195   99  100 1    
   196   99  220 1    
   197  100  101 1    
   198  100  102 1    
   199  100  221 1    
   200  101  222 1    
   201  101  223 1    
   202  101  224 1    
   203  102  103 2    
   204  102  104 am   BACKBONE|DICT|INTERRES
   205  104  105 1    
   206  104  225 1    
   207  105  106 1    
   208  105  107 1    
   209  105  226 1    
   210  106  227 1    
   211  106  228 1    
   212  106  229 1    
   213  107  108 2    
   214  107  109 am   BACKBONE|DICT|INTERRES
   215  109  110 1    
   216  109  230 1    
   217  110  111 1    
   218  110  112 1    
   219  110  231 1    
   220  111  232 1    
   221  111  233 1    
   222  111  234 1    
   223  112  113 2    
   224  112  114 am   BACKBONE|DICT|INTERRES
   225  114  115 1    
   226  114  235 1    
   227  115  116 1    
   228  115  117 1    
   229  115  236 1    
   230  116  237 1    
   231  116  238 1    
   232  116  239 1    
   233  117  118 2    
   234  117  119 am   BACKBONE|DICT|INTERRES
   235  119  120 1    
   236  119  240 1    
   237  120  121 1    
   238  120  124 1    
   239  120  241 1    
   240  121  122 am   BACKBONE|DICT|INTERRES
   241  121  123 2    
   242  122  242 1    
   243  122  243 1    
   244  124  125 1    
   245  124  244 1    
   246  124  245 1    
   247  125  126 1    
   248  126  246 1    
   249  126  247 1    
@<TRIPOS>SUBSTRUCTURE
     1 UNK         1 GROUP             0       ****    0 ROOT    
