@<TRIPOS>MOLECULE
3R540
247   249    1
SMALL
USER_CHARGES


@<TRIPOS>ATOM
      1 CA          4.7799  -18.6215  -46.7210 C.3       0 UNK        -0.1800 
      2 C           4.9507  -17.1094  -46.6695 C.2       0 UNK         0.5000 
      3 O           5.9969  -16.5954  -47.0653 O.2       0 UNK        -0.5000 
      4 N           3.9224  -16.4041  -46.1875 N.am      1 UNK        -0.5000 
      5 CA          3.8624  -14.9507  -46.0041 C.3       1 UNK         0.1400 
      6 C6          3.9223  -14.1240  -47.3184 C.3       23 UNK        -0.0398 
      7 S7          2.5826  -14.5810  -48.4670 S.3       23 UNK        -0.2404 
      8 C8          3.5151  -15.3010  -49.8529 C.3       23 UNK        -0.0205 
      9 C9          2.7647  -16.4730  -50.4590 C.ar      23 UNK        -0.0193 
     10 C10         1.6528  -16.2545  -51.2763 C.ar      23 UNK        -0.1150 
     11 C11         0.9523  -17.3339  -51.8217 C.ar      23 UNK        -0.0193 
     12 C12         1.3822  -18.6380  -51.5586 C.ar      23 UNK        -0.1150 
     13 C13         2.5004  -18.8668  -50.7527 C.ar      23 UNK        -0.0193 
     14 C14         3.1843  -17.7804  -50.2027 C.ar      23 UNK        -0.1150 
     15 C15         2.9847  -20.2819  -50.4824 C.3       23 UNK        -0.0205 
     16 S16         2.2970  -20.9363  -48.9332 S.3       23 UNK        -0.2404 
     17 C17         0.6322  -21.4510  -49.4718 C.3       23 UNK        -0.0398 
     18 CA         -0.0134  -22.3996  -48.4383 C.3       11 UNK         0.1400 
     19 N          -0.2713  -21.7384  -47.1577 N.am      11 UNK        -0.5000 
     20 C          -0.4741  -22.3861  -46.0010 C.2       10 UNK         0.5000 
     21 O          -0.4369  -23.6112  -45.8955 O.2       10 UNK        -0.5000 
     22 CA         -0.8427  -21.5308  -44.7704 C.3       10 UNK         0.1400 
     23 CB          0.4252  -21.0606  -44.0428 C.3       10 UNK        -0.1800 
     24 N          -1.6541  -20.3642  -45.1156 N.am      10 UNK        -0.5000 
     25 C          -2.8261  -20.4068  -45.7614 C.2       9 UNK         0.5000 
     26 O          -3.4327  -21.4554  -45.9776 O.2       9 UNK        -0.5000 
     27 CA         -3.3795  -19.0841  -46.3294 C.3       9 UNK         0.1400 
     28 CB         -4.6395  -18.6462  -45.5715 C.3       9 UNK        -0.1800 
     29 N          -2.4165  -17.9787  -46.3540 N.am      9 UNK        -0.5000 
     30 C          -1.2821  -17.9460  -47.0723 C.2       8 UNK         0.5000 
     31 O          -0.8941  -18.8767  -47.7773 O.2       8 UNK        -0.5000 
     32 CA         -0.4019  -16.6978  -46.8979 C.3       8 UNK         0.1400 
     33 CB         -0.9852  -15.4974  -47.6600 C.3       8 UNK        -0.1800 
     34 N          -0.2808  -16.3719  -45.4759 N.am      8 UNK        -0.5000 
     35 C           0.6382  -16.9081  -44.6607 C.2       7 UNK         0.5000 
     36 O           1.5625  -17.6184  -45.0556 O.2       7 UNK        -0.5000 
     37 CA          0.5159  -16.6131  -43.1528 C.3       7 UNK         0.1400 
     38 CB          1.4854  -15.5015  -42.7384 C.3       7 UNK        -0.1800 
     39 N          -0.8374  -16.2397  -42.7437 N.am      7 UNK        -0.5000 
     40 C          -1.8476  -17.1110  -42.6115 C.2       6 UNK         0.5000 
     41 O          -1.7313  -18.3207  -42.8007 O.2       6 UNK        -0.5000 
     42 CA         -3.2288  -16.5327  -42.2448 C.3       6 UNK         0.1400 
     43 CB         -3.4246  -16.5403  -40.7217 C.3       6 UNK        -0.1800 
     44 N          -3.4550  -15.1765  -42.7489 N.am      6 UNK        -0.5000 
     45 C          -3.3880  -14.7989  -44.0325 C.2       5 UNK         0.5000 
     46 O          -3.1417  -15.5728  -44.9588 O.2       5 UNK        -0.5000 
     47 CA         -3.5600  -13.2992  -44.3358 C.3       5 UNK         0.1400 
     48 CB         -4.2968  -12.5166  -43.2258 C.3       5 UNK        -0.1800 
     49 N          -2.2771  -12.6589  -44.6476 N.am      5 UNK        -0.5000 
     50 C          -1.1836  -12.6023  -43.8722 C.2       4 UNK         0.5000 
     51 O          -1.0839  -13.1580  -42.7737 O.2       4 UNK        -0.5000 
     52 CA         -0.0034  -11.7837  -44.4220 C.3       4 UNK         0.1400 
     53 CB         -0.4209  -10.3501  -44.8085 C.3       4 UNK        -0.1800 
     54 N           1.0616  -11.7265  -43.4225 N.am      4 UNK        -0.5000 
     55 C           2.3608  -11.5645  -43.6908 C.2       3 UNK         0.5000 
     56 O           2.7931  -11.4595  -44.8414 O.2       3 UNK        -0.5000 
     57 CA          3.3461  -11.5204  -42.4975 C.3       3 UNK         0.1400 
     58 CB          2.7811  -12.1191  -41.1950 C.3       3 UNK        -0.1800 
     59 N           4.5576  -12.2467  -42.8656 N.am      3 UNK        -0.5000 
     60 C           5.6313  -11.7125  -43.4592 C.2       2 UNK         0.5000 
     61 O           5.8920  -10.5087  -43.4577 O.2       2 UNK        -0.5000 
     62 CA          6.5120  -12.6821  -44.2748 C.3       2 UNK         0.1400 
     63 CB          7.4383  -13.5261  -43.3772 C.3       2 UNK        -0.1800 
     64 N           5.7099  -13.5000  -45.2023 N.am      2 UNK        -0.5000 
     65 C           4.8511  -14.4905  -44.9103 C.2       1 UNK         0.5000 
     66 O           4.7544  -14.9862  -43.7869 O.2       1 UNK        -0.5000 
     67 C          -1.2811  -23.0685  -49.0051 C.2       11 UNK         0.5000 
     68 O          -1.1627  -24.1093  -49.6507 O.2       11 UNK        -0.5000 
     69 N          -2.4682  -22.5072  -48.7325 N.am      12 UNK        -0.5000 
     70 CA         -3.7533  -23.1279  -49.0643 C.3       12 UNK         0.1400 
     71 CB         -4.8958  -22.1126  -48.9294 C.3       12 UNK        -0.1800 
     72 C          -4.0236  -24.3632  -48.1917 C.2       12 UNK         0.5000 
     73 O          -4.4417  -25.3952  -48.7150 O.2       12 UNK        -0.5000 
     74 N          -3.7305  -24.2516  -46.8876 N.am      13 UNK        -0.5000 
     75 CA         -3.8274  -25.3403  -45.9118 C.3       13 UNK         0.1400 
     76 CB         -3.5819  -24.7843  -44.5013 C.3       13 UNK        -0.1800 
     77 C          -2.8691  -26.5086  -46.2187 C.2       13 UNK         0.5000 
     78 O          -3.2530  -27.6682  -46.0642 O.2       13 UNK        -0.5000 
     79 N          -1.6570  -26.1821  -46.6879 N.am      14 UNK        -0.5000 
     80 CA         -0.6506  -27.1374  -47.1576 C.3       14 UNK         0.1400 
     81 CB          0.7186  -26.4389  -47.1720 C.3       14 UNK        -0.1800 
     82 C          -0.9556  -27.7292  -48.5506 C.2       14 UNK         0.5000 
     83 O          -0.2865  -28.6825  -48.9507 O.2       14 UNK        -0.5000 
     84 N          -1.9257  -27.1441  -49.2705 N.am      15 UNK        -0.5000 
     85 CA         -2.3232  -27.4402  -50.6526 C.3       15 UNK         0.1400 
     86 CB         -2.8959  -28.8675  -50.7747 C.3       15 UNK        -0.1800 
     87 C          -1.2150  -27.1399  -51.6869 C.2       15 UNK         0.5000 
     88 O          -1.1872  -27.7450  -52.7602 O.2       15 UNK        -0.5000 
     89 N          -0.3314  -26.1918  -51.3514 N.am      16 UNK        -0.5000 
     90 CA          0.6916  -25.6354  -52.2350 C.3       16 UNK         0.1400 
     91 CB          1.8496  -25.1017  -51.3766 C.3       16 UNK        -0.1800 
     92 C           0.1163  -24.5170  -53.1245 C.2       16 UNK         0.5000 
     93 O           0.6212  -24.2956  -54.2256 O.2       16 UNK        -0.5000 
     94 N          -0.9335  -23.8489  -52.6338 N.am      17 UNK        -0.5000 
     95 CA         -1.7312  -22.8526  -53.3396 C.3       17 UNK         0.1400 
     96 CB         -1.5765  -21.5028  -52.6198 C.3       17 UNK        -0.1800 
     97 C          -3.2028  -23.2996  -53.3590 C.2       17 UNK         0.5000 
     98 O          -3.5632  -24.2795  -52.6993 O.2       17 UNK        -0.5000 
     99 N          -4.0299  -22.5673  -54.1164 N.am      18 UNK        -0.5000 
    100 CA        -5.4816  -22.7497  -54.1804 C.3       18 UNK         0.1400 
    101 CB        -6.0464  -21.8675  -55.3039 C.3       18 UNK        -0.1800 
    102 C         -6.1675  -22.4241  -52.8391 C.2       18 UNK         0.5000 
    103 O         -5.6454  -21.6231  -52.0630 O.2       18 UNK        -0.5000 
    104 N         -7.3327  -23.0454  -52.6076 N.am      19 UNK        -0.5000 
    105 CA        -8.0841  -23.0236  -51.3468 C.3       19 UNK         0.1400 
    106 CB        -9.3370  -23.8996  -51.4973 C.3       19 UNK        -0.1800 
    107 C         -8.4722  -21.6229  -50.8334 C.2       19 UNK         0.5000 
    108 O         -8.5214  -21.4140  -49.6205 O.2       19 UNK        -0.5000 
    109 N         -8.7143  -20.6802  -51.7527 N.am      20 UNK        -0.5000 
    110 CA        -9.0427  -19.2818  -51.4695 C.3       20 UNK         0.1400 
    111 CB        -9.8195  -18.7103  -52.6697 C.3       20 UNK        -0.1800 
    112 C         -7.7832  -18.4552  -51.1279 C.2       20 UNK         0.5000 
    113 O         -7.4920  -17.4699  -51.8111 O.2       20 UNK        -0.5000 
    114 N         -7.0408  -18.8994  -50.1032 N.am      21 UNK        -0.5000 
    115 CA        -5.7677  -18.3909  -49.5694 C.3       21 UNK         0.1400 
    116 CB        -5.9253  -16.9782  -48.9762 C.3       21 UNK        -0.1800 
    117 C         -4.5885  -18.4596  -50.5619 C.2       21 UNK         0.5000 
    118 O         -3.5766  -19.0907  -50.2601 O.2       21 UNK        -0.5000 
    119 N         -4.7581  -17.8210  -51.7206 N.am      22 UNK        -0.5000 
    120 CA        -3.8771  -17.8755  -52.8924 C.3       22 UNK         0.1400 
    121 C         -4.6588  -18.1352  -54.2124 C.2       22 UNK         0.5000 
    122 N         -5.9870  -18.0827  -54.2427 N.am      22 UNK        -0.7600 
    123 O         -4.0429  -18.4106  -55.2380 O.2       22 UNK        -0.5000 
    124 C124       -2.9896  -16.6091  -53.0148 C.3       23 UNK        -0.0398 
    125 S125       -1.6939  -16.5378  -51.7345 S.3       23 UNK        -0.2404 
    126 C126       -0.2585  -17.0891  -52.7056 C.3       23 UNK        -0.0205 
    127 H127        3.7386  -18.9137  -46.5778 H         1 UNK         0.0600 
    128 H128        5.3783  -19.0931  -45.9418 H         1 UNK         0.0600 
    129 H129        5.1080  -19.0099  -47.6850 H         1 UNK         0.0600 
    130 H130        3.1057  -16.9074  -45.8483 H         1 UNK         0.3000 
    131 H131        2.8771  -14.7658  -45.5729 H         1 UNK         0.0600 
    132 H132        3.7933  -13.0619  -47.1019 H         1 UNK         0.0800 
    133 H133        4.8932  -14.2223  -47.8050 H         1 UNK         0.0800 
    134 H134        3.6856  -14.5349  -50.6105 H         1 UNK         0.0800 
    135 H135        4.5006  -15.6305  -49.5209 H         1 UNK         0.0800 
    136 H136        1.3225  -15.2444  -51.4746 H         1 UNK         0.1150 
    137 H137        0.8491  -19.4753  -51.9828 H         1 UNK         0.1150 
    138 H138        4.0461  -17.9544  -49.5752 H         1 UNK         0.1150 
    139 H139        2.7368  -20.9419  -51.3150 H         1 UNK         0.0800 
    140 H140        4.0733  -20.2862  -50.4089 H         1 UNK         0.0800 
    141 H141        0.7260  -21.9486  -50.4385 H         1 UNK         0.0800 
    142 H142        0.0140  -20.5666  -49.6358 H         1 UNK         0.0800 
    143 H143        0.6980  -23.2074  -48.2532 H         1 UNK         0.0600 
    144 H144       -0.3441  -20.7258  -47.1865 H         1 UNK         0.3000 
    145 H145       -1.4252  -22.1535  -44.0890 H         1 UNK         0.0600 
    146 H146        0.1780  -20.5029  -43.1391 H         1 UNK         0.0600 
    147 H147        1.0371  -20.4169  -44.6765 H         1 UNK         0.0600 
    148 H148        1.0412  -21.9095  -43.7435 H         1 UNK         0.0600 
    149 H149       -1.2554  -19.4581  -44.9160 H         1 UNK         0.3000 
    150 H150       -3.6570  -19.2852  -47.3648 H         1 UNK         0.0600 
    151 H151       -5.4157  -19.4102  -45.6311 H         1 UNK         0.0600 
    152 H152       -5.0544  -17.7272  -45.9859 H         1 UNK         0.0600 
    153 H153       -4.4286  -18.4759  -44.5168 H         1 UNK         0.0600 
    154 H154       -2.6642  -17.1584  -45.8060 H         1 UNK         0.3000 
    155 H155        0.5850  -16.9115  -47.3155 H         1 UNK         0.0600 
    156 H156       -1.0112  -15.6996  -48.7315 H         1 UNK         0.0600 
    157 H157       -0.3773  -14.6049  -47.5131 H         1 UNK         0.0600 
    158 H158       -2.0026  -15.2637  -47.3463 H         1 UNK         0.0600 
    159 H159       -1.0425  -15.8425  -45.0711 H         1 UNK         0.3000 
    160 H160        0.7982  -17.5216  -42.6162 H         1 UNK         0.0600 
    161 H161        1.3325  -14.5921  -43.3189 H         1 UNK         0.0600 
    162 H162        2.5151  -15.8228  -42.8863 H         1 UNK         0.0600 
    163 H163        1.3734  -15.2553  -41.6827 H         1 UNK         0.0600 
    164 H164       -1.0144  -15.2532  -42.5842 H         1 UNK         0.3000 
    165 H165       -3.9875  -17.1792  -42.6865 H         1 UNK         0.0600 
    166 H166       -4.4299  -16.2172  -40.4509 H         1 UNK         0.0600 
    167 H167       -3.2865  -17.5430  -40.3149 H         1 UNK         0.0600 
    168 H168       -2.7130  -15.8818  -40.2218 H         1 UNK         0.0600 
    169 H169       -3.6143  -14.4612  -42.0544 H         1 UNK         0.3000 
    170 H170       -4.1687  -13.2405  -45.2393 H         1 UNK         0.0600 
    171 H171       -3.7230  -12.4638  -42.3000 H         1 UNK         0.0600 
    172 H172       -4.4966  -11.4931  -43.5433 H         1 UNK         0.0600 
    173 H173       -5.2603  -12.9734  -42.9957 H         1 UNK         0.0600 
    174 H174       -2.2414  -12.2019  -45.5478 H         1 UNK         0.3000 
    175 H175        0.3610  -12.3066  -45.3090 H         1 UNK         0.0600 
    176 H176       -0.8416   -9.8139  -43.9570 H         1 UNK         0.0600 
    177 H177        0.4299   -9.7756  -45.1752 H         1 UNK         0.0600 
    178 H178       -1.1679  -10.3479  -45.6025 H         1 UNK         0.0600 
    179 H179        0.7549  -11.8942  -42.4725 H         1 UNK         0.3000 
    180 H180        3.5820  -10.4707  -42.3125 H         1 UNK         0.0600 
    181 H181        3.5283  -12.0950  -40.4015 H         1 UNK         0.0600 
    182 H182        2.4743  -13.1563  -41.3250 H         1 UNK         0.0600 
    183 H183        1.9202  -11.5545  -40.8353 H         1 UNK         0.0600 
    184 H184        4.4579  -13.2533  -42.9545 H         1 UNK         0.3000 
    185 H185        7.1532  -12.0677  -44.9090 H         1 UNK         0.0600 
    186 H186        8.0356  -14.2196  -43.9691 H         1 UNK         0.0600 
    187 H187        8.1303  -12.8846  -42.8306 H         1 UNK         0.0600 
    188 H188        6.8863  -14.1047  -42.6367 H         1 UNK         0.0600 
    189 H189        5.7136  -13.1571  -46.1520 H         1 UNK         0.3000 
    190 H190       -2.4981  -21.6689  -48.1711 H         1 UNK         0.3000 
    191 H191       -3.7189  -23.4532  -50.1059 H         1 UNK         0.0600 
    192 H192       -4.7543  -21.2816  -49.6144 H         1 UNK         0.0600 
    193 H193       -4.9888  -21.7097  -47.9233 H         1 UNK         0.0600 
    194 H194       -5.8512  -22.5719  -49.1781 H         1 UNK         0.0600 
    195 H195       -3.4403  -23.3441  -46.5351 H         1 UNK         0.3000 
    196 H196       -4.8469  -25.7291  -45.9513 H         1 UNK         0.0600 
    197 H197       -4.2839  -23.9845  -44.2643 H         1 UNK         0.0600 
    198 H198       -2.5732  -24.3861  -44.3941 H         1 UNK         0.0600 
    199 H199       -3.7082  -25.5632  -43.7483 H         1 UNK         0.0600 
    200 H200       -1.3883  -25.2035  -46.6955 H         1 UNK         0.3000 
    201 H201       -0.6036  -27.9682  -46.4508 H         1 UNK         0.0600 
    202 H202        0.9755  -26.0513  -46.1860 H         1 UNK         0.0600 
    203 H203        0.7355  -25.6061  -47.8754 H         1 UNK         0.0600 
    204 H204        1.5100  -27.1303  -47.4642 H         1 UNK         0.0600 
    205 H205       -2.4228  -26.3726  -48.8443 H         1 UNK         0.3000 
    206 H206       -3.1322  -26.7448  -50.8814 H         1 UNK         0.0600 
    207 H207       -2.1263  -29.6278  -50.6408 H         1 UNK         0.0600 
    208 H208       -3.6756  -29.0430  -50.0335 H         1 UNK         0.0600 
    209 H209       -3.3425  -29.0259  -51.7569 H         1 UNK         0.0600 
    210 H210       -0.4868  -25.6927  -50.4806 H         1 UNK         0.3000 
    211 H211        1.0779  -26.4229  -52.8853 H         1 UNK         0.0600 
    212 H212        1.5203  -24.3163  -50.6959 H         1 UNK         0.0600 
    213 H213        2.6401  -24.6850  -52.0019 H         1 UNK         0.0600 
    214 H214        2.2932  -25.8972  -50.7776 H         1 UNK         0.0600 
    215 H215       -1.3020  -24.1357  -51.7339 H         1 UNK         0.3000 
    216 H216       -1.3933  -22.7508  -54.3728 H         1 UNK         0.0600 
    217 H217       -2.0650  -20.7053  -53.1782 H         1 UNK         0.0600 
    218 H218       -0.5265  -21.2312  -52.5241 H         1 UNK         0.0600 
    219 H219       -2.0141  -21.5204  -51.6205 H         1 UNK         0.0600 
    220 H220       -3.6633  -21.7635  -54.6042 H         1 UNK         0.3000 
    221 H221       -5.6787  -23.7957  -54.4246 H         1 UNK         0.0600 
    222 H222       -5.8601  -20.8106  -55.1151 H         1 UNK         0.0600 
    223 H223       -5.6003  -22.1195  -56.2661 H         1 UNK         0.0600 
    224 H224       -7.1247  -21.9977  -55.4033 H         1 UNK         0.0600 
    225 H225       -7.6937  -23.6642  -53.3192 H         1 UNK         0.3000 
    226 H226       -7.4479  -23.4817  -50.5882 H         1 UNK         0.0600 
    227 H227       -9.0734  -24.9280  -51.7453 H         1 UNK         0.0600 
    228 H228       -9.9085  -23.9287  -50.5684 H         1 UNK         0.0600 
    229 H229       -9.9991  -23.5237  -52.2783 H         1 UNK         0.0600 
    230 H230       -8.6055  -20.9292  -52.7247 H         1 UNK         0.3000 
    231 H231       -9.7012  -19.2396  -50.5994 H         1 UNK         0.0600 
    232 H232      -10.1163  -17.6765  -52.4884 H         1 UNK         0.0600 
    233 H233      -10.7307  -19.2791  -52.8556 H         1 UNK         0.0600 
    234 H234       -9.2222  -18.7269  -53.5822 H         1 UNK         0.0600 
    235 H235       -7.3712  -19.7544  -49.6670 H         1 UNK         0.3000 
    236 H236       -5.5207  -19.0585  -48.7440 H         1 UNK         0.0600 
    237 H237       -6.2056  -16.2442  -49.7321 H         1 UNK         0.0600 
    238 H238       -6.6863  -16.9627  -48.1961 H         1 UNK         0.0600 
    239 H239       -4.9908  -16.6414  -48.5249 H         1 UNK         0.0600 
    240 H240       -5.6564  -17.3693  -51.8599 H         1 UNK         0.3000 
    241 H241       -3.2207  -18.7399  -52.7882 H         1 UNK         0.0600 
    242 H242       -6.4561  -18.2499  -55.1182 H         1 UNK         0.3800 
    243 H243       -6.5357  -17.8526  -53.4224 H         1 UNK         0.3800 
    244 H244       -3.6029  -15.7102  -52.9376 H         1 UNK         0.0800 
    245 H245       -2.5091  -16.5558  -53.9936 H         1 UNK         0.0800 
    246 H246       -0.0156  -16.3355  -53.4562 H         1 UNK         0.0800 
    247 H247       -0.5199  -17.9983  -53.2498 H         1 UNK         0.0800 
@<TRIPOS>BOND
     1    1    2 1    
     2    1  127 1    
     3    1  128 1    
     4    1  129 1    
     5    2    3 2    
     6    2    4 am   BACKBONE|DICT|INTERRES
     7    4    5 1    
     8    4  130 1    
     9    5    6 1    
    10    5   65 1    
    11    5  131 1    
    12    6    7 1    
    13    6  132 1    
    14    6  133 1    
    15    7    8 1    
    16    8    9 1    
    17    8  134 1    
    18    8  135 1    
    19    9   10 ar   
    20    9   14 ar   
    21   10   11 ar   
    22   10  136 1    
    23   11   12 ar   
    24   11  126 1    
    25   12   13 ar   
    26   12  137 1    
    27   13   14 ar   
    28   13   15 1    
    29   14  138 1    
    30   15   16 1    
    31   15  139 1    
    32   15  140 1    
    33   16   17 1    
    34   17   18 1    
    35   17  141 1    
    36   17  142 1    
    37   18   19 1    
    38   18   67 1    
    39   18  143 1    
    40   19   20 am   BACKBONE|DICT|INTERRES
    41   19  144 1    
    42   20   21 2    
    43   20   22 1    
    44   22   23 1    
    45   22   24 1    
    46   22  145 1    
    47   23  146 1    
    48   23  147 1    
    49   23  148 1    
    50   24   25 am   BACKBONE|DICT|INTERRES
    51   24  149 1    
    52   25   26 2    
    53   25   27 1    
    54   27   28 1    
    55   27   29 1    
    56   27  150 1    
    57   28  151 1    
    58   28  152 1    
    59   28  153 1    
    60   29   30 am   BACKBONE|DICT|INTERRES
    61   29  154 1    
    62   30   31 2    
    63   30   32 1    
    64   32   33 1    
    65   32   34 1    
    66   32  155 1    
    67   33  156 1    
    68   33  157 1    
    69   33  158 1    
    70   34   35 am   BACKBONE|DICT|INTERRES
    71   34  159 1    
    72   35   36 2    
    73   35   37 1    
    74   37   38 1    
    75   37   39 1    
    76   37  160 1    
    77   38  161 1    
    78   38  162 1    
    79   38  163 1    
    80   39   40 am   BACKBONE|DICT|INTERRES
    81   39  164 1    
    82   40   41 2    
    83   40   42 1    
    84   42   43 1    
    85   42   44 1    
    86   42  165 1    
    87   43  166 1    
    88   43  167 1    
    89   43  168 1    
    90   44   45 am   BACKBONE|DICT|INTERRES
    91   44  169 1    
    92   45   46 2    
    93   45   47 1    
    94   47   48 1    
    95   47   49 1    
    96   47  170 1    
    97   48  171 1    
    98   48  172 1    
    99   48  173 1    
   100   49   50 am   BACKBONE|DICT|INTERRES
   101   49  174 1    
   102   50   51 2    
   103   50   52 1    
   104   52   53 1    
   105   52   54 1    
   106   52  175 1    
   107   53  176 1    
   108   53  177 1    
   109   53  178 1    
   110   54   55 am   BACKBONE|DICT|INTERRES
   111   54  179 1    
   112   55   56 2    
   113   55   57 1    
   114   57   58 1    
   115   57   59 1    
   116   57  180 1    
   117   58  181 1    
   118   58  182 1    
   119   58  183 1    
   120   59   60 am   BACKBONE|DICT|INTERRES
   121   59  184 1    
   122   60   61 2    
   123   60   62 1    
   124   62   63 1    
   125   62   64 1    
   126   62  185 1    
   127   63  186 1    
   128   63  187 1    
   129   63  188 1    
   130   64   65 am   BACKBONE|DICT|INTERRES
   131   64  189 1    
   132   65   66 2    
   133   67   68 2    
   134   67   69 am   BACKBONE|DICT|INTERRES
   135   69   70 1    
   136   69  190 1    
   137   70   71 1    
   138   70   72 1    
   139   70  191 1    
   140   71  192 1    
   141   71  193 1    
   142   71  194 1    
   143   72   73 2    
   144   72   74 am   BACKBONE|DICT|INTERRES
   145   74   75 1    
   146   74  195 1    
   147   75   76 1    
   148   75   77 1    
   149   75  196 1    
   150   76  197 1    
   151   76  198 1    
   152   76  199 1    
   153   77   78 2    
   154   77   79 am   BACKBONE|DICT|INTERRES
   155   79   80 1    
   156   79  200 1    
   157   80   81 1    
   158   80   82 1    
   159   80  201 1    
   160   81  202 1    
   161   81  203 1    
   162   81  204 1    
   163   82   83 2    
   164   82   84 am   BACKBONE|DICT|INTERRES
   165   84   85 1    
   166   84  205 1    
   167   85   86 1    
   168   85   87 1    
   169   85  206 1    
   170   86  207 1    
   171   86  208 1    
   172   86  209 1    
   173   87   88 2    
   174   87   89 am   BACKBONE|DICT|INTERRES
   175   89   90 1    
   176   89  210 1    
   177   90   91 1    
   178   90   92 1    
   179   90  211 1    
   180   91  212 1    
   181   91  213 1    
   182   91  214 1    
   183   92   93 2    
   184   92   94 am   BACKBONE|DICT|INTERRES
   185   94   95 1    
   186   94  215 1    
   187   95   96 1    
   188   95   97 1    
   189   95  216 1    
   190   96  217 1    
   191   96  218 1    
   192   96  219 1    
   193   97   98 2    
   194   97   99 am   BACKBONE|DICT|INTERRES
   195   99  100 1    
   196   99  220 1    
   197  100  101 1    
   198  100  102 1    
   199  100  221 1    
   200  101  222 1    
   201  101  223 1    
   202  101  224 1    
   203  102  103 2    
   204  102  104 am   BACKBONE|DICT|INTERRES
   205  104  105 1    
   206  104  225 1    
   207  105  106 1    
   208  105  107 1    
   209  105  226 1    
   210  106  227 1    
   211  106  228 1    
   212  106  229 1    
   213  107  108 2    
   214  107  109 am   BACKBONE|DICT|INTERRES
   215  109  110 1    
   216  109  230 1    
   217  110  111 1    
   218  110  112 1    
   219  110  231 1    
   220  111  232 1    
   221  111  233 1    
   222  111  234 1    
   223  112  113 2    
   224  112  114 am   BACKBONE|DICT|INTERRES
   225  114  115 1    
   226  114  235 1    
   227  115  116 1    
   228  115  117 1    
   229  115  236 1    
   230  116  237 1    
   231  116  238 1    
   232  116  239 1    
   233  117  118 2    
   234  117  119 am   BACKBONE|DICT|INTERRES
   235  119  120 1    
   236  119  240 1    
   237  120  121 1    
   238  120  124 1    
   239  120  241 1    
   240  121  122 am   BACKBONE|DICT|INTERRES
   241  121  123 2    
   242  122  242 1    
   243  122  243 1    
   244  124  125 1    
   245  124  244 1    
   246  124  245 1    
   247  125  126 1    
   248  126  246 1    
   249  126  247 1    
@<TRIPOS>SUBSTRUCTURE
     1 UNK         1 GROUP             0       ****    0 ROOT    
