@<TRIPOS>MOLECULE
3R540
247   249    1
SMALL
USER_CHARGES


@<TRIPOS>ATOM
      1 CA          4.7364  -16.8250  -47.7035 C.3       0 UNK        -0.1800 
      2 C           3.3768  -16.4792  -47.1146 C.2       0 UNK         0.5000 
      3 O           2.6555  -17.3756  -46.6817 O.2       0 UNK        -0.5000 
      4 N           3.0283  -15.1882  -47.0968 N.am      1 UNK        -0.5000 
      5 CA          1.7830  -14.6518  -46.5371 C.3       1 UNK         0.1400 
      6 C6          0.7341  -14.2723  -47.6194 C.3       23 UNK        -0.0398 
      7 S7          0.1023  -15.7141  -48.5451 S.3       23 UNK        -0.2404 
      8 C8          1.1222  -15.6396  -50.0478 C.3       23 UNK        -0.0205 
      9 C9          1.1095  -16.9592  -50.8042 C.ar      23 UNK        -0.0193 
     10 C10         0.4265  -17.0795  -52.0180 C.ar      23 UNK        -0.1150 
     11 C11         0.4688  -18.2767  -52.7407 C.ar      23 UNK        -0.0193 
     12 C12         1.1978  -19.3584  -52.2358 C.ar      23 UNK        -0.1150 
     13 C13         1.8894  -19.2487  -51.0256 C.ar      23 UNK        -0.0193 
     14 C14         1.8298  -18.0506  -50.3107 C.ar      23 UNK        -0.1150 
     15 C15         2.7573  -20.3947  -50.5229 C.3       23 UNK        -0.0205 
     16 S16         1.8131  -21.9191  -50.2277 S.3       23 UNK        -0.2404 
     17 C17         0.8537  -21.4724  -48.7450 C.3       23 UNK        -0.0398 
     18 CA          0.3804  -22.7427  -48.0064 C.3       11 UNK         0.1400 
     19 N           1.4830  -23.5059  -47.4197 N.am      11 UNK        -0.5000 
     20 C           1.3991  -24.7975  -47.0730 C.2       10 UNK         0.5000 
     21 O           0.3797  -25.4722  -47.2182 O.2       10 UNK        -0.5000 
     22 CA          2.6438  -25.4328  -46.4236 C.3       10 UNK         0.1400 
     23 CB          3.4896  -26.1555  -47.4823 C.3       10 UNK        -0.1800 
     24 N           3.4878  -24.4693  -45.7109 N.am      10 UNK        -0.5000 
     25 C           3.1066  -23.7703  -44.6331 C.2       9 UNK         0.5000 
     26 O           1.9962  -23.8907  -44.1129 O.2       9 UNK        -0.5000 
     27 CA          4.1161  -22.7629  -44.0396 C.3       9 UNK         0.1400 
     28 CB          5.3208  -22.4623  -44.9609 C.3       9 UNK        -0.1800 
     29 N           3.4759  -21.5099  -43.6223 N.am      9 UNK        -0.5000 
     30 C           2.7675  -20.6713  -44.3922 C.2       8 UNK         0.5000 
     31 O           2.5236  -20.8718  -45.5860 O.2       8 UNK        -0.5000 
     32 CA          2.2706  -19.3901  -43.6969 C.3       8 UNK         0.1400 
     33 CB          3.4504  -18.4603  -43.3628 C.3       8 UNK        -0.1800 
     34 N           1.3605  -18.6626  -44.5733 N.am      8 UNK        -0.5000 
     35 C           0.0441  -18.5331  -44.4055 C.2       7 UNK         0.5000 
     36 O          -0.5801  -18.9705  -43.4360 O.2       7 UNK        -0.5000 
     37 CA         -0.7006  -17.8077  -45.5360 C.3       7 UNK         0.1400 
     38 CB         -0.9695  -18.7585  -46.7058 C.3       7 UNK        -0.1800 
     39 N          -1.9704  -17.2707  -45.0581 N.am      7 UNK        -0.5000 
     40 C          -2.1293  -16.0486  -44.5418 C.2       6 UNK         0.5000 
     41 O          -1.2425  -15.1897  -44.4962 O.2       6 UNK        -0.5000 
     42 CA         -3.5196  -15.7551  -43.9615 C.3       6 UNK         0.1400 
     43 CB         -3.7346  -16.4985  -42.6303 C.3       6 UNK        -0.1800 
     44 N          -3.6666  -14.3214  -43.7474 N.am      6 UNK        -0.5000 
     45 C          -4.8208  -13.6449  -43.7675 C.2       5 UNK         0.5000 
     46 O          -5.9145  -14.1742  -43.9705 O.2       5 UNK        -0.5000 
     47 CA         -4.7590  -12.1268  -43.5040 C.3       5 UNK         0.1400 
     48 CB         -5.3495  -11.7973  -42.1239 C.3       5 UNK        -0.1800 
     49 N          -3.4014  -11.5865  -43.5660 N.am      5 UNK        -0.5000 
     50 C          -2.7226  -11.3054  -44.6825 C.2       4 UNK         0.5000 
     51 O          -3.1882  -11.4399  -45.8142 O.2       4 UNK        -0.5000 
     52 CA         -1.2735  -10.8124  -44.5090 C.3       4 UNK         0.1400 
     53 CB         -1.2292   -9.3227  -44.1201 C.3       4 UNK        -0.1800 
     54 N          -0.4583  -11.6317  -43.6008 N.am      4 UNK        -0.5000 
     55 C          -0.5670  -11.8100  -42.2737 C.2       3 UNK         0.5000 
     56 O          -1.4403  -11.2829  -41.5835 O.2       3 UNK        -0.5000 
     57 CA          0.4481  -12.7536  -41.5944 C.3       3 UNK         0.1400 
     58 CB         -0.2379  -14.0547  -41.1467 C.3       3 UNK        -0.1800 
     59 N           1.5883  -13.0901  -42.4487 N.am      3 UNK        -0.5000 
     60 C           2.6173  -12.2710  -42.7078 C.2       2 UNK         0.5000 
     61 O           2.7585  -11.1659  -42.1833 O.2       2 UNK        -0.5000 
     62 CA          3.6498  -12.7542  -43.7470 C.3       2 UNK         0.1400 
     63 CB          4.8682  -13.3734  -43.0452 C.3       2 UNK        -0.1800 
     64 N           3.1221  -13.7195  -44.7177 N.am      2 UNK        -0.5000 
     65 C           2.1381  -13.4852  -45.5992 C.2       1 UNK         0.5000 
     66 O           1.5395  -12.4123  -45.6777 O.2       1 UNK        -0.5000 
     67 C          -0.7337  -22.4356  -46.9872 C.2       11 UNK         0.5000 
     68 O          -1.8722  -22.2291  -47.4061 O.2       11 UNK        -0.5000 
     69 N          -0.4308  -22.4691  -45.6791 N.am      12 UNK        -0.5000 
     70 CA         -1.4292  -22.3804  -44.6095 C.3       12 UNK         0.1400 
     71 CB         -0.7359  -22.3202  -43.2402 C.3       12 UNK        -0.1800 
     72 C          -2.4149  -23.5616  -44.6625 C.2       12 UNK         0.5000 
     73 O          -3.6278  -23.3510  -44.6125 O.2       12 UNK        -0.5000 
     74 N          -1.8634  -24.7731  -44.8311 N.am      13 UNK        -0.5000 
     75 CA         -2.6087  -26.0205  -45.0018 C.3       13 UNK         0.1400 
     76 CB         -1.6500  -27.2119  -44.8587 C.3       13 UNK        -0.1800 
     77 C          -3.3695  -26.0859  -46.3392 C.2       13 UNK         0.5000 
     78 O          -4.4293  -26.7096  -46.3994 O.2       13 UNK        -0.5000 
     79 N          -2.8635  -25.3941  -47.3705 N.am      14 UNK        -0.5000 
     80 CA         -3.4979  -25.2151  -48.6807 C.3       14 UNK         0.1400 
     81 CB         -2.4181  -24.8775  -49.7255 C.3       14 UNK        -0.1800 
     82 C          -4.6290  -24.1607  -48.6505 C.2       14 UNK         0.5000 
     83 O          -4.7140  -23.3219  -49.5511 O.2       14 UNK        -0.5000 
     84 N          -5.4787  -24.2283  -47.6158 N.am      15 UNK        -0.5000 
     85 CA         -6.6482  -23.3863  -47.3538 C.3       15 UNK         0.1400 
     86 CB         -7.7680  -23.7183  -48.3623 C.3       15 UNK        -0.1800 
     87 C          -6.3097  -21.8822  -47.2969 C.2       15 UNK         0.5000 
     88 O          -7.0210  -21.0713  -47.8895 O.2       15 UNK        -0.5000 
     89 N          -5.2068  -21.5405  -46.6119 N.am      16 UNK        -0.5000 
     90 CA         -4.6270  -20.1939  -46.5180 C.3       16 UNK         0.1400 
     91 CB         -5.5146  -19.2707  -45.6581 C.3       16 UNK        -0.1800 
     92 C          -4.2994  -19.6064  -47.9094 C.2       16 UNK         0.5000 
     93 O          -4.7360  -18.5060  -48.2481 O.2       16 UNK        -0.5000 
     94 N          -3.5623  -20.4022  -48.6934 N.am      17 UNK        -0.5000 
     95 CA         -3.1357  -20.2055  -50.0802 C.3       17 UNK         0.1400 
     96 CB         -2.2541  -18.9501  -50.2393 C.3       17 UNK        -0.1800 
     97 C          -4.2598  -20.2516  -51.1348 C.2       17 UNK         0.5000 
     98 O          -3.9535  -20.1187  -52.3200 O.2       17 UNK        -0.5000 
     99 N          -5.5207  -20.4825  -50.7412 N.am      18 UNK        -0.5000 
    100 CA        -6.6526  -20.5645  -51.6689 C.3       18 UNK         0.1400 
    101 CB        -7.9774  -20.5113  -50.8962 C.3       18 UNK        -0.1800 
    102 C         -6.6026  -21.8049  -52.5805 C.2       18 UNK         0.5000 
    103 O         -7.0339  -21.7177  -53.7307 O.2       18 UNK        -0.5000 
    104 N         -6.0596  -22.9217  -52.0730 N.am      19 UNK        -0.5000 
    105 CA        -5.8399  -24.1414  -52.8536 C.3       19 UNK         0.1400 
    106 CB        -5.9295  -25.3704  -51.9364 C.3       19 UNK        -0.1800 
    107 C         -4.4953  -24.1104  -53.6050 C.2       19 UNK         0.5000 
    108 O         -4.3580  -24.8062  -54.6117 O.2       19 UNK        -0.5000 
    109 N         -3.5355  -23.3036  -53.1238 N.am      20 UNK        -0.5000 
    110 CA        -2.2679  -23.0331  -53.8092 C.3       20 UNK         0.1400 
    111 CB        -1.2666  -22.3874  -52.8364 C.3       20 UNK        -0.1800 
    112 C         -2.4871  -22.1469  -55.0496 C.2       20 UNK         0.5000 
    113 O         -1.9339  -22.4344  -56.1117 O.2       20 UNK        -0.5000 
    114 N         -3.3251  -21.1123  -54.8873 N.am      21 UNK        -0.5000 
    115 CA        -3.8900  -20.1890  -55.8769 C.3       21 UNK         0.1400 
    116 CB        -4.7408  -20.9471  -56.9127 C.3       21 UNK        -0.1800 
    117 C         -2.8856  -19.2472  -56.5679 C.2       21 UNK         0.5000 
    118 O         -3.1968  -18.0675  -56.7339 O.2       21 UNK        -0.5000 
    119 N         -1.7182  -19.7701  -56.9624 N.am      22 UNK        -0.5000 
    120 CA        -0.6474  -19.0738  -57.7004 C.3       22 UNK         0.1400 
    121 C         -1.0387  -18.6355  -59.1482 C.2       22 UNK         0.5000 
    122 N         -2.0769  -19.2011  -59.7527 N.am      22 UNK        -0.7600 
    123 O         -0.3761  -17.7969  -59.7537 O.2       22 UNK        -0.5000 
    124 C124        0.0063  -17.9266  -56.8770 C.3       23 UNK        -0.0398 
    125 S125        0.9523  -18.5360  -55.4413 S.3       23 UNK        -0.2404 
    126 C126       -0.2470  -18.3923  -54.0786 C.3       23 UNK        -0.0205 
    127 H127        5.3593  -17.3033  -46.9477 H         1 UNK         0.0600 
    128 H128        4.6206  -17.5172  -48.5372 H         1 UNK         0.0600 
    129 H129        5.2588  -15.9397  -48.0664 H         1 UNK         0.0600 
    130 H130        3.6731  -14.4951  -47.4515 H         1 UNK         0.3000 
    131 H131        1.3331  -15.3874  -45.8733 H         1 UNK         0.0600 
    132 H132        1.1408  -13.5346  -48.3128 H         1 UNK         0.0800 
    133 H133       -0.1336  -13.8027  -47.1519 H         1 UNK         0.0800 
    134 H134        2.1521  -15.3964  -49.7850 H         1 UNK         0.0800 
    135 H135        0.7664  -14.8253  -50.6807 H         1 UNK         0.0800 
    136 H136       -0.1239  -16.2351  -52.4083 H         1 UNK         0.1150 
    137 H137        1.2494  -20.2788  -52.8002 H         1 UNK         0.1150 
    138 H138        2.3631  -17.9570  -49.3770 H         1 UNK         0.1150 
    139 H139        3.5250  -20.6007  -51.2697 H         1 UNK         0.0800 
    140 H140        3.2871  -20.1173  -49.6100 H         1 UNK         0.0800 
    141 H141        1.4522  -20.8396  -48.0876 H         1 UNK         0.0800 
    142 H142        0.0053  -20.8712  -49.0745 H         1 UNK         0.0800 
    143 H143       -0.0789  -23.3871  -48.7562 H         1 UNK         0.0600 
    144 H144        2.3400  -23.0012  -47.2424 H         1 UNK         0.3000 
    145 H145        2.2934  -26.1724  -45.7006 H         1 UNK         0.0600 
    146 H146        4.3307  -26.6786  -47.0268 H         1 UNK         0.0600 
    147 H147        2.8957  -26.8998  -48.0147 H         1 UNK         0.0600 
    148 H148        3.8861  -25.4606  -48.2238 H         1 UNK         0.0600 
    149 H149        4.4127  -24.3148  -46.0850 H         1 UNK         0.3000 
    150 H150        4.5024  -23.2264  -43.1309 H         1 UNK         0.0600 
    151 H151        5.9129  -23.3585  -45.1496 H         1 UNK         0.0600 
    152 H152        5.9897  -21.7349  -44.5005 H         1 UNK         0.0600 
    153 H153        5.0081  -22.0566  -45.9239 H         1 UNK         0.0600 
    154 H154        3.5895  -21.2782  -42.6458 H         1 UNK         0.3000 
    155 H155        1.7685  -19.6742  -42.7700 H         1 UNK         0.0600 
    156 H156        4.1427  -18.9305  -42.6637 H         1 UNK         0.0600 
    157 H157        3.1034  -17.5362  -42.8999 H         1 UNK         0.0600 
    158 H158        4.0165  -18.1931  -44.2563 H         1 UNK         0.0600 
    159 H159        1.7871  -18.3068  -45.4294 H         1 UNK         0.3000 
    160 H160       -0.0782  -16.9967  -45.9035 H         1 UNK         0.0600 
    161 H161       -1.4967  -19.6543  -46.3856 H         1 UNK         0.0600 
    162 H162       -0.0349  -19.0702  -47.1727 H         1 UNK         0.0600 
    163 H163       -1.5670  -18.2653  -47.4710 H         1 UNK         0.0600 
    164 H164       -2.7270  -17.9317  -44.9806 H         1 UNK         0.3000 
    165 H165       -4.2613  -16.0877  -44.6905 H         1 UNK         0.0600 
    166 H166       -3.0082  -16.1882  -41.8781 H         1 UNK         0.0600 
    167 H167       -4.7311  -16.3123  -42.2295 H         1 UNK         0.0600 
    168 H168       -3.6353  -17.5772  -42.7572 H         1 UNK         0.0600 
    169 H169       -2.7957  -13.8173  -43.6471 H         1 UNK         0.3000 
    170 H170       -5.3689  -11.6355  -44.2649 H         1 UNK         0.0600 
    171 H171       -6.3769  -12.1543  -42.0405 H         1 UNK         0.0600 
    172 H172       -4.7740  -12.2594  -41.3207 H         1 UNK         0.0600 
    173 H173       -5.3657  -10.7214  -41.9488 H         1 UNK         0.0600 
    174 H174       -2.9164  -11.4503  -42.6818 H         1 UNK         0.3000 
    175 H175       -0.7974  -10.9038  -45.4866 H         1 UNK         0.0600 
    176 H176       -1.7031   -9.1351  -43.1563 H         1 UNK         0.0600 
    177 H177       -0.2021   -8.9619  -44.0646 H         1 UNK         0.0600 
    178 H178       -1.7485   -8.7133  -44.8607 H         1 UNK         0.0600 
    179 H179        0.2964  -12.1187  -44.0713 H         1 UNK         0.3000 
    180 H180        0.8180  -12.2428  -40.7029 H         1 UNK         0.0600 
    181 H181       -1.0808  -13.8473  -40.4861 H         1 UNK         0.0600 
    182 H182       -0.6194  -14.6237  -41.9938 H         1 UNK         0.0600 
    183 H183        0.4525  -14.6950  -40.5975 H         1 UNK         0.0600 
    184 H184        1.5536  -13.9823  -42.9195 H         1 UNK         0.3000 
    185 H185        3.9844  -11.8759  -44.3028 H         1 UNK         0.0600 
    186 H186        5.3071  -12.6736  -42.3327 H         1 UNK         0.0600 
    187 H187        4.5998  -14.2765  -42.4955 H         1 UNK         0.0600 
    188 H188        5.6468  -13.6346  -43.7622 H         1 UNK         0.0600 
    189 H189        3.5660  -14.6265  -44.7314 H         1 UNK         0.3000 
    190 H190        0.5237  -22.6601  -45.4000 H         1 UNK         0.3000 
    191 H191       -1.9894  -21.4544  -44.7465 H         1 UNK         0.0600 
    192 H192       -1.4529  -22.0737  -42.4565 H         1 UNK         0.0600 
    193 H193        0.0422  -21.5591  -43.2193 H         1 UNK         0.0600 
    194 H194       -0.2757  -23.2710  -42.9711 H         1 UNK         0.0600 
    195 H195       -0.8574  -24.8378  -44.8962 H         1 UNK         0.3000 
    196 H196       -3.3478  -26.0813  -44.2003 H         1 UNK         0.0600 
    197 H197       -2.1900  -28.1567  -44.9324 H         1 UNK         0.0600 
    198 H198       -1.1472  -27.2004  -43.8915 H         1 UNK         0.0600 
    199 H199       -0.8848  -27.2120  -45.6351 H         1 UNK         0.0600 
    200 H200       -1.9868  -24.9123  -47.2282 H         1 UNK         0.3000 
    201 H201       -3.9516  -26.1646  -48.9713 H         1 UNK         0.0600 
    202 H202       -1.5526  -25.5345  -49.6374 H         1 UNK         0.0600 
    203 H203       -2.0763  -23.8481  -49.6292 H         1 UNK         0.0600 
    204 H204       -2.8060  -24.9888  -50.7379 H         1 UNK         0.0600 
    205 H205       -5.3160  -24.9728  -46.9467 H         1 UNK         0.3000 
    206 H206       -7.0077  -23.6533  -46.3592 H         1 UNK         0.0600 
    207 H207       -8.0339  -24.7744  -48.3185 H         1 UNK         0.0600 
    208 H208       -8.6734  -23.1487  -48.1499 H         1 UNK         0.0600 
    209 H209       -7.4697  -23.4947  -49.3864 H         1 UNK         0.0600 
    210 H210       -4.6812  -22.2784  -46.1554 H         1 UNK         0.3000 
    211 H211       -3.6778  -20.3085  -45.9967 H         1 UNK         0.0600 
    212 H212       -6.4899  -19.1023  -46.1156 H         1 UNK         0.0600 
    213 H213       -5.0480  -18.2952  -45.5225 H         1 UNK         0.0600 
    214 H214       -5.6782  -19.6938  -44.6670 H         1 UNK         0.0600 
    215 H215       -3.2337  -21.2726  -48.2810 H         1 UNK         0.3000 
    216 H216       -2.5055  -21.0678  -50.3003 H         1 UNK         0.0600 
    217 H217       -2.7807  -18.0370  -49.9628 H         1 UNK         0.0600 
    218 H218       -1.9266  -18.8300  -51.2717 H         1 UNK         0.0600 
    219 H219       -1.3514  -19.0164  -49.6349 H         1 UNK         0.0600 
    220 H220       -5.7184  -20.6139  -49.7572 H         1 UNK         0.3000 
    221 H221       -6.6128  -19.6840  -52.3138 H         1 UNK         0.0600 
    222 H222       -8.1220  -21.3984  -50.2811 H         1 UNK         0.0600 
    223 H223       -8.0219  -19.6385  -50.2444 H         1 UNK         0.0600 
    224 H224       -8.8238  -20.4505  -51.5813 H         1 UNK         0.0600 
    225 H225       -5.7042  -22.9186  -51.1194 H         1 UNK         0.3000 
    226 H226       -6.6316  -24.2353  -53.6000 H         1 UNK         0.0600 
    227 H227       -6.8499  -25.3647  -51.3522 H         1 UNK         0.0600 
    228 H228       -5.9211  -26.2899  -52.5228 H         1 UNK         0.0600 
    229 H229       -5.0913  -25.4233  -51.2453 H         1 UNK         0.0600 
    230 H230       -3.7408  -22.7587  -52.3004 H         1 UNK         0.3000 
    231 H231       -1.8480  -23.9847  -54.1419 H         1 UNK         0.0600 
    232 H232       -1.5816  -21.3932  -52.5214 H         1 UNK         0.0600 
    233 H233       -1.1285  -22.9967  -51.9432 H         1 UNK         0.0600 
    234 H234       -0.2889  -22.2792  -53.3072 H         1 UNK         0.0600 
    235 H235       -3.6361  -20.9199  -53.9370 H         1 UNK         0.3000 
    236 H236       -4.5683  -19.5495  -55.3093 H         1 UNK         0.0600 
    237 H237       -5.5177  -21.5363  -56.4247 H         1 UNK         0.0600 
    238 H238       -5.2377  -20.2534  -57.5920 H         1 UNK         0.0600 
    239 H239       -4.1386  -21.6239  -57.5193 H         1 UNK         0.0600 
    240 H240       -1.5734  -20.7615  -56.7863 H         1 UNK         0.3000 
    241 H241        0.1230  -19.8284  -57.8619 H         1 UNK         0.0600 
    242 H242       -2.3168  -18.9226  -60.6914 H         1 UNK         0.3800 
    243 H243       -2.6217  -19.9064  -59.2835 H         1 UNK         0.3800 
    244 H244        0.7246  -17.3784  -57.4883 H         1 UNK         0.0800 
    245 H245       -0.7311  -17.1875  -56.5639 H         1 UNK         0.0800 
    246 H246       -0.8919  -17.5273  -54.2394 H         1 UNK         0.0800 
    247 H247       -0.8974  -19.2679  -54.0718 H         1 UNK         0.0800 
@<TRIPOS>BOND
     1    1    2 1    
     2    1  127 1    
     3    1  128 1    
     4    1  129 1    
     5    2    3 2    
     6    2    4 am   BACKBONE|DICT|INTERRES
     7    4    5 1    
     8    4  130 1    
     9    5    6 1    
    10    5   65 1    
    11    5  131 1    
    12    6    7 1    
    13    6  132 1    
    14    6  133 1    
    15    7    8 1    
    16    8    9 1    
    17    8  134 1    
    18    8  135 1    
    19    9   10 ar   
    20    9   14 ar   
    21   10   11 ar   
    22   10  136 1    
    23   11   12 ar   
    24   11  126 1    
    25   12   13 ar   
    26   12  137 1    
    27   13   14 ar   
    28   13   15 1    
    29   14  138 1    
    30   15   16 1    
    31   15  139 1    
    32   15  140 1    
    33   16   17 1    
    34   17   18 1    
    35   17  141 1    
    36   17  142 1    
    37   18   19 1    
    38   18   67 1    
    39   18  143 1    
    40   19   20 am   BACKBONE|DICT|INTERRES
    41   19  144 1    
    42   20   21 2    
    43   20   22 1    
    44   22   23 1    
    45   22   24 1    
    46   22  145 1    
    47   23  146 1    
    48   23  147 1    
    49   23  148 1    
    50   24   25 am   BACKBONE|DICT|INTERRES
    51   24  149 1    
    52   25   26 2    
    53   25   27 1    
    54   27   28 1    
    55   27   29 1    
    56   27  150 1    
    57   28  151 1    
    58   28  152 1    
    59   28  153 1    
    60   29   30 am   BACKBONE|DICT|INTERRES
    61   29  154 1    
    62   30   31 2    
    63   30   32 1    
    64   32   33 1    
    65   32   34 1    
    66   32  155 1    
    67   33  156 1    
    68   33  157 1    
    69   33  158 1    
    70   34   35 am   BACKBONE|DICT|INTERRES
    71   34  159 1    
    72   35   36 2    
    73   35   37 1    
    74   37   38 1    
    75   37   39 1    
    76   37  160 1    
    77   38  161 1    
    78   38  162 1    
    79   38  163 1    
    80   39   40 am   BACKBONE|DICT|INTERRES
    81   39  164 1    
    82   40   41 2    
    83   40   42 1    
    84   42   43 1    
    85   42   44 1    
    86   42  165 1    
    87   43  166 1    
    88   43  167 1    
    89   43  168 1    
    90   44   45 am   BACKBONE|DICT|INTERRES
    91   44  169 1    
    92   45   46 2    
    93   45   47 1    
    94   47   48 1    
    95   47   49 1    
    96   47  170 1    
    97   48  171 1    
    98   48  172 1    
    99   48  173 1    
   100   49   50 am   BACKBONE|DICT|INTERRES
   101   49  174 1    
   102   50   51 2    
   103   50   52 1    
   104   52   53 1    
   105   52   54 1    
   106   52  175 1    
   107   53  176 1    
   108   53  177 1    
   109   53  178 1    
   110   54   55 am   BACKBONE|DICT|INTERRES
   111   54  179 1    
   112   55   56 2    
   113   55   57 1    
   114   57   58 1    
   115   57   59 1    
   116   57  180 1    
   117   58  181 1    
   118   58  182 1    
   119   58  183 1    
   120   59   60 am   BACKBONE|DICT|INTERRES
   121   59  184 1    
   122   60   61 2    
   123   60   62 1    
   124   62   63 1    
   125   62   64 1    
   126   62  185 1    
   127   63  186 1    
   128   63  187 1    
   129   63  188 1    
   130   64   65 am   BACKBONE|DICT|INTERRES
   131   64  189 1    
   132   65   66 2    
   133   67   68 2    
   134   67   69 am   BACKBONE|DICT|INTERRES
   135   69   70 1    
   136   69  190 1    
   137   70   71 1    
   138   70   72 1    
   139   70  191 1    
   140   71  192 1    
   141   71  193 1    
   142   71  194 1    
   143   72   73 2    
   144   72   74 am   BACKBONE|DICT|INTERRES
   145   74   75 1    
   146   74  195 1    
   147   75   76 1    
   148   75   77 1    
   149   75  196 1    
   150   76  197 1    
   151   76  198 1    
   152   76  199 1    
   153   77   78 2    
   154   77   79 am   BACKBONE|DICT|INTERRES
   155   79   80 1    
   156   79  200 1    
   157   80   81 1    
   158   80   82 1    
   159   80  201 1    
   160   81  202 1    
   161   81  203 1    
   162   81  204 1    
   163   82   83 2    
   164   82   84 am   BACKBONE|DICT|INTERRES
   165   84   85 1    
   166   84  205 1    
   167   85   86 1    
   168   85   87 1    
   169   85  206 1    
   170   86  207 1    
   171   86  208 1    
   172   86  209 1    
   173   87   88 2    
   174   87   89 am   BACKBONE|DICT|INTERRES
   175   89   90 1    
   176   89  210 1    
   177   90   91 1    
   178   90   92 1    
   179   90  211 1    
   180   91  212 1    
   181   91  213 1    
   182   91  214 1    
   183   92   93 2    
   184   92   94 am   BACKBONE|DICT|INTERRES
   185   94   95 1    
   186   94  215 1    
   187   95   96 1    
   188   95   97 1    
   189   95  216 1    
   190   96  217 1    
   191   96  218 1    
   192   96  219 1    
   193   97   98 2    
   194   97   99 am   BACKBONE|DICT|INTERRES
   195   99  100 1    
   196   99  220 1    
   197  100  101 1    
   198  100  102 1    
   199  100  221 1    
   200  101  222 1    
   201  101  223 1    
   202  101  224 1    
   203  102  103 2    
   204  102  104 am   BACKBONE|DICT|INTERRES
   205  104  105 1    
   206  104  225 1    
   207  105  106 1    
   208  105  107 1    
   209  105  226 1    
   210  106  227 1    
   211  106  228 1    
   212  106  229 1    
   213  107  108 2    
   214  107  109 am   BACKBONE|DICT|INTERRES
   215  109  110 1    
   216  109  230 1    
   217  110  111 1    
   218  110  112 1    
   219  110  231 1    
   220  111  232 1    
   221  111  233 1    
   222  111  234 1    
   223  112  113 2    
   224  112  114 am   BACKBONE|DICT|INTERRES
   225  114  115 1    
   226  114  235 1    
   227  115  116 1    
   228  115  117 1    
   229  115  236 1    
   230  116  237 1    
   231  116  238 1    
   232  116  239 1    
   233  117  118 2    
   234  117  119 am   BACKBONE|DICT|INTERRES
   235  119  120 1    
   236  119  240 1    
   237  120  121 1    
   238  120  124 1    
   239  120  241 1    
   240  121  122 am   BACKBONE|DICT|INTERRES
   241  121  123 2    
   242  122  242 1    
   243  122  243 1    
   244  124  125 1    
   245  124  244 1    
   246  124  245 1    
   247  125  126 1    
   248  126  246 1    
   249  126  247 1    
@<TRIPOS>SUBSTRUCTURE
     1 UNK         1 GROUP             0       ****    0 ROOT    
