@<TRIPOS>MOLECULE
3R540
247   249    1
SMALL
USER_CHARGES


@<TRIPOS>ATOM
      1 CA          1.7007  -14.0558  -53.1557 C.3       0 UNK        -0.1800 
      2 C           2.1440  -13.2555  -51.9403 C.2       0 UNK         0.5000 
      3 O           2.9722  -12.3538  -52.0695 O.2       0 UNK        -0.5000 
      4 N           1.5992  -13.5793  -50.7647 N.am      1 UNK        -0.5000 
      5 CA          1.9252  -12.9423  -49.4864 C.3       1 UNK         0.1400 
      6 C6          3.2450  -13.4615  -48.8507 C.3       23 UNK        -0.0398 
      7 S7          3.3072  -15.2779  -48.6602 S.3       23 UNK        -0.2404 
      8 C8          4.5187  -15.7005  -49.9477 C.3       23 UNK        -0.0205 
      9 C9          4.4158  -17.1658  -50.3252 C.ar      23 UNK        -0.0193 
     10 C10         3.6708  -17.5489  -51.4440 C.ar      23 UNK        -0.1150 
     11 C11         3.5531  -18.8984  -51.7852 C.ar      23 UNK        -0.0193 
     12 C12         4.2045  -19.8619  -51.0143 C.ar      23 UNK        -0.1150 
     13 C13         4.9188  -19.4933  -49.8716 C.ar      23 UNK        -0.0193 
     14 C14         5.0381  -18.1411  -49.5412 C.ar      23 UNK        -0.1150 
     15 C15         5.5042  -20.5617  -48.9620 C.3       23 UNK        -0.0205 
     16 S16         4.4310  -20.8571  -47.5173 S.3       23 UNK        -0.2404 
     17 C17         2.8588  -21.3540  -48.3071 C.3       23 UNK        -0.0398 
     18 CA          2.1912  -22.5485  -47.5959 C.3       11 UNK         0.1400 
     19 N           1.7094  -22.2040  -46.2575 N.am      11 UNK        -0.5000 
     20 C           1.4389  -23.1043  -45.3040 C.2       10 UNK         0.5000 
     21 O           1.6319  -24.3134  -45.4291 O.2       10 UNK        -0.5000 
     22 CA          0.8260  -22.5723  -43.9968 C.3       10 UNK         0.1400 
     23 CB          1.9231  -22.0893  -43.0364 C.3       10 UNK        -0.1800 
     24 N          -0.1453  -21.5004  -44.2168 N.am      10 UNK        -0.5000 
     25 C          -1.3020  -21.6491  -44.8786 C.2       9 UNK         0.5000 
     26 O          -1.6871  -22.7150  -45.3631 O.2       9 UNK        -0.5000 
     27 CA         -2.1626  -20.3866  -45.0481 C.3       9 UNK         0.1400 
     28 CB         -2.9163  -20.0841  -43.7442 C.3       9 UNK        -0.1800 
     29 N          -1.3910  -19.2117  -45.4551 N.am      9 UNK        -0.5000 
     30 C          -0.6943  -19.1013  -46.5962 C.2       8 UNK         0.5000 
     31 O          -0.6452  -19.9788  -47.4558 O.2       8 UNK        -0.5000 
     32 CA          0.1461  -17.8238  -46.7795 C.3       8 UNK         0.1400 
     33 CB         -0.7293  -16.6372  -47.2055 C.3       8 UNK        -0.1800 
     34 N           0.8985  -17.4753  -45.5749 N.am      8 UNK        -0.5000 
     35 C           1.8103  -18.2691  -44.9950 C.2       7 UNK         0.5000 
     36 O           2.1396  -19.3720  -45.4302 O.2       7 UNK        -0.5000 
     37 CA          2.4021  -17.7731  -43.6676 C.3       7 UNK         0.1400 
     38 CB          3.4902  -16.7146  -43.9072 C.3       7 UNK        -0.1800 
     39 N           1.3607  -17.2336  -42.7932 N.am      7 UNK        -0.5000 
     40 C           0.4494  -17.9849  -42.1589 C.2       6 UNK         0.5000 
     41 O           0.4171  -19.2142  -42.2183 O.2       6 UNK        -0.5000 
     42 CA         -0.6249  -17.2377  -41.3459 C.3       6 UNK         0.1400 
     43 CB         -0.0979  -16.8858  -39.9468 C.3       6 UNK        -0.1800 
     44 N          -1.1002  -16.0204  -42.0055 N.am      6 UNK        -0.5000 
     45 C          -1.7935  -16.0068  -43.1521 C.2       5 UNK         0.5000 
     46 O          -2.1185  -17.0207  -43.7656 O.2       5 UNK        -0.5000 
     47 CA         -2.1493  -14.6309  -43.7409 C.3       5 UNK         0.1400 
     48 CB         -3.4617  -14.1091  -43.1381 C.3       5 UNK        -0.1800 
     49 N          -1.1109  -13.6087  -43.5924 N.am      5 UNK        -0.5000 
     50 C           0.1674  -13.7234  -43.9779 C.2       4 UNK         0.5000 
     51 O           0.6744  -14.7745  -44.3736 O.2       4 UNK        -0.5000 
     52 CA          0.9786  -12.4180  -43.9686 C.3       4 UNK         0.1400 
     53 CB          2.4742  -12.6450  -44.2553 C.3       4 UNK        -0.1800 
     54 N           0.4194  -11.5533  -45.0025 N.am      4 UNK        -0.5000 
     55 C          -0.4645  -10.5666  -44.8037 C.2       3 UNK         0.5000 
     56 O          -0.8100  -10.1777  -43.6875 O.2       3 UNK        -0.5000 
     57 CA         -1.1048   -9.9347  -46.0583 C.3       3 UNK         0.1400 
     58 CB         -0.3136   -8.6941  -46.4991 C.3       3 UNK        -0.1800 
     59 N          -1.2018  -10.8650  -47.1861 N.am      3 UNK        -0.5000 
     60 C          -1.9734  -11.9619  -47.2155 C.2       2 UNK         0.5000 
     61 O          -2.7890  -12.2427  -46.3371 O.2       2 UNK        -0.5000 
     62 CA         -1.7899  -12.9248  -48.4094 C.3       2 UNK         0.1400 
     63 CB         -2.9159  -12.7287  -49.4356 C.3       2 UNK        -0.1800 
     64 N          -0.4985  -12.8303  -49.1029 N.am      2 UNK        -0.5000 
     65 C           0.7097  -12.9961  -48.5430 C.2       1 UNK         0.5000 
     66 O           0.8745  -13.1568  -47.3354 O.2       1 UNK        -0.5000 
     67 C           1.0752  -23.1551  -48.4736 C.2       11 UNK         0.5000 
     68 O           1.3584  -24.0841  -49.2313 O.2       11 UNK        -0.5000 
     69 N          -0.1598  -22.6386  -48.3629 N.am      12 UNK        -0.5000 
     70 CA         -1.3406  -23.1429  -49.0705 C.3       12 UNK         0.1400 
     71 CB         -2.5382  -22.2066  -48.8412 C.3       12 UNK        -0.1800 
     72 C          -1.6890  -24.5870  -48.6721 C.2       12 UNK         0.5000 
     73 O          -1.9136  -25.4151  -49.5556 O.2       12 UNK        -0.5000 
     74 N          -1.6805  -24.8613  -47.3575 N.am      13 UNK        -0.5000 
     75 CA         -1.8167  -26.1736  -46.7176 C.3       13 UNK         0.1400 
     76 CB         -0.4993  -26.9654  -46.8659 C.3       13 UNK        -0.1800 
     77 C          -3.0544  -26.9537  -47.2072 C.2       13 UNK         0.5000 
     78 O          -4.1661  -26.6594  -46.7695 O.2       13 UNK        -0.5000 
     79 N          -2.8455  -27.9071  -48.1264 N.am      14 UNK        -0.5000 
     80 CA         -3.8792  -28.7159  -48.7742 C.3       14 UNK         0.1400 
     81 CB         -3.2025  -29.7811  -49.6497 C.3       14 UNK        -0.1800 
     82 C          -4.8901  -27.8992  -49.6041 C.2       14 UNK         0.5000 
     83 O          -6.0290  -28.3417  -49.7638 O.2       14 UNK        -0.5000 
     84 N          -4.4925  -26.7102  -50.0817 N.am      15 UNK        -0.5000 
     85 CA         -5.3539  -25.7428  -50.7658 C.3       15 UNK         0.1400 
     86 CB         -4.4825  -24.8228  -51.6410 C.3       15 UNK        -0.1800 
     87 C          -6.2233  -24.9644  -49.7543 C.2       15 UNK         0.5000 
     88 O          -6.1151  -23.7409  -49.6455 O.2       15 UNK        -0.5000 
     89 N          -7.0353  -25.7037  -48.9837 N.am      16 UNK        -0.5000 
     90 CA         -7.9957  -25.2504  -47.9652 C.3       16 UNK         0.1400 
     91 CB         -9.1644  -24.5142  -48.6530 C.3       16 UNK        -0.1800 
     92 C          -7.3932  -24.4012  -46.8209 C.2       16 UNK         0.5000 
     93 O          -8.1456  -23.7732  -46.0746 O.2       16 UNK        -0.5000 
     94 N          -6.0554  -24.3659  -46.7285 N.am      17 UNK        -0.5000 
     95 CA         -5.2285  -23.4553  -45.9341 C.3       17 UNK         0.1400 
     96 CB         -5.2713  -23.8511  -44.4451 C.3       17 UNK        -0.1800 
     97 C          -5.5648  -21.9656  -46.1779 C.2       17 UNK         0.5000 
     98 O          -5.5033  -21.1689  -45.2413 O.2       17 UNK        -0.5000 
     99 N          -5.9419  -21.6119  -47.4168 N.am      18 UNK        -0.5000 
    100 CA        -6.4254  -20.2712  -47.7624 C.3       18 UNK         0.1400 
    101 CB        -7.8353  -20.0495  -47.1753 C.3       18 UNK        -0.1800 
    102 C         -6.4476  -19.9786  -49.2719 C.2       18 UNK         0.5000 
    103 O         -6.4001  -18.8043  -49.6422 O.2       18 UNK        -0.5000 
    104 N         -6.5592  -21.0116  -50.1169 N.am      19 UNK        -0.5000 
    105 CA        -6.6380  -20.8829  -51.5712 C.3       19 UNK         0.1400 
    106 CB        -7.5476  -22.0024  -52.1154 C.3       19 UNK        -0.1800 
    107 C         -5.2376  -20.8794  -52.2197 C.2       19 UNK         0.5000 
    108 O         -4.2275  -20.7526  -51.5235 O.2       19 UNK        -0.5000 
    109 N         -5.2187  -21.0050  -53.5546 N.am      20 UNK        -0.5000 
    110 CA        -4.0648  -20.8894  -54.4542 C.3       20 UNK         0.1400 
    111 CB        -2.9407  -21.8801  -54.0727 C.3       20 UNK        -0.1800 
    112 C         -3.5609  -19.4354  -54.5839 C.2       20 UNK         0.5000 
    113 O         -4.1447  -18.5100  -54.0136 O.2       20 UNK        -0.5000 
    114 N         -2.4939  -19.2520  -55.3718 N.am      21 UNK        -0.5000 
    115 CA        -1.8981  -17.9504  -55.6925 C.3       21 UNK         0.1400 
    116 CB        -0.9459  -18.1307  -56.8858 C.3       21 UNK        -0.1800 
    117 C         -1.1602  -17.2800  -54.5151 C.2       21 UNK         0.5000 
    118 O         -0.8395  -16.0948  -54.6052 O.2       21 UNK        -0.5000 
    119 N         -0.8830  -18.0457  -53.4531 N.am      22 UNK        -0.5000 
    120 CA        -0.1342  -17.6154  -52.2628 C.3       22 UNK         0.1400 
    121 C         -0.8606  -16.5687  -51.3704 C.2       22 UNK         0.5000 
    122 N         -2.1800  -16.4441  -51.4406 N.am      22 UNK        -0.7600 
    123 O         -0.2106  -15.8430  -50.6235 O.2       22 UNK        -0.5000 
    124 C124        0.3362  -18.8239  -51.4122 C.3       23 UNK        -0.0398 
    125 S125        1.1523  -20.1435  -52.3844 S.3       23 UNK        -0.2404 
    126 C126        2.6826  -19.3292  -52.9532 C.3       23 UNK        -0.0205 
    127 H127        2.4643  -14.7840  -53.4280 H         1 UNK         0.0600 
    128 H128        0.7692  -14.5869  -52.9654 H         1 UNK         0.0600 
    129 H129        1.5387  -13.3944  -54.0067 H         1 UNK         0.0600 
    130 H130        0.9432  -14.3576  -50.7008 H         1 UNK         0.3000 
    131 H131        2.0650  -11.8755  -49.6729 H         1 UNK         0.0600 
    132 H132        4.0888  -13.1332  -49.4585 H         1 UNK         0.0800 
    133 H133        3.4109  -13.0063  -47.8729 H         1 UNK         0.0800 
    134 H134        4.3550  -15.0807  -50.8304 H         1 UNK         0.0800 
    135 H135        5.5240  -15.4726  -49.5906 H         1 UNK         0.0800 
    136 H136        3.1653  -16.7975  -52.0332 H         1 UNK         0.1150 
    137 H137        4.1043  -20.9057  -51.2766 H         1 UNK         0.1150 
    138 H138        5.5838  -17.8504  -48.6544 H         1 UNK         0.1150 
    139 H139        5.6491  -21.4967  -49.5055 H         1 UNK         0.0800 
    140 H140        6.4910  -20.2504  -48.6166 H         1 UNK         0.0800 
    141 H141        3.0618  -21.6260  -49.3423 H         1 UNK         0.0800 
    142 H142        2.1901  -20.4916  -48.3391 H         1 UNK         0.0800 
    143 H143        2.9515  -23.3252  -47.4846 H         1 UNK         0.0600 
    144 H144        1.5992  -21.2158  -46.0502 H         1 UNK         0.3000 
    145 H145        0.2998  -23.4014  -43.5193 H         1 UNK         0.0600 
    146 H146        1.5034  -21.7984  -42.0734 H         1 UNK         0.0600 
    147 H147        2.6526  -22.8779  -42.8481 H         1 UNK         0.0600 
    148 H148        2.4627  -21.2319  -43.4391 H         1 UNK         0.0600 
    149 H149        0.0845  -20.5942  -43.8247 H         1 UNK         0.3000 
    150 H150       -2.8940  -20.5851  -45.8324 H         1 UNK         0.0600 
    151 H151       -3.4620  -20.9605  -43.3927 H         1 UNK         0.0600 
    152 H152       -3.6468  -19.2883  -43.8899 H         1 UNK         0.0600 
    153 H153       -2.2396  -19.7782  -42.9462 H         1 UNK         0.0600 
    154 H154       -1.4183  -18.4194  -44.8183 H         1 UNK         0.3000 
    155 H155        0.8697  -18.0124  -47.5757 H         1 UNK         0.0600 
    156 H156       -0.1195  -15.7566  -47.4062 H         1 UNK         0.0600 
    157 H157       -1.4571  -16.3745  -46.4383 H         1 UNK         0.0600 
    158 H158       -1.2794  -16.8658  -48.1191 H         1 UNK         0.0600 
    159 H159        0.7079  -16.5694  -45.1554 H         1 UNK         0.3000 
    160 H160        2.8659  -18.6251  -43.1658 H         1 UNK         0.0600 
    161 H161        3.1020  -15.8408  -44.4311 H         1 UNK         0.0600 
    162 H162        4.2992  -17.1232  -44.5139 H         1 UNK         0.0600 
    163 H163        3.9263  -16.3764  -42.9672 H         1 UNK         0.0600 
    164 H164        1.2564  -16.2279  -42.7840 H         1 UNK         0.3000 
    165 H165       -1.4767  -17.9109  -41.2280 H         1 UNK         0.0600 
    166 H166        0.7401  -16.1892  -39.9944 H         1 UNK         0.0600 
    167 H167       -0.8775  -16.4327  -39.3342 H         1 UNK         0.0600 
    168 H168        0.2468  -17.7790  -39.4240 H         1 UNK         0.0600 
    169 H169       -0.8635  -15.1392  -41.5742 H         1 UNK         0.3000 
    170 H170       -2.3043  -14.7684  -44.8126 H         1 UNK         0.0600 
    171 H171       -4.2625  -14.8413  -43.2511 H         1 UNK         0.0600 
    172 H172       -3.3591  -13.8945  -42.0737 H         1 UNK         0.0600 
    173 H173       -3.7870  -13.1955  -43.6365 H         1 UNK         0.0600 
    174 H174       -1.4315  -12.6952  -43.3036 H         1 UNK         0.3000 
    175 H175        0.8846  -11.9610  -42.9815 H         1 UNK         0.0600 
    176 H176        2.9217  -13.2909  -43.4991 H         1 UNK         0.0600 
    177 H177        3.0229  -11.7033  -44.2466 H         1 UNK         0.0600 
    178 H178        2.6353  -13.1160  -45.2259 H         1 UNK         0.0600 
    179 H179        0.5730  -11.8859  -45.9510 H         1 UNK         0.3000 
    180 H180       -2.1158   -9.6203  -45.7910 H         1 UNK         0.0600 
    181 H181        0.7036   -8.9505  -46.7980 H         1 UNK         0.0600 
    182 H182       -0.2443   -7.9672  -45.6887 H         1 UNK         0.0600 
    183 H183       -0.7964   -8.1960  -47.3401 H         1 UNK         0.0600 
    184 H184       -0.5707  -10.7096  -47.9578 H         1 UNK         0.3000 
    185 H185       -1.8661  -13.9385  -48.0117 H         1 UNK         0.0600 
    186 H186       -2.8551  -13.4669  -50.2353 H         1 UNK         0.0600 
    187 H187       -3.8955  -12.8378  -48.9682 H         1 UNK         0.0600 
    188 H188       -2.8766  -11.7376  -49.8891 H         1 UNK         0.0600 
    189 H189       -0.5393  -12.6935  -50.1025 H         1 UNK         0.3000 
    190 H190       -0.3026  -21.8185  -47.7793 H         1 UNK         0.3000 
    191 H191       -1.1140  -23.1406  -50.1387 H         1 UNK         0.0600 
    192 H192       -2.3463  -21.2160  -49.2538 H         1 UNK         0.0600 
    193 H193       -3.4379  -22.5854  -49.3272 H         1 UNK         0.0600 
    194 H194       -2.7640  -22.0884  -47.7826 H         1 UNK         0.0600 
    195 H195       -1.5324  -24.0859  -46.7160 H         1 UNK         0.3000 
    196 H196       -1.9723  -25.9849  -45.6544 H         1 UNK         0.0600 
    197 H197       -0.5775  -27.9531  -46.4096 H         1 UNK         0.0600 
    198 H198        0.3200  -26.4488  -46.3674 H         1 UNK         0.0600 
    199 H199       -0.2107  -27.0987  -47.9091 H         1 UNK         0.0600 
    200 H200       -1.9012  -28.0417  -48.4569 H         1 UNK         0.3000 
    201 H201       -4.4408  -29.2242  -47.9879 H         1 UNK         0.0600 
    202 H202       -2.5513  -30.4242  -49.0574 H         1 UNK         0.0600 
    203 H203       -2.6015  -29.3287  -50.4397 H         1 UNK         0.0600 
    204 H204       -3.9435  -30.4234  -50.1276 H         1 UNK         0.0600 
    205 H205       -3.5449  -26.3991  -49.8818 H         1 UNK         0.3000 
    206 H206       -6.0321  -26.2814  -51.4306 H         1 UNK         0.0600 
    207 H207       -3.8644  -25.4013  -52.3274 H         1 UNK         0.0600 
    208 H208       -5.0970  -24.1572  -52.2461 H         1 UNK         0.0600 
    209 H209       -3.8195  -24.1982  -51.0435 H         1 UNK         0.0600 
    210 H210       -6.9925  -26.7088  -49.1234 H         1 UNK         0.3000 
    211 H211       -8.3939  -26.1516  -47.4974 H         1 UNK         0.0600 
    212 H212       -8.8428  -23.5687  -49.0917 H         1 UNK         0.0600 
    213 H213       -9.9628  -24.2907  -47.9446 H         1 UNK         0.0600 
    214 H214       -9.6002  -25.1205  -49.4469 H         1 UNK         0.0600 
    215 H215       -5.5377  -24.9913  -47.3324 H         1 UNK         0.3000 
    216 H216       -4.2044  -23.5956  -46.2816 H         1 UNK         0.0600 
    217 H217       -5.0127  -24.9016  -44.3119 H         1 UNK         0.0600 
    218 H218       -6.2592  -23.6893  -44.0130 H         1 UNK         0.0600 
    219 H219       -4.5562  -23.2670  -43.8648 H         1 UNK         0.0600 
    220 H220       -5.9573  -22.3177  -48.1442 H         1 UNK         0.3000 
    221 H221       -5.7451  -19.5406  -47.3193 H         1 UNK         0.0600 
    222 H222       -8.5350  -20.8089  -47.5265 H         1 UNK         0.0600 
    223 H223       -7.8292  -20.0812  -46.0860 H         1 UNK         0.0600 
    224 H224       -8.2344  -19.0757  -47.4622 H         1 UNK         0.0600 
    225 H225       -6.5170  -21.9683  -49.7797 H         1 UNK         0.3000 
    226 H226       -7.1078  -19.9297  -51.8223 H         1 UNK         0.0600 
    227 H227       -8.4975  -22.0298  -51.5809 H         1 UNK         0.0600 
    228 H228       -7.7832  -21.8511  -53.1690 H         1 UNK         0.0600 
    229 H229       -7.0881  -22.9846  -52.0197 H         1 UNK         0.0600 
    230 H230       -6.1095  -21.0803  -54.0244 H         1 UNK         0.3000 
    231 H231       -4.4340  -21.1745  -55.4404 H         1 UNK         0.0600 
    232 H232       -2.2098  -21.9781  -54.8755 H         1 UNK         0.0600 
    233 H233       -3.3405  -22.8764  -53.8839 H         1 UNK         0.0600 
    234 H234       -2.3991  -21.5636  -53.1806 H         1 UNK         0.0600 
    235 H235       -2.0689  -20.0553  -55.8120 H         1 UNK         0.3000 
    236 H236       -2.7004  -17.2745  -55.9960 H         1 UNK         0.0600 
    237 H237       -0.5085  -17.1776  -57.1864 H         1 UNK         0.0600 
    238 H238       -0.1245  -18.8070  -56.6454 H         1 UNK         0.0600 
    239 H239       -1.4703  -18.5319  -57.7533 H         1 UNK         0.0600 
    240 H240       -1.1744  -19.0112  -53.4695 H         1 UNK         0.3000 
    241 H241        0.7600  -17.1092  -52.6283 H         1 UNK         0.0600 
    242 H242       -2.7175  -17.0242  -52.0670 H         1 UNK         0.3800 
    243 H243       -2.6442  -15.7603  -50.8671 H         1 UNK         0.3800 
    244 H244        1.0126  -18.4977  -50.6200 H         1 UNK         0.0800 
    245 H245       -0.5167  -19.2779  -50.9038 H         1 UNK         0.0800 
    246 H246        2.4345  -18.4816  -53.5933 H         1 UNK         0.0800 
    247 H247        3.2409  -20.0271  -53.5786 H         1 UNK         0.0800 
@<TRIPOS>BOND
     1    1    2 1    
     2    1  127 1    
     3    1  128 1    
     4    1  129 1    
     5    2    3 2    
     6    2    4 am   BACKBONE|DICT|INTERRES
     7    4    5 1    
     8    4  130 1    
     9    5    6 1    
    10    5   65 1    
    11    5  131 1    
    12    6    7 1    
    13    6  132 1    
    14    6  133 1    
    15    7    8 1    
    16    8    9 1    
    17    8  134 1    
    18    8  135 1    
    19    9   10 ar   
    20    9   14 ar   
    21   10   11 ar   
    22   10  136 1    
    23   11   12 ar   
    24   11  126 1    
    25   12   13 ar   
    26   12  137 1    
    27   13   14 ar   
    28   13   15 1    
    29   14  138 1    
    30   15   16 1    
    31   15  139 1    
    32   15  140 1    
    33   16   17 1    
    34   17   18 1    
    35   17  141 1    
    36   17  142 1    
    37   18   19 1    
    38   18   67 1    
    39   18  143 1    
    40   19   20 am   BACKBONE|DICT|INTERRES
    41   19  144 1    
    42   20   21 2    
    43   20   22 1    
    44   22   23 1    
    45   22   24 1    
    46   22  145 1    
    47   23  146 1    
    48   23  147 1    
    49   23  148 1    
    50   24   25 am   BACKBONE|DICT|INTERRES
    51   24  149 1    
    52   25   26 2    
    53   25   27 1    
    54   27   28 1    
    55   27   29 1    
    56   27  150 1    
    57   28  151 1    
    58   28  152 1    
    59   28  153 1    
    60   29   30 am   BACKBONE|DICT|INTERRES
    61   29  154 1    
    62   30   31 2    
    63   30   32 1    
    64   32   33 1    
    65   32   34 1    
    66   32  155 1    
    67   33  156 1    
    68   33  157 1    
    69   33  158 1    
    70   34   35 am   BACKBONE|DICT|INTERRES
    71   34  159 1    
    72   35   36 2    
    73   35   37 1    
    74   37   38 1    
    75   37   39 1    
    76   37  160 1    
    77   38  161 1    
    78   38  162 1    
    79   38  163 1    
    80   39   40 am   BACKBONE|DICT|INTERRES
    81   39  164 1    
    82   40   41 2    
    83   40   42 1    
    84   42   43 1    
    85   42   44 1    
    86   42  165 1    
    87   43  166 1    
    88   43  167 1    
    89   43  168 1    
    90   44   45 am   BACKBONE|DICT|INTERRES
    91   44  169 1    
    92   45   46 2    
    93   45   47 1    
    94   47   48 1    
    95   47   49 1    
    96   47  170 1    
    97   48  171 1    
    98   48  172 1    
    99   48  173 1    
   100   49   50 am   BACKBONE|DICT|INTERRES
   101   49  174 1    
   102   50   51 2    
   103   50   52 1    
   104   52   53 1    
   105   52   54 1    
   106   52  175 1    
   107   53  176 1    
   108   53  177 1    
   109   53  178 1    
   110   54   55 am   BACKBONE|DICT|INTERRES
   111   54  179 1    
   112   55   56 2    
   113   55   57 1    
   114   57   58 1    
   115   57   59 1    
   116   57  180 1    
   117   58  181 1    
   118   58  182 1    
   119   58  183 1    
   120   59   60 am   BACKBONE|DICT|INTERRES
   121   59  184 1    
   122   60   61 2    
   123   60   62 1    
   124   62   63 1    
   125   62   64 1    
   126   62  185 1    
   127   63  186 1    
   128   63  187 1    
   129   63  188 1    
   130   64   65 am   BACKBONE|DICT|INTERRES
   131   64  189 1    
   132   65   66 2    
   133   67   68 2    
   134   67   69 am   BACKBONE|DICT|INTERRES
   135   69   70 1    
   136   69  190 1    
   137   70   71 1    
   138   70   72 1    
   139   70  191 1    
   140   71  192 1    
   141   71  193 1    
   142   71  194 1    
   143   72   73 2    
   144   72   74 am   BACKBONE|DICT|INTERRES
   145   74   75 1    
   146   74  195 1    
   147   75   76 1    
   148   75   77 1    
   149   75  196 1    
   150   76  197 1    
   151   76  198 1    
   152   76  199 1    
   153   77   78 2    
   154   77   79 am   BACKBONE|DICT|INTERRES
   155   79   80 1    
   156   79  200 1    
   157   80   81 1    
   158   80   82 1    
   159   80  201 1    
   160   81  202 1    
   161   81  203 1    
   162   81  204 1    
   163   82   83 2    
   164   82   84 am   BACKBONE|DICT|INTERRES
   165   84   85 1    
   166   84  205 1    
   167   85   86 1    
   168   85   87 1    
   169   85  206 1    
   170   86  207 1    
   171   86  208 1    
   172   86  209 1    
   173   87   88 2    
   174   87   89 am   BACKBONE|DICT|INTERRES
   175   89   90 1    
   176   89  210 1    
   177   90   91 1    
   178   90   92 1    
   179   90  211 1    
   180   91  212 1    
   181   91  213 1    
   182   91  214 1    
   183   92   93 2    
   184   92   94 am   BACKBONE|DICT|INTERRES
   185   94   95 1    
   186   94  215 1    
   187   95   96 1    
   188   95   97 1    
   189   95  216 1    
   190   96  217 1    
   191   96  218 1    
   192   96  219 1    
   193   97   98 2    
   194   97   99 am   BACKBONE|DICT|INTERRES
   195   99  100 1    
   196   99  220 1    
   197  100  101 1    
   198  100  102 1    
   199  100  221 1    
   200  101  222 1    
   201  101  223 1    
   202  101  224 1    
   203  102  103 2    
   204  102  104 am   BACKBONE|DICT|INTERRES
   205  104  105 1    
   206  104  225 1    
   207  105  106 1    
   208  105  107 1    
   209  105  226 1    
   210  106  227 1    
   211  106  228 1    
   212  106  229 1    
   213  107  108 2    
   214  107  109 am   BACKBONE|DICT|INTERRES
   215  109  110 1    
   216  109  230 1    
   217  110  111 1    
   218  110  112 1    
   219  110  231 1    
   220  111  232 1    
   221  111  233 1    
   222  111  234 1    
   223  112  113 2    
   224  112  114 am   BACKBONE|DICT|INTERRES
   225  114  115 1    
   226  114  235 1    
   227  115  116 1    
   228  115  117 1    
   229  115  236 1    
   230  116  237 1    
   231  116  238 1    
   232  116  239 1    
   233  117  118 2    
   234  117  119 am   BACKBONE|DICT|INTERRES
   235  119  120 1    
   236  119  240 1    
   237  120  121 1    
   238  120  124 1    
   239  120  241 1    
   240  121  122 am   BACKBONE|DICT|INTERRES
   241  121  123 2    
   242  122  242 1    
   243  122  243 1    
   244  124  125 1    
   245  124  244 1    
   246  124  245 1    
   247  125  126 1    
   248  126  246 1    
   249  126  247 1    
@<TRIPOS>SUBSTRUCTURE
     1 UNK         1 GROUP             0       ****    0 ROOT    
