@<TRIPOS>MOLECULE
3R540
247   249    1
SMALL
USER_CHARGES


@<TRIPOS>ATOM
      1 CA         -3.7821  -14.6682  -42.3753 C.3       0 UNK        -0.1800 
      2 C          -2.7040  -13.9907  -43.2081 C.2       0 UNK         0.5000 
      3 O          -1.5368  -14.0114  -42.8217 O.2       0 UNK        -0.5000 
      4 N          -3.0931  -13.4008  -44.3469 N.am      1 UNK        -0.5000 
      5 CA         -2.2574  -12.6992  -45.3338 C.3       1 UNK         0.1400 
      6 C6         -1.1305  -13.5692  -45.9551 C.3       23 UNK        -0.0398 
      7 S7         -1.7648  -15.0371  -46.8362 S.3       23 UNK        -0.2404 
      8 C8         -0.6401  -15.0831  -48.2629 C.3       23 UNK        -0.0205 
      9 C9         -0.7363  -16.4026  -49.0122 C.ar      23 UNK        -0.0193 
     10 C10        -1.7974  -16.6391  -49.8918 C.ar      23 UNK        -0.1150 
     11 C11        -1.8661  -17.8339  -50.6145 C.ar      23 UNK        -0.0193 
     12 C12        -0.8571  -18.7865  -50.4563 C.ar      23 UNK        -0.1150 
     13 C13         0.1988  -18.5759  -49.5650 C.ar      23 UNK        -0.0193 
     14 C14         0.2512  -17.3788  -48.8460 C.ar      23 UNK        -0.1150 
     15 C15         1.3055  -19.6140  -49.4108 C.3       23 UNK        -0.0205 
     16 S16         0.8886  -20.9375  -48.2235 S.3       23 UNK        -0.2404 
     17 C17        -0.2671  -21.9670  -49.1971 C.3       23 UNK        -0.0398 
     18 CA         -1.7232  -21.9871  -48.6616 C.3       11 UNK         0.1400 
     19 N          -2.1652  -20.6802  -48.1508 N.am      11 UNK        -0.5000 
     20 C          -3.2274  -20.4667  -47.3653 C.2       10 UNK         0.5000 
     21 O          -4.0587  -21.3389  -47.1082 O.2       10 UNK        -0.5000 
     22 CA         -3.3910  -19.0417  -46.8009 C.3       10 UNK         0.1400 
     23 CB         -4.4362  -18.9697  -45.6691 C.3       10 UNK        -0.1800 
     24 N          -2.1311  -18.4300  -46.3643 N.am      10 UNK        -0.5000 
     25 C          -1.2655  -18.9035  -45.4551 C.2       9 UNK         0.5000 
     26 O          -1.3611  -20.0000  -44.8986 O.2       9 UNK        -0.5000 
     27 CA         -0.1425  -17.9368  -45.0559 C.3       9 UNK         0.1400 
     28 CB         -0.6590  -16.9610  -43.9906 C.3       9 UNK        -0.1800 
     29 N           1.0006  -18.6522  -44.5000 N.am      9 UNK        -0.5000 
     30 C           2.1784  -18.8181  -45.1098 C.2       8 UNK         0.5000 
     31 O           2.4419  -18.3857  -46.2328 O.2       8 UNK        -0.5000 
     32 CA          3.2520  -19.5435  -44.2835 C.3       8 UNK         0.1400 
     33 CB          4.5999  -19.6841  -45.0171 C.3       8 UNK        -0.1800 
     34 N           3.4426  -18.8203  -43.0284 N.am      8 UNK        -0.5000 
     35 C           3.7877  -19.3703  -41.8580 C.2       7 UNK         0.5000 
     36 O           3.9955  -20.5756  -41.7106 O.2       7 UNK        -0.5000 
     37 CA          3.9332  -18.4312  -40.6400 C.3       7 UNK         0.1400 
     38 CB          5.4152  -18.1196  -40.3800 C.3       7 UNK        -0.1800 
     39 N           3.2048  -17.1672  -40.7670 N.am      7 UNK        -0.5000 
     40 C           1.8711  -17.0432  -40.7836 C.2       6 UNK         0.5000 
     41 O           1.0992  -17.9898  -40.6269 O.2       6 UNK        -0.5000 
     42 CA          1.2949  -15.6333  -41.0318 C.3       6 UNK         0.1400 
     43 CB          0.9437  -14.9608  -39.6958 C.3       6 UNK        -0.1800 
     44 N           2.1300  -14.7096  -41.8097 N.am      6 UNK        -0.5000 
     45 C           2.7490  -14.9352  -42.9781 C.2       5 UNK         0.5000 
     46 O           2.8191  -16.0366  -43.5196 O.2       5 UNK        -0.5000 
     47 CA          3.4091  -13.7289  -43.6677 C.3       5 UNK         0.1400 
     48 CB          2.5200  -13.2218  -44.8136 C.3       5 UNK        -0.1800 
     49 N           3.6748  -12.6211  -42.7480 N.am      5 UNK        -0.5000 
     50 C           4.7908  -12.4827  -42.0197 C.2       4 UNK         0.5000 
     51 O           5.7141  -13.2973  -42.0277 O.2       4 UNK        -0.5000 
     52 CA          4.9090  -11.2161  -41.1481 C.3       4 UNK         0.1400 
     53 CB          5.7217  -10.1390  -41.8833 C.3       4 UNK        -0.1800 
     54 N           3.6088  -10.6537  -40.7777 N.am      4 UNK        -0.5000 
     55 C           2.8473  -11.1074  -39.7731 C.2       3 UNK         0.5000 
     56 O           3.1831  -12.0202  -39.0183 O.2       3 UNK        -0.5000 
     57 CA          1.4610  -10.4505  -39.6039 C.3       3 UNK         0.1400 
     58 CB          1.5544   -9.2274  -38.6792 C.3       3 UNK        -0.1800 
     59 N           0.8197  -10.0555  -40.8656 N.am      3 UNK        -0.5000 
     60 C           0.5275  -10.9001  -41.8625 C.2       2 UNK         0.5000 
     61 O           0.8438  -12.0908  -41.8529 O.2       2 UNK        -0.5000 
     62 CA         -0.1837  -10.3214  -43.0926 C.3       2 UNK         0.1400 
     63 CB          0.8327   -9.6258  -44.0195 C.3       2 UNK        -0.1800 
     64 N          -0.8408  -11.4272  -43.7821 N.am      2 UNK        -0.5000 
     65 C          -1.7115  -11.3589  -44.7925 C.2       1 UNK         0.5000 
     66 O          -2.0983  -10.3008  -45.2909 O.2       1 UNK        -0.5000 
     67 C          -2.6845  -22.6193  -49.6985 C.2       11 UNK         0.5000 
     68 O          -2.4569  -23.7477  -50.1326 O.2       11 UNK        -0.5000 
     69 N          -3.7337  -21.8892  -50.0979 N.am      12 UNK        -0.5000 
     70 CA         -4.8570  -22.4024  -50.8812 C.3       12 UNK         0.1400 
     71 CB         -5.5022  -21.2422  -51.6474 C.3       12 UNK        -0.1800 
     72 C          -5.9021  -23.1297  -50.0133 C.2       12 UNK         0.5000 
     73 O          -6.6504  -23.9484  -50.5460 O.2       12 UNK        -0.5000 
     74 N          -5.9280  -22.8374  -48.7065 N.am      13 UNK        -0.5000 
     75 CA         -6.7698  -23.5038  -47.7151 C.3       13 UNK         0.1400 
     76 CB         -7.4423  -22.4461  -46.8250 C.3       13 UNK        -0.1800 
     77 C          -5.9249  -24.4696  -46.8709 C.2       13 UNK         0.5000 
     78 O          -6.3281  -25.6154  -46.6698 O.2       13 UNK        -0.5000 
     79 N          -4.7550  -24.0022  -46.4134 N.am      14 UNK        -0.5000 
     80 CA         -3.7747  -24.7804  -45.6624 C.3       14 UNK         0.1400 
     81 CB         -2.8166  -23.8206  -44.9367 C.3       14 UNK        -0.1800 
     82 C          -3.0285  -25.7383  -46.6067 C.2       14 UNK         0.5000 
     83 O          -2.1348  -25.3064  -47.3345 O.2       14 UNK        -0.5000 
     84 N          -3.4606  -27.0065  -46.6175 N.am      15 UNK        -0.5000 
     85 CA         -2.9748  -28.1353  -47.4274 C.3       15 UNK         0.1400 
     86 CB         -1.4681  -28.3798  -47.2036 C.3       15 UNK        -0.1800 
     87 C          -3.3164  -28.0620  -48.9324 C.2       15 UNK         0.5000 
     88 O          -3.0961  -29.0476  -49.6373 O.2       15 UNK        -0.5000 
     89 N          -3.8595  -26.9264  -49.3960 N.am      16 UNK        -0.5000 
     90 CA         -4.2750  -26.6284  -50.7727 C.3       16 UNK         0.1400 
     91 CB         -5.4833  -27.4955  -51.1810 C.3       16 UNK        -0.1800 
     92 C          -3.1226  -26.6747  -51.7986 C.2       16 UNK         0.5000 
     93 O          -3.3526  -26.9427  -52.9787 O.2       16 UNK        -0.5000 
     94 N          -1.9015  -26.3837  -51.3335 N.am      17 UNK        -0.5000 
     95 CA         -0.6715  -26.3730  -52.1229 C.3       17 UNK         0.1400 
     96 CB          0.5249  -26.2523  -51.1668 C.3       17 UNK        -0.1800 
     97 C          -0.6307  -25.2530  -53.1792 C.2       17 UNK         0.5000 
     98 O          -0.0178  -25.4402  -54.2307 O.2       17 UNK        -0.5000 
     99 N          -1.2834  -24.1207  -52.8852 N.am      18 UNK        -0.5000 
    100 CA        -1.3295  -22.9357  -53.7452 C.3       18 UNK         0.1400 
    101 CB        -0.8075  -21.7285  -52.9568 C.3       18 UNK        -0.1800 
    102 C         -2.7429  -22.6583  -54.2821 C.2       18 UNK         0.5000 
    103 O         -3.0001  -21.5446  -54.7398 O.2       18 UNK        -0.5000 
    104 N         -3.6433  -23.6508  -54.2363 N.am      19 UNK        -0.5000 
    105 CA        -5.0351  -23.5197  -54.6839 C.3       19 UNK         0.1400 
    106 CB        -5.8025  -24.8056  -54.3473 C.3       19 UNK        -0.1800 
    107 C         -5.1738  -23.1600  -56.1767 C.2       19 UNK         0.5000 
    108 O         -6.0580  -22.3836  -56.5384 O.2       19 UNK        -0.5000 
    109 N         -4.2633  -23.6877  -57.0049 N.am      20 UNK        -0.5000 
    110 CA        -4.1649  -23.3795  -58.4322 C.3       20 UNK         0.1400 
    111 CB        -3.4073  -24.5206  -59.1291 C.3       20 UNK        -0.1800 
    112 C         -3.4793  -22.0274  -58.7201 C.2       20 UNK         0.5000 
    113 O         -3.6458  -21.4962  -59.8187 O.2       20 UNK        -0.5000 
    114 N         -2.7096  -21.5056  -57.7546 N.am      21 UNK        -0.5000 
    115 CA        -1.9517  -20.2613  -57.8791 C.3       21 UNK         0.1400 
    116 CB        -0.6438  -20.3727  -57.0780 C.3       21 UNK        -0.1800 
    117 C         -2.7809  -19.0536  -57.4172 C.2       21 UNK         0.5000 
    118 O         -2.8874  -18.0737  -58.1561 O.2       21 UNK        -0.5000 
    119 N         -3.3562  -19.1464  -56.2117 N.am      22 UNK        -0.5000 
    120 CA        -4.2040  -18.1002  -55.6177 C.3       22 UNK         0.1400 
    121 C         -5.6574  -18.0768  -56.1743 C.2       22 UNK         0.5000 
    122 N         -6.1500  -19.1360  -56.8055 N.am      22 UNK        -0.7600 
    123 O         -6.3502  -17.0726  -56.0356 O.2       22 UNK        -0.5000 
    124 C124       -4.2225  -18.1745  -54.0706 C.3       23 UNK        -0.0398 
    125 S125       -2.5822  -17.9462  -53.3015 S.3       23 UNK        -0.2404 
    126 C126       -3.0375  -18.1106  -51.5465 C.3       23 UNK        -0.0205 
    127 H127       -3.8234  -14.2219  -41.3818 H         1 UNK         0.0600 
    128 H128       -3.5555  -15.7287  -42.2648 H         1 UNK         0.0600 
    129 H129       -4.7674  -14.5763  -42.8325 H         1 UNK         0.0600 
    130 H130       -4.0763  -13.4182  -44.5782 H         1 UNK         0.3000 
    131 H131       -2.9368  -12.4376  -46.1469 H         1 UNK         0.0600 
    132 H132       -0.5435  -12.9690  -46.6527 H         1 UNK         0.0800 
    133 H133       -0.4320  -13.9139  -45.1928 H         1 UNK         0.0800 
    134 H134        0.3841  -14.9221  -47.9215 H         1 UNK         0.0800 
    135 H135       -0.8749  -14.2577  -48.9367 H         1 UNK         0.0800 
    136 H136       -2.5664  -15.8892  -50.0145 H         1 UNK         0.1150 
    137 H137       -0.8976  -19.6905  -51.0382 H         1 UNK         0.1150 
    138 H138        1.0763  -17.1989  -48.1711 H         1 UNK         0.1150 
    139 H139        1.5519  -20.0483  -50.3809 H         1 UNK         0.0800 
    140 H140        2.2178  -19.1253  -49.0650 H         1 UNK         0.0800 
    141 H141        0.1272  -22.9847  -49.2079 H         1 UNK         0.0800 
    142 H142       -0.2317  -21.6403  -50.2317 H         1 UNK         0.0800 
    143 H143       -1.7292  -22.6633  -47.8064 H         1 UNK         0.0600 
    144 H144       -1.5190  -19.9166  -48.2986 H         1 UNK         0.3000 
    145 H145       -3.7562  -18.4298  -47.6269 H         1 UNK         0.0600 
    146 H146       -5.4148  -19.3040  -46.0157 H         1 UNK         0.0600 
    147 H147       -4.1569  -19.5976  -44.8223 H         1 UNK         0.0600 
    148 H148       -4.5534  -17.9488  -45.3053 H         1 UNK         0.0600 
    149 H149       -1.9502  -17.5115  -46.7495 H         1 UNK         0.3000 
    150 H150        0.1516  -17.3627  -45.9357 H         1 UNK         0.0600 
    151 H151       -1.6124  -16.5208  -44.2813 H         1 UNK         0.0600 
    152 H152        0.0423  -16.1397  -43.8517 H         1 UNK         0.0600 
    153 H153       -0.8102  -17.4502  -43.0278 H         1 UNK         0.0600 
    154 H154        0.8577  -19.0724  -43.5929 H         1 UNK         0.3000 
    155 H155        2.8653  -20.5437  -44.0772 H         1 UNK         0.0600 
    156 H156        5.0377  -18.7100  -45.2383 H         1 UNK         0.0600 
    157 H157        4.4766  -20.2144  -45.9622 H         1 UNK         0.0600 
    158 H158        5.3180  -20.2467  -44.4206 H         1 UNK         0.0600 
    159 H159        3.2530  -17.8201  -43.0748 H         1 UNK         0.3000 
    160 H160        3.5381  -18.9615  -39.7712 H         1 UNK         0.0600 
    161 H161        5.8608  -17.5684  -41.2092 H         1 UNK         0.0600 
    162 H162        5.9910  -19.0366  -40.2481 H         1 UNK         0.0600 
    163 H163        5.5413  -17.5256  -39.4745 H         1 UNK         0.0600 
    164 H164        3.7584  -16.3373  -40.9216 H         1 UNK         0.3000 
    165 H165        0.3655  -15.7613  -41.5862 H         1 UNK         0.0600 
    166 H166        0.4013  -14.0286  -39.8560 H         1 UNK         0.0600 
    167 H167        0.3075  -15.6033  -39.0857 H         1 UNK         0.0600 
    168 H168        1.8382  -14.7324  -39.1149 H         1 UNK         0.0600 
    169 H169        2.0679  -13.7411  -41.5196 H         1 UNK         0.3000 
    170 H170        4.3503  -14.0741  -44.1010 H         1 UNK         0.0600 
    171 H171        2.3036  -14.0196  -45.5257 H         1 UNK         0.0600 
    172 H172        1.5676  -12.8460  -44.4422 H         1 UNK         0.0600 
    173 H173        3.0067  -12.4171  -45.3646 H         1 UNK         0.0600 
    174 H174        2.9284  -11.9515  -42.6255 H         1 UNK         0.3000 
    175 H175        5.4516  -11.4882  -40.2401 H         1 UNK         0.0600 
    176 H176        5.8682   -9.2592  -41.2564 H         1 UNK         0.0600 
    177 H177        5.2290   -9.8190  -42.8024 H         1 UNK         0.0600 
    178 H178        6.7105  -10.5120  -42.1536 H         1 UNK         0.0600 
    179 H179        3.2608   -9.8916  -41.3407 H         1 UNK         0.3000 
    180 H180        0.8124  -11.1880  -39.1263 H         1 UNK         0.0600 
    181 H181        0.5671   -8.8174  -38.4656 H         1 UNK         0.0600 
    182 H182        2.1602   -8.4347  -39.1200 H         1 UNK         0.0600 
    183 H183        2.0073   -9.4937  -37.7231 H         1 UNK         0.0600 
    184 H184        0.5499   -9.0857  -40.9482 H         1 UNK         0.3000 
    185 H185       -0.9411   -9.6083  -42.7621 H         1 UNK         0.0600 
    186 H186        0.3452   -9.1769  -44.8845 H         1 UNK         0.0600 
    187 H187        1.3552   -8.8233  -43.4977 H         1 UNK         0.0600 
    188 H188        1.5862  -10.3229  -44.3869 H         1 UNK         0.0600 
    189 H189       -0.6581  -12.3388  -43.3632 H         1 UNK         0.3000 
    190 H190       -3.8354  -20.9641  -49.7091 H         1 UNK         0.3000 
    191 H191       -4.4867  -23.1246  -51.6103 H         1 UNK         0.0600 
    192 H192       -6.3970  -21.5663  -52.1804 H         1 UNK         0.0600 
    193 H193       -4.8073  -20.8535  -52.3884 H         1 UNK         0.0600 
    194 H194       -5.7919  -20.4257  -50.9850 H         1 UNK         0.0600 
    195 H195       -5.2529  -22.1774  -48.3343 H         1 UNK         0.3000 
    196 H196       -7.5563  -24.0831  -48.2033 H         1 UNK         0.0600 
    197 H197       -6.7111  -21.8271  -46.3034 H         1 UNK         0.0600 
    198 H198       -8.0775  -21.7851  -47.4148 H         1 UNK         0.0600 
    199 H199       -8.0738  -22.9161  -46.0701 H         1 UNK         0.0600 
    200 H200       -4.4935  -23.0424  -46.6256 H         1 UNK         0.3000 
    201 H201       -4.2951  -25.3661  -44.9014 H         1 UNK         0.0600 
    202 H202       -3.3547  -23.1911  -44.2279 H         1 UNK         0.0600 
    203 H203       -2.2922  -23.1615  -45.6279 H         1 UNK         0.0600 
    204 H204       -2.0627  -24.3733  -44.3750 H         1 UNK         0.0600 
    205 H205       -4.2573  -27.2248  -46.0337 H         1 UNK         0.3000 
    206 H206       -3.5037  -29.0109  -47.0483 H         1 UNK         0.0600 
    207 H207       -1.2326  -28.4547  -46.1420 H         1 UNK         0.0600 
    208 H208       -1.1518  -29.3128  -47.6715 H         1 UNK         0.0600 
    209 H209       -0.8568  -27.5838  -47.6295 H         1 UNK         0.0600 
    210 H210       -3.9491  -26.1652  -48.7383 H         1 UNK         0.3000 
    211 H211       -4.6044  -25.5921  -50.7653 H         1 UNK         0.0600 
    212 H212       -5.8807  -27.1877  -52.1485 H         1 UNK         0.0600 
    213 H213       -6.2935  -27.4037  -50.4577 H         1 UNK         0.0600 
    214 H214       -5.2181  -28.5501  -51.2586 H         1 UNK         0.0600 
    215 H215       -1.8235  -26.0952  -50.3674 H         1 UNK         0.3000 
    216 H216       -0.5991  -27.3278  -52.6477 H         1 UNK         0.0600 
    217 H217        0.4880  -25.3252  -50.5929 H         1 UNK         0.0600 
    218 H218        1.4676  -26.2629  -51.7155 H         1 UNK         0.0600 
    219 H219        0.5506  -27.0826  -50.4608 H         1 UNK         0.0600 
    220 H220       -1.7580  -24.0584  -51.9890 H         1 UNK         0.3000 
    221 H221       -0.6866  -23.0664  -54.6175 H         1 UNK         0.0600 
    222 H222        0.1742  -21.9276  -52.5277 H         1 UNK         0.0600 
    223 H223       -1.4988  -21.4730  -52.1561 H         1 UNK         0.0600 
    224 H224       -0.7088  -20.8478  -53.5924 H         1 UNK         0.0600 
    225 H225       -3.3566  -24.5527  -53.8809 H         1 UNK         0.3000 
    226 H226       -5.4877  -22.7024  -54.1215 H         1 UNK         0.0600 
    227 H227       -5.3561  -25.6790  -54.8242 H         1 UNK         0.0600 
    228 H228       -5.8177  -24.9803  -53.2715 H         1 UNK         0.0600 
    229 H229       -6.8398  -24.7418  -54.6786 H         1 UNK         0.0600 
    230 H230       -3.5720  -24.3176  -56.6248 H         1 UNK         0.3000 
    231 H231       -5.1716  -23.3340  -58.8532 H         1 UNK         0.0600 
    232 H232       -2.3902  -24.6208  -58.7480 H         1 UNK         0.0600 
    233 H233       -3.3393  -24.3463  -60.2038 H         1 UNK         0.0600 
    234 H234       -3.9150  -25.4751  -58.9883 H         1 UNK         0.0600 
    235 H235       -2.6929  -21.9542  -56.8495 H         1 UNK         0.3000 
    236 H236       -1.6815  -20.1025  -58.9255 H         1 UNK         0.0600 
    237 H237       -0.8268  -20.5227  -56.0144 H         1 UNK         0.0600 
    238 H238       -0.0346  -21.2039  -57.4330 H         1 UNK         0.0600 
    239 H239       -0.0475  -19.4653  -57.1808 H         1 UNK         0.0600 
    240 H240       -3.2176  -19.9864  -55.6538 H         1 UNK         0.3000 
    241 H241       -3.7704  -17.1337  -55.8825 H         1 UNK         0.0600 
    242 H242       -7.0922  -19.1049  -57.1613 H         1 UNK         0.3800 
    243 H243       -5.6154  -19.9874  -56.8896 H         1 UNK         0.3800 
    244 H244       -4.6306  -19.1333  -53.7558 H         1 UNK         0.0800 
    245 H245       -4.8847  -17.4090  -53.6616 H         1 UNK         0.0800 
    246 H246       -3.8646  -17.4349  -51.3230 H         1 UNK         0.0800 
    247 H247       -3.4066  -19.1203  -51.3675 H         1 UNK         0.0800 
@<TRIPOS>BOND
     1    1    2 1    
     2    1  127 1    
     3    1  128 1    
     4    1  129 1    
     5    2    3 2    
     6    2    4 am   BACKBONE|DICT|INTERRES
     7    4    5 1    
     8    4  130 1    
     9    5    6 1    
    10    5   65 1    
    11    5  131 1    
    12    6    7 1    
    13    6  132 1    
    14    6  133 1    
    15    7    8 1    
    16    8    9 1    
    17    8  134 1    
    18    8  135 1    
    19    9   10 ar   
    20    9   14 ar   
    21   10   11 ar   
    22   10  136 1    
    23   11   12 ar   
    24   11  126 1    
    25   12   13 ar   
    26   12  137 1    
    27   13   14 ar   
    28   13   15 1    
    29   14  138 1    
    30   15   16 1    
    31   15  139 1    
    32   15  140 1    
    33   16   17 1    
    34   17   18 1    
    35   17  141 1    
    36   17  142 1    
    37   18   19 1    
    38   18   67 1    
    39   18  143 1    
    40   19   20 am   BACKBONE|DICT|INTERRES
    41   19  144 1    
    42   20   21 2    
    43   20   22 1    
    44   22   23 1    
    45   22   24 1    
    46   22  145 1    
    47   23  146 1    
    48   23  147 1    
    49   23  148 1    
    50   24   25 am   BACKBONE|DICT|INTERRES
    51   24  149 1    
    52   25   26 2    
    53   25   27 1    
    54   27   28 1    
    55   27   29 1    
    56   27  150 1    
    57   28  151 1    
    58   28  152 1    
    59   28  153 1    
    60   29   30 am   BACKBONE|DICT|INTERRES
    61   29  154 1    
    62   30   31 2    
    63   30   32 1    
    64   32   33 1    
    65   32   34 1    
    66   32  155 1    
    67   33  156 1    
    68   33  157 1    
    69   33  158 1    
    70   34   35 am   BACKBONE|DICT|INTERRES
    71   34  159 1    
    72   35   36 2    
    73   35   37 1    
    74   37   38 1    
    75   37   39 1    
    76   37  160 1    
    77   38  161 1    
    78   38  162 1    
    79   38  163 1    
    80   39   40 am   BACKBONE|DICT|INTERRES
    81   39  164 1    
    82   40   41 2    
    83   40   42 1    
    84   42   43 1    
    85   42   44 1    
    86   42  165 1    
    87   43  166 1    
    88   43  167 1    
    89   43  168 1    
    90   44   45 am   BACKBONE|DICT|INTERRES
    91   44  169 1    
    92   45   46 2    
    93   45   47 1    
    94   47   48 1    
    95   47   49 1    
    96   47  170 1    
    97   48  171 1    
    98   48  172 1    
    99   48  173 1    
   100   49   50 am   BACKBONE|DICT|INTERRES
   101   49  174 1    
   102   50   51 2    
   103   50   52 1    
   104   52   53 1    
   105   52   54 1    
   106   52  175 1    
   107   53  176 1    
   108   53  177 1    
   109   53  178 1    
   110   54   55 am   BACKBONE|DICT|INTERRES
   111   54  179 1    
   112   55   56 2    
   113   55   57 1    
   114   57   58 1    
   115   57   59 1    
   116   57  180 1    
   117   58  181 1    
   118   58  182 1    
   119   58  183 1    
   120   59   60 am   BACKBONE|DICT|INTERRES
   121   59  184 1    
   122   60   61 2    
   123   60   62 1    
   124   62   63 1    
   125   62   64 1    
   126   62  185 1    
   127   63  186 1    
   128   63  187 1    
   129   63  188 1    
   130   64   65 am   BACKBONE|DICT|INTERRES
   131   64  189 1    
   132   65   66 2    
   133   67   68 2    
   134   67   69 am   BACKBONE|DICT|INTERRES
   135   69   70 1    
   136   69  190 1    
   137   70   71 1    
   138   70   72 1    
   139   70  191 1    
   140   71  192 1    
   141   71  193 1    
   142   71  194 1    
   143   72   73 2    
   144   72   74 am   BACKBONE|DICT|INTERRES
   145   74   75 1    
   146   74  195 1    
   147   75   76 1    
   148   75   77 1    
   149   75  196 1    
   150   76  197 1    
   151   76  198 1    
   152   76  199 1    
   153   77   78 2    
   154   77   79 am   BACKBONE|DICT|INTERRES
   155   79   80 1    
   156   79  200 1    
   157   80   81 1    
   158   80   82 1    
   159   80  201 1    
   160   81  202 1    
   161   81  203 1    
   162   81  204 1    
   163   82   83 2    
   164   82   84 am   BACKBONE|DICT|INTERRES
   165   84   85 1    
   166   84  205 1    
   167   85   86 1    
   168   85   87 1    
   169   85  206 1    
   170   86  207 1    
   171   86  208 1    
   172   86  209 1    
   173   87   88 2    
   174   87   89 am   BACKBONE|DICT|INTERRES
   175   89   90 1    
   176   89  210 1    
   177   90   91 1    
   178   90   92 1    
   179   90  211 1    
   180   91  212 1    
   181   91  213 1    
   182   91  214 1    
   183   92   93 2    
   184   92   94 am   BACKBONE|DICT|INTERRES
   185   94   95 1    
   186   94  215 1    
   187   95   96 1    
   188   95   97 1    
   189   95  216 1    
   190   96  217 1    
   191   96  218 1    
   192   96  219 1    
   193   97   98 2    
   194   97   99 am   BACKBONE|DICT|INTERRES
   195   99  100 1    
   196   99  220 1    
   197  100  101 1    
   198  100  102 1    
   199  100  221 1    
   200  101  222 1    
   201  101  223 1    
   202  101  224 1    
   203  102  103 2    
   204  102  104 am   BACKBONE|DICT|INTERRES
   205  104  105 1    
   206  104  225 1    
   207  105  106 1    
   208  105  107 1    
   209  105  226 1    
   210  106  227 1    
   211  106  228 1    
   212  106  229 1    
   213  107  108 2    
   214  107  109 am   BACKBONE|DICT|INTERRES
   215  109  110 1    
   216  109  230 1    
   217  110  111 1    
   218  110  112 1    
   219  110  231 1    
   220  111  232 1    
   221  111  233 1    
   222  111  234 1    
   223  112  113 2    
   224  112  114 am   BACKBONE|DICT|INTERRES
   225  114  115 1    
   226  114  235 1    
   227  115  116 1    
   228  115  117 1    
   229  115  236 1    
   230  116  237 1    
   231  116  238 1    
   232  116  239 1    
   233  117  118 2    
   234  117  119 am   BACKBONE|DICT|INTERRES
   235  119  120 1    
   236  119  240 1    
   237  120  121 1    
   238  120  124 1    
   239  120  241 1    
   240  121  122 am   BACKBONE|DICT|INTERRES
   241  121  123 2    
   242  122  242 1    
   243  122  243 1    
   244  124  125 1    
   245  124  244 1    
   246  124  245 1    
   247  125  126 1    
   248  126  246 1    
   249  126  247 1    
@<TRIPOS>SUBSTRUCTURE
     1 UNK         1 GROUP             0       ****    0 ROOT    
