@<TRIPOS>MOLECULE
3R540
247   249    1
SMALL
USER_CHARGES


@<TRIPOS>ATOM
      1 CA         -2.0512   -8.6404  -45.8634 C.3       0 UNK        -0.1800 
      2 C          -1.1770   -9.8238  -45.4783 C.2       0 UNK         0.5000 
      3 O           0.0210   -9.8171  -45.7587 O.2       0 UNK        -0.5000 
      4 N          -1.7613  -10.8315  -44.8175 N.am      1 UNK        -0.5000 
      5 CA         -1.1187  -12.0937  -44.4156 C.3       1 UNK         0.1400 
      6 C6         -2.1452  -13.1070  -43.8586 C.3       23 UNK        -0.0398 
      7 S7         -3.4621  -13.5142  -45.0545 S.3       23 UNK        -0.2404 
      8 C8         -2.6687  -14.8436  -46.0109 C.3       23 UNK        -0.0205 
      9 C9         -3.6981  -15.8209  -46.5541 C.ar      23 UNK        -0.0193 
     10 C10        -4.0419  -15.8271  -47.9105 C.ar      23 UNK        -0.1150 
     11 C11        -4.9723  -16.7511  -48.3986 C.ar      23 UNK        -0.0193 
     12 C12        -5.5804  -17.6468  -47.5160 C.ar      23 UNK        -0.1150 
     13 C13        -5.2390  -17.6544  -46.1619 C.ar      23 UNK        -0.0193 
     14 C14        -4.2946  -16.7412  -45.6878 C.ar      23 UNK        -0.1150 
     15 C15        -5.8638  -18.6725  -45.2191 C.3       23 UNK        -0.0205 
     16 S16        -5.4695  -20.3857  -45.6975 S.3       23 UNK        -0.2404 
     17 C17        -3.6453  -20.3344  -45.7305 C.3       23 UNK        -0.0398 
     18 CA         -3.0284  -21.6894  -46.1432 C.3       11 UNK         0.1400 
     19 N          -1.7108  -21.5180  -46.7664 N.am      11 UNK        -0.5000 
     20 C          -0.9843  -22.4941  -47.3306 C.2       10 UNK         0.5000 
     21 O          -1.3314  -23.6728  -47.3806 O.2       10 UNK        -0.5000 
     22 CA          0.3983  -22.0954  -47.8725 C.3       10 UNK         0.1400 
     23 CB          0.2705  -21.3018  -49.1823 C.3       10 UNK        -0.1800 
     24 N           1.1683  -21.3296  -46.8925 N.am      10 UNK        -0.5000 
     25 C           1.5598  -21.8024  -45.7000 C.2       9 UNK         0.5000 
     26 O           1.4067  -22.9712  -45.3455 O.2       9 UNK        -0.5000 
     27 CA          2.1879  -20.7947  -44.7197 C.3       9 UNK         0.1400 
     28 CB          3.6913  -20.6372  -44.9903 C.3       9 UNK        -0.1800 
     29 N           1.5411  -19.4815  -44.7563 N.am      9 UNK        -0.5000 
     30 C           0.2653  -19.2440  -44.4172 C.2       8 UNK         0.5000 
     31 O          -0.5032  -20.1089  -43.9969 O.2       8 UNK        -0.5000 
     32 CA         -0.2546  -17.8102  -44.6401 C.3       8 UNK         0.1400 
     33 CB          0.2102  -16.8687  -43.5189 C.3       8 UNK        -0.1800 
     34 N           0.1534  -17.2724  -45.9390 N.am      8 UNK        -0.5000 
     35 C          -0.2428  -17.7784  -47.1159 C.2       7 UNK         0.5000 
     36 O          -1.0458  -18.7038  -47.2243 O.2       7 UNK        -0.5000 
     37 CA          0.4146  -17.1961  -48.3782 C.3       7 UNK         0.1400 
     38 CB         -0.3135  -15.9301  -48.8494 C.3       7 UNK        -0.1800 
     39 N           1.8328  -16.9069  -48.1669 N.am      7 UNK        -0.5000 
     40 C           2.7796  -17.8492  -48.0477 C.2       6 UNK         0.5000 
     41 O           2.5566  -19.0546  -48.1502 O.2       6 UNK        -0.5000 
     42 CA          4.2052  -17.3695  -47.7152 C.3       6 UNK         0.1400 
     43 CB          4.9617  -16.9933  -48.9976 C.3       6 UNK        -0.1800 
     44 N           4.2190  -16.2330  -46.7935 N.am      6 UNK        -0.5000 
     45 C           3.7952  -16.2788  -45.5221 C.2       5 UNK         0.5000 
     46 O           3.4058  -17.3079  -44.9728 O.2       5 UNK        -0.5000 
     47 CA          3.7478  -14.9444  -44.7538 C.3       5 UNK         0.1400 
     48 CB          5.0499  -14.7202  -43.9723 C.3       5 UNK        -0.1800 
     49 N           3.5001  -13.7892  -45.6185 N.am      5 UNK        -0.5000 
     50 C           2.3899  -13.5923  -46.3401 C.2       4 UNK         0.5000 
     51 O           1.4463  -14.3855  -46.3591 O.2       4 UNK        -0.5000 
     52 CA          2.3502  -12.3013  -47.1819 C.3       4 UNK         0.1400 
     53 CB          1.0825  -12.1909  -48.0479 C.3       4 UNK        -0.1800 
     54 N           2.4576  -11.1111  -46.3398 N.am      4 UNK        -0.5000 
     55 C           3.5900  -10.6168  -45.8209 C.2       3 UNK         0.5000 
     56 O           4.6999  -11.1178  -46.0076 O.2       3 UNK        -0.5000 
     57 CA          3.4496   -9.3876  -44.9101 C.3       3 UNK         0.1400 
     58 CB          3.1666   -8.1221  -45.7352 C.3       3 UNK        -0.1800 
     59 N           2.3692   -9.5944  -43.9481 N.am      3 UNK        -0.5000 
     60 C           2.5330  -10.0840  -42.7111 C.2       2 UNK         0.5000 
     61 O           3.6314  -10.3219  -42.2074 O.2       2 UNK        -0.5000 
     62 CA          1.2527  -10.3698  -41.8996 C.3       2 UNK         0.1400 
     63 CB          0.8519   -9.1390  -41.0725 C.3       2 UNK        -0.1800 
     64 N           0.1250  -10.7673  -42.7440 N.am      2 UNK        -0.5000 
     65 C           0.0547  -11.9206  -43.4243 C.2       1 UNK         0.5000 
     66 O           0.8817  -12.8245  -43.3081 O.2       1 UNK        -0.5000 
     67 C          -3.0228  -22.6892  -44.9644 C.2       11 UNK         0.5000 
     68 O          -3.9982  -23.4157  -44.7699 O.2       11 UNK        -0.5000 
     69 N          -1.9151  -22.7271  -44.2112 N.am      12 UNK        -0.5000 
     70 CA         -1.6940  -23.6609  -43.1080 C.3       12 UNK         0.1400 
     71 CB         -0.4658  -23.2113  -42.3020 C.3       12 UNK        -0.1800 
     72 C          -1.5482  -25.1297  -43.5574 C.2       12 UNK         0.5000 
     73 O          -1.8324  -26.0241  -42.7592 O.2       12 UNK        -0.5000 
     74 N          -1.1192  -25.3643  -44.8068 N.am      13 UNK        -0.5000 
     75 CA         -1.0165  -26.7005  -45.3953 C.3       13 UNK         0.1400 
     76 CB          0.0018  -26.6881  -46.5474 C.3       13 UNK        -0.1800 
     77 C          -2.3873  -27.2126  -45.8724 C.2       13 UNK         0.5000 
     78 O          -2.7548  -28.3468  -45.5637 O.2       13 UNK        -0.5000 
     79 N          -3.1193  -26.3590  -46.5954 N.am      14 UNK        -0.5000 
     80 CA         -4.4567  -26.5795  -47.1443 C.3       14 UNK         0.1400 
     81 CB         -4.4304  -27.6758  -48.2293 C.3       14 UNK        -0.1800 
     82 C          -4.9432  -25.2466  -47.7310 C.2       14 UNK         0.5000 
     83 O          -4.1371  -24.3281  -47.8738 O.2       14 UNK        -0.5000 
     84 N          -6.2297  -25.1536  -48.0935 N.am      15 UNK        -0.5000 
     85 CA         -6.8443  -23.9736  -48.7161 C.3       15 UNK         0.1400 
     86 CB         -8.3274  -24.2676  -48.9929 C.3       15 UNK        -0.1800 
     87 C          -6.1079  -23.5506  -50.0049 C.2       15 UNK         0.5000 
     88 O          -6.2094  -24.2442  -51.0186 O.2       15 UNK        -0.5000 
     89 N          -5.3094  -22.4763  -49.9058 N.am      16 UNK        -0.5000 
     90 CA         -4.3634  -21.9794  -50.9150 C.3       16 UNK         0.1400 
     91 CB         -5.1269  -21.3681  -52.1064 C.3       16 UNK        -0.1800 
     92 C          -3.3353  -23.0488  -51.3531 C.2       16 UNK         0.5000 
     93 O          -3.0107  -23.1461  -52.5401 O.2       16 UNK        -0.5000 
     94 N          -2.9064  -23.8843  -50.3931 N.am      17 UNK        -0.5000 
     95 CA         -2.0725  -25.0862  -50.5352 C.3       17 UNK         0.1400 
     96 CB         -0.6395  -24.7152  -50.9665 C.3       17 UNK        -0.1800 
     97 C          -2.6831  -26.1777  -51.4438 C.2       17 UNK         0.5000 
     98 O          -1.9644  -27.0866  -51.8606 O.2       17 UNK        -0.5000 
     99 N          -3.9845  -26.0588  -51.7579 N.am      18 UNK        -0.5000 
    100 CA        -4.7341  -26.8188  -52.7641 C.3       18 UNK         0.1400 
    101 CB        -4.8808  -28.2950  -52.3409 C.3       18 UNK        -0.1800 
    102 C         -4.1684  -26.6511  -54.1948 C.2       18 UNK         0.5000 
    103 O         -4.3764  -27.5233  -55.0402 O.2       18 UNK        -0.5000 
    104 N         -3.4551  -25.5415  -54.4369 N.am      19 UNK        -0.5000 
    105 CA        -2.6866  -25.2818  -55.6555 C.3       19 UNK         0.1400 
    106 CB        -1.2034  -25.5698  -55.3593 C.3       19 UNK        -0.1800 
    107 C         -2.8786  -23.8479  -56.1828 C.2       19 UNK         0.5000 
    108 O         -2.1902  -23.4658  -57.1302 O.2       19 UNK        -0.5000 
    109 N         -3.7873  -23.0771  -55.5631 N.am      20 UNK        -0.5000 
    110 CA        -4.0442  -21.6509  -55.8043 C.3       20 UNK         0.1400 
    111 CB        -4.6351  -21.4199  -57.2111 C.3       20 UNK        -0.1800 
    112 C         -2.8025  -20.7792  -55.5110 C.2       20 UNK         0.5000 
    113 O         -2.4850  -19.8622  -56.2697 O.2       20 UNK        -0.5000 
    114 N         -2.1136  -21.0972  -54.4064 N.am      21 UNK        -0.5000 
    115 CA        -0.8600  -20.4757  -53.9720 C.3       21 UNK         0.1400 
    116 CB        -0.1214  -21.4669  -53.0588 C.3       21 UNK        -0.1800 
    117 C         -1.0259  -19.1003  -53.2873 C.2       21 UNK         0.5000 
    118 O         -0.0340  -18.5455  -52.8122 O.2       21 UNK        -0.5000 
    119 N         -2.2495  -18.5644  -53.2427 N.am      22 UNK        -0.5000 
    120 CA        -2.5754  -17.2350  -52.7152 C.3       22 UNK         0.1400 
    121 C         -3.7098  -16.5612  -53.5358 C.2       22 UNK         0.5000 
    122 N         -3.9114  -15.2603  -53.3734 N.am      22 UNK        -0.7600 
    123 O         -4.4151  -17.2027  -54.3128 O.2       22 UNK        -0.5000 
    124 C124       -2.8464  -17.2637  -51.1864 C.3       23 UNK        -0.0398 
    125 S125       -4.3801  -18.1356  -50.7093 S.3       23 UNK        -0.2404 
    126 C126       -5.3183  -16.8136  -49.8776 C.3       23 UNK        -0.0205 
    127 H127       -1.6679   -7.7278  -45.4072 H         1 UNK         0.0600 
    128 H128       -2.0467   -8.5099  -46.9455 H         1 UNK         0.0600 
    129 H129       -3.0835   -8.7765  -45.5405 H         1 UNK         0.0600 
    130 H130       -2.7509  -10.7764  -44.6213 H         1 UNK         0.3000 
    131 H131       -0.6838  -12.5305  -45.3160 H         1 UNK         0.0600 
    132 H132       -1.6569  -14.0305  -43.5444 H         1 UNK         0.0800 
    133 H133       -2.6207  -12.7054  -42.9620 H         1 UNK         0.0800 
    134 H134       -1.9618  -15.3907  -45.3876 H         1 UNK         0.0800 
    135 H135       -2.0862  -14.3991  -46.8185 H         1 UNK         0.0800 
    136 H136       -3.5769  -15.1242  -48.5869 H         1 UNK         0.1150 
    137 H137       -6.2965  -18.3651  -47.8901 H         1 UNK         0.1150 
    138 H138       -4.0196  -16.7434  -44.6424 H         1 UNK         0.1150 
    139 H139       -5.5335  -18.5070  -44.1925 H         1 UNK         0.0800 
    140 H140       -6.9468  -18.5429  -45.2199 H         1 UNK         0.0800 
    141 H141       -3.2597  -19.9873  -44.7700 H         1 UNK         0.0800 
    142 H142       -3.3653  -19.5751  -46.4605 H         1 UNK         0.0800 
    143 H143       -3.6624  -22.1077  -46.9231 H         1 UNK         0.0600 
    144 H144       -1.3482  -20.5686  -46.7912 H         1 UNK         0.3000 
    145 H145        0.9456  -23.0158  -48.0867 H         1 UNK         0.0600 
    146 H146        1.2391  -21.1826  -49.6678 H         1 UNK         0.0600 
    147 H147       -0.3903  -21.8077  -49.8839 H         1 UNK         0.0600 
    148 H148       -0.1444  -20.3093  -49.0209 H         1 UNK         0.0600 
    149 H149        1.4040  -20.3753  -47.1430 H         1 UNK         0.3000 
    150 H150        2.0648  -21.1952  -43.7113 H         1 UNK         0.0600 
    151 H151        4.2006  -21.6002  -44.9381 H         1 UNK         0.0600 
    152 H152        4.1578  -19.9818  -44.2547 H         1 UNK         0.0600 
    153 H153        3.8804  -20.2186  -45.9789 H         1 UNK         0.0600 
    154 H154        2.1256  -18.6976  -45.0348 H         1 UNK         0.3000 
    155 H155       -1.3462  -17.8440  -44.6237 H         1 UNK         0.0600 
    156 H156        1.2955  -16.8518  -43.4250 H         1 UNK         0.0600 
    157 H157       -0.1945  -17.1841  -42.5566 H         1 UNK         0.0600 
    158 H158       -0.1211  -15.8458  -43.6942 H         1 UNK         0.0600 
    159 H159        0.8024  -16.4952  -45.9385 H         1 UNK         0.3000 
    160 H160        0.3298  -17.9419  -49.1714 H         1 UNK         0.0600 
    161 H161        0.0676  -15.5897  -49.8121 H         1 UNK         0.0600 
    162 H162       -0.2139  -15.1119  -48.1393 H         1 UNK         0.0600 
    163 H163       -1.3783  -16.1214  -48.9663 H         1 UNK         0.0600 
    164 H164        2.0778  -15.9412  -48.0014 H         1 UNK         0.3000 
    165 H165        4.7326  -18.1980  -47.2381 H         1 UNK         0.0600 
    166 H166        5.9960  -16.7253  -48.7811 H         1 UNK         0.0600 
    167 H167        4.9836  -17.8304  -49.6967 H         1 UNK         0.0600 
    168 H168        4.4956  -16.1503  -49.5093 H         1 UNK         0.0600 
    169 H169        4.5302  -15.3469  -47.1628 H         1 UNK         0.3000 
    170 H170        2.9245  -15.0043  -44.0390 H         1 UNK         0.0600 
    171 H171        5.2498  -15.5547  -43.2988 H         1 UNK         0.0600 
    172 H172        5.9077  -14.6214  -44.6386 H         1 UNK         0.0600 
    173 H173        4.9920  -13.8179  -43.3629 H         1 UNK         0.0600 
    174 H174        4.2120  -13.0670  -45.6428 H         1 UNK         0.3000 
    175 H175        3.2063  -12.3307  -47.8590 H         1 UNK         0.0600 
    176 H176        0.1752  -12.1794  -47.4448 H         1 UNK         0.0600 
    177 H177        1.0940  -11.2801  -48.6465 H         1 UNK         0.0600 
    178 H178        1.0079  -13.0305  -48.7395 H         1 UNK         0.0600 
    179 H179        1.5808  -10.6401  -46.1256 H         1 UNK         0.3000 
    180 H180        4.3971   -9.2420  -44.3871 H         1 UNK         0.0600 
    181 H181        2.2276   -8.1948  -46.2853 H         1 UNK         0.0600 
    182 H182        3.9603   -7.9456  -46.4621 H         1 UNK         0.0600 
    183 H183        3.1103   -7.2417  -45.0950 H         1 UNK         0.0600 
    184 H184        1.4280   -9.4803  -44.3059 H         1 UNK         0.3000 
    185 H185        1.4707  -11.1892  -41.2112 H         1 UNK         0.0600 
    186 H186        1.6647   -8.8303  -40.4138 H         1 UNK         0.0600 
    187 H187        0.6042   -8.2886  -41.7091 H         1 UNK         0.0600 
    188 H188       -0.0124   -9.3510  -40.4428 H         1 UNK         0.0600 
    189 H189       -0.6017  -10.0817  -42.8889 H         1 UNK         0.3000 
    190 H190       -1.1828  -22.0492  -44.3916 H         1 UNK         0.3000 
    191 H191       -2.5640  -23.6076  -42.4501 H         1 UNK         0.0600 
    192 H192        0.4458  -23.2557  -42.8971 H         1 UNK         0.0600 
    193 H193       -0.3176  -23.8489  -41.4296 H         1 UNK         0.0600 
    194 H194       -0.5816  -22.1889  -41.9416 H         1 UNK         0.0600 
    195 H195       -0.9339  -24.5796  -45.4205 H         1 UNK         0.3000 
    196 H196       -0.6438  -27.3909  -44.6356 H         1 UNK         0.0600 
    197 H197        0.1559  -27.6948  -46.9374 H         1 UNK         0.0600 
    198 H198        0.9704  -26.3157  -46.2134 H         1 UNK         0.0600 
    199 H199       -0.3261  -26.0655  -47.3796 H         1 UNK         0.0600 
    200 H200       -2.7572  -25.4282  -46.7869 H         1 UNK         0.3000 
    201 H201       -5.1300  -26.8676  -46.3352 H         1 UNK         0.0600 
    202 H202       -4.1840  -28.6502  -47.8085 H         1 UNK         0.0600 
    203 H203       -3.6969  -27.4557  -49.0038 H         1 UNK         0.0600 
    204 H204       -5.4006  -27.7791  -48.7164 H         1 UNK         0.0600 
    205 H205       -6.8304  -25.9556  -47.9718 H         1 UNK         0.3000 
    206 H206       -6.7917  -23.1527  -47.9977 H         1 UNK         0.0600 
    207 H207       -8.8659  -24.4842  -48.0702 H         1 UNK         0.0600 
    208 H208       -8.8143  -23.4100  -49.4590 H         1 UNK         0.0600 
    209 H209       -8.4522  -25.1197  -49.6625 H         1 UNK         0.0600 
    210 H210       -5.2637  -22.0099  -49.0109 H         1 UNK         0.3000 
    211 H211       -3.7915  -21.1826  -50.4376 H         1 UNK         0.0600 
    212 H212       -5.6149  -22.1318  -52.7126 H         1 UNK         0.0600 
    213 H213       -4.4506  -20.8083  -52.7508 H         1 UNK         0.0600 
    214 H214       -5.8934  -20.6713  -51.7678 H         1 UNK         0.0600 
    215 H215       -3.2834  -23.7605  -49.4550 H         1 UNK         0.3000 
    216 H216       -2.0110  -25.5276  -49.5395 H         1 UNK         0.0600 
    217 H217       -0.6182  -24.2547  -51.9538 H         1 UNK         0.0600 
    218 H218        0.0026  -25.5956  -51.0045 H         1 UNK         0.0600 
    219 H219       -0.1821  -24.0289  -50.2576 H         1 UNK         0.0600 
    220 H220       -4.5028  -25.2832  -51.3582 H         1 UNK         0.3000 
    221 H221       -5.7340  -26.3835  -52.7857 H         1 UNK         0.0600 
    222 H222       -3.9277  -28.8233  -52.3706 H         1 UNK         0.0600 
    223 H223       -5.2789  -28.3768  -51.3296 H         1 UNK         0.0600 
    224 H224       -5.5675  -28.8249  -53.0019 H         1 UNK         0.0600 
    225 H225       -3.3208  -24.8781  -53.6810 H         1 UNK         0.3000 
    226 H226       -3.0142  -25.9453  -56.4580 H         1 UNK         0.0600 
    227 H227       -1.0622  -26.5952  -55.0167 H         1 UNK         0.0600 
    228 H228       -0.5873  -25.4389  -56.2497 H         1 UNK         0.0600 
    229 H229       -0.8149  -24.9042  -54.5871 H         1 UNK         0.0600 
    230 H230       -4.2955  -23.4877  -54.7933 H         1 UNK         0.3000 
    231 H231       -4.8055  -21.3498  -55.0846 H         1 UNK         0.0600 
    232 H232       -5.5095  -22.0485  -57.3792 H         1 UNK         0.0600 
    233 H233       -3.9121  -21.6328  -57.9988 H         1 UNK         0.0600 
    234 H234       -4.9529  -20.3838  -57.3334 H         1 UNK         0.0600 
    235 H235       -2.4454  -21.8695  -53.8343 H         1 UNK         0.3000 
    236 H236       -0.2381  -20.3115  -54.8542 H         1 UNK         0.0600 
    237 H237        0.8503  -21.0790  -52.7505 H         1 UNK         0.0600 
    238 H238       -0.6946  -21.6734  -52.1566 H         1 UNK         0.0600 
    239 H239        0.0555  -22.4145  -53.5678 H         1 UNK         0.0600 
    240 H240       -3.0140  -19.0355  -53.7047 H         1 UNK         0.3000 
    241 H241       -1.7017  -16.6009  -52.8790 H         1 UNK         0.0600 
    242 H242       -4.6472  -14.8144  -53.8992 H         1 UNK         0.3800 
    243 H243       -3.3416  -14.7032  -52.7564 H         1 UNK         0.3800 
    244 H244       -2.0147  -17.7501  -50.6755 H         1 UNK         0.0800 
    245 H245       -2.8701  -16.2445  -50.8013 H         1 UNK         0.0800 
    246 H246       -5.1451  -15.8528  -50.3646 H         1 UNK         0.0800 
    247 H247       -6.3836  -17.0194  -49.9909 H         1 UNK         0.0800 
@<TRIPOS>BOND
     1    1    2 1    
     2    1  127 1    
     3    1  128 1    
     4    1  129 1    
     5    2    3 2    
     6    2    4 am   BACKBONE|DICT|INTERRES
     7    4    5 1    
     8    4  130 1    
     9    5    6 1    
    10    5   65 1    
    11    5  131 1    
    12    6    7 1    
    13    6  132 1    
    14    6  133 1    
    15    7    8 1    
    16    8    9 1    
    17    8  134 1    
    18    8  135 1    
    19    9   10 ar   
    20    9   14 ar   
    21   10   11 ar   
    22   10  136 1    
    23   11   12 ar   
    24   11  126 1    
    25   12   13 ar   
    26   12  137 1    
    27   13   14 ar   
    28   13   15 1    
    29   14  138 1    
    30   15   16 1    
    31   15  139 1    
    32   15  140 1    
    33   16   17 1    
    34   17   18 1    
    35   17  141 1    
    36   17  142 1    
    37   18   19 1    
    38   18   67 1    
    39   18  143 1    
    40   19   20 am   BACKBONE|DICT|INTERRES
    41   19  144 1    
    42   20   21 2    
    43   20   22 1    
    44   22   23 1    
    45   22   24 1    
    46   22  145 1    
    47   23  146 1    
    48   23  147 1    
    49   23  148 1    
    50   24   25 am   BACKBONE|DICT|INTERRES
    51   24  149 1    
    52   25   26 2    
    53   25   27 1    
    54   27   28 1    
    55   27   29 1    
    56   27  150 1    
    57   28  151 1    
    58   28  152 1    
    59   28  153 1    
    60   29   30 am   BACKBONE|DICT|INTERRES
    61   29  154 1    
    62   30   31 2    
    63   30   32 1    
    64   32   33 1    
    65   32   34 1    
    66   32  155 1    
    67   33  156 1    
    68   33  157 1    
    69   33  158 1    
    70   34   35 am   BACKBONE|DICT|INTERRES
    71   34  159 1    
    72   35   36 2    
    73   35   37 1    
    74   37   38 1    
    75   37   39 1    
    76   37  160 1    
    77   38  161 1    
    78   38  162 1    
    79   38  163 1    
    80   39   40 am   BACKBONE|DICT|INTERRES
    81   39  164 1    
    82   40   41 2    
    83   40   42 1    
    84   42   43 1    
    85   42   44 1    
    86   42  165 1    
    87   43  166 1    
    88   43  167 1    
    89   43  168 1    
    90   44   45 am   BACKBONE|DICT|INTERRES
    91   44  169 1    
    92   45   46 2    
    93   45   47 1    
    94   47   48 1    
    95   47   49 1    
    96   47  170 1    
    97   48  171 1    
    98   48  172 1    
    99   48  173 1    
   100   49   50 am   BACKBONE|DICT|INTERRES
   101   49  174 1    
   102   50   51 2    
   103   50   52 1    
   104   52   53 1    
   105   52   54 1    
   106   52  175 1    
   107   53  176 1    
   108   53  177 1    
   109   53  178 1    
   110   54   55 am   BACKBONE|DICT|INTERRES
   111   54  179 1    
   112   55   56 2    
   113   55   57 1    
   114   57   58 1    
   115   57   59 1    
   116   57  180 1    
   117   58  181 1    
   118   58  182 1    
   119   58  183 1    
   120   59   60 am   BACKBONE|DICT|INTERRES
   121   59  184 1    
   122   60   61 2    
   123   60   62 1    
   124   62   63 1    
   125   62   64 1    
   126   62  185 1    
   127   63  186 1    
   128   63  187 1    
   129   63  188 1    
   130   64   65 am   BACKBONE|DICT|INTERRES
   131   64  189 1    
   132   65   66 2    
   133   67   68 2    
   134   67   69 am   BACKBONE|DICT|INTERRES
   135   69   70 1    
   136   69  190 1    
   137   70   71 1    
   138   70   72 1    
   139   70  191 1    
   140   71  192 1    
   141   71  193 1    
   142   71  194 1    
   143   72   73 2    
   144   72   74 am   BACKBONE|DICT|INTERRES
   145   74   75 1    
   146   74  195 1    
   147   75   76 1    
   148   75   77 1    
   149   75  196 1    
   150   76  197 1    
   151   76  198 1    
   152   76  199 1    
   153   77   78 2    
   154   77   79 am   BACKBONE|DICT|INTERRES
   155   79   80 1    
   156   79  200 1    
   157   80   81 1    
   158   80   82 1    
   159   80  201 1    
   160   81  202 1    
   161   81  203 1    
   162   81  204 1    
   163   82   83 2    
   164   82   84 am   BACKBONE|DICT|INTERRES
   165   84   85 1    
   166   84  205 1    
   167   85   86 1    
   168   85   87 1    
   169   85  206 1    
   170   86  207 1    
   171   86  208 1    
   172   86  209 1    
   173   87   88 2    
   174   87   89 am   BACKBONE|DICT|INTERRES
   175   89   90 1    
   176   89  210 1    
   177   90   91 1    
   178   90   92 1    
   179   90  211 1    
   180   91  212 1    
   181   91  213 1    
   182   91  214 1    
   183   92   93 2    
   184   92   94 am   BACKBONE|DICT|INTERRES
   185   94   95 1    
   186   94  215 1    
   187   95   96 1    
   188   95   97 1    
   189   95  216 1    
   190   96  217 1    
   191   96  218 1    
   192   96  219 1    
   193   97   98 2    
   194   97   99 am   BACKBONE|DICT|INTERRES
   195   99  100 1    
   196   99  220 1    
   197  100  101 1    
   198  100  102 1    
   199  100  221 1    
   200  101  222 1    
   201  101  223 1    
   202  101  224 1    
   203  102  103 2    
   204  102  104 am   BACKBONE|DICT|INTERRES
   205  104  105 1    
   206  104  225 1    
   207  105  106 1    
   208  105  107 1    
   209  105  226 1    
   210  106  227 1    
   211  106  228 1    
   212  106  229 1    
   213  107  108 2    
   214  107  109 am   BACKBONE|DICT|INTERRES
   215  109  110 1    
   216  109  230 1    
   217  110  111 1    
   218  110  112 1    
   219  110  231 1    
   220  111  232 1    
   221  111  233 1    
   222  111  234 1    
   223  112  113 2    
   224  112  114 am   BACKBONE|DICT|INTERRES
   225  114  115 1    
   226  114  235 1    
   227  115  116 1    
   228  115  117 1    
   229  115  236 1    
   230  116  237 1    
   231  116  238 1    
   232  116  239 1    
   233  117  118 2    
   234  117  119 am   BACKBONE|DICT|INTERRES
   235  119  120 1    
   236  119  240 1    
   237  120  121 1    
   238  120  124 1    
   239  120  241 1    
   240  121  122 am   BACKBONE|DICT|INTERRES
   241  121  123 2    
   242  122  242 1    
   243  122  243 1    
   244  124  125 1    
   245  124  244 1    
   246  124  245 1    
   247  125  126 1    
   248  126  246 1    
   249  126  247 1    
@<TRIPOS>SUBSTRUCTURE
     1 UNK         1 GROUP             0       ****    0 ROOT    
