@<TRIPOS>MOLECULE
3R540
247   249    1
SMALL
USER_CHARGES


@<TRIPOS>ATOM
      1 CA         -1.6704  -13.7478  -46.3292 C.3       0 UNK        -0.1800 
      2 C          -0.4353  -13.5311  -47.1894 C.2       0 UNK         0.5000 
      3 O           0.2946  -12.5632  -46.9778 O.2       0 UNK        -0.5000 
      4 N          -0.1805  -14.4396  -48.1402 N.am      1 UNK        -0.5000 
      5 CA          0.9165  -14.3690  -49.1170 C.3       1 UNK         0.1400 
      6 C6          0.7328  -15.3838  -50.2723 C.3       23 UNK        -0.0398 
      7 S7          0.5486  -17.1268  -49.7486 S.3       23 UNK        -0.2404 
      8 C8         -0.2040  -17.8549  -51.2392 C.3       23 UNK        -0.0205 
      9 C9         -1.7110  -17.6434  -51.2943 C.ar      23 UNK        -0.0193 
     10 C10        -2.2429  -16.5517  -51.9860 C.ar      23 UNK        -0.1150 
     11 C11        -3.6252  -16.3841  -52.0948 C.ar      23 UNK        -0.0193 
     12 C12        -4.4811  -17.3156  -51.5013 C.ar      23 UNK        -0.1150 
     13 C13        -3.9647  -18.4217  -50.8236 C.ar      23 UNK        -0.0193 
     14 C14        -2.5782  -18.5733  -50.7103 C.ar      23 UNK        -0.1150 
     15 C15        -4.9090  -19.4960  -50.3055 C.3       23 UNK        -0.0205 
     16 S16        -5.6783  -19.0882  -48.7025 S.3       23 UNK        -0.2404 
     17 C17        -4.2723  -19.2036  -47.5497 C.3       23 UNK        -0.0398 
     18 CA         -3.6957  -20.6430  -47.4331 C.3       11 UNK         0.1400 
     19 N          -2.2600  -20.6495  -47.7112 N.am      11 UNK        -0.5000 
     20 C          -1.4790  -21.7288  -47.8305 C.2       10 UNK         0.5000 
     21 O          -1.8994  -22.8848  -47.8014 O.2       10 UNK        -0.5000 
     22 CA          0.0343  -21.4693  -47.9482 C.3       10 UNK         0.1400 
     23 CB          0.4705  -21.5900  -49.4128 C.3       10 UNK        -0.1800 
     24 N           0.4624  -20.1661  -47.4214 N.am      10 UNK        -0.5000 
     25 C           0.2869  -19.7447  -46.1609 C.2       9 UNK         0.5000 
     26 O          -0.3064  -20.3954  -45.2969 O.2       9 UNK        -0.5000 
     27 CA          0.7786  -18.3263  -45.8400 C.3       9 UNK         0.1400 
     28 CB         -0.3475  -17.3106  -46.0827 C.3       9 UNK        -0.1800 
     29 N           1.2133  -18.2100  -44.4519 N.am      9 UNK        -0.5000 
     30 C           2.2859  -18.8135  -43.9228 C.2       8 UNK         0.5000 
     31 O           3.0689  -19.5102  -44.5691 O.2       8 UNK        -0.5000 
     32 CA          2.5471  -18.5713  -42.4259 C.3       8 UNK         0.1400 
     33 CB          3.6377  -17.5037  -42.2494 C.3       8 UNK        -0.1800 
     34 N           1.3405  -18.1509  -41.7086 N.am      8 UNK        -0.5000 
     35 C           0.4075  -18.9960  -41.2461 C.2       7 UNK         0.5000 
     36 O           0.4953  -20.2215  -41.3232 O.2       7 UNK        -0.5000 
     37 CA         -0.8383  -18.3650  -40.5978 C.3       7 UNK         0.1400 
     38 CB         -0.6161  -18.1586  -39.0922 C.3       7 UNK        -0.1800 
     39 N          -1.2062  -17.0920  -41.2242 N.am      7 UNK        -0.5000 
     40 C          -1.8160  -17.0025  -42.4166 C.2       6 UNK         0.5000 
     41 O          -2.1359  -17.9886  -43.0774 O.2       6 UNK        -0.5000 
     42 CA         -2.0761  -15.6031  -43.0101 C.3       6 UNK         0.1400 
     43 CB         -3.4461  -15.5030  -43.7131 C.3       6 UNK        -0.1800 
     44 N          -1.8651  -14.5010  -42.0698 N.am      6 UNK        -0.5000 
     45 C          -2.6004  -14.1663  -40.9988 C.2       5 UNK         0.5000 
     46 O          -3.6518  -14.7246  -40.6831 O.2       5 UNK        -0.5000 
     47 CA         -2.0374  -13.0199  -40.1252 C.3       5 UNK         0.1400 
     48 CB         -2.5137  -13.1016  -38.6597 C.3       5 UNK        -0.1800 
     49 N          -0.5713  -12.9047  -40.1861 N.am      5 UNK        -0.5000 
     50 C           0.3201  -13.8544  -39.8615 C.2       4 UNK         0.5000 
     51 O           0.0049  -14.9709  -39.4489 O.2       4 UNK        -0.5000 
     52 CA          1.8012  -13.5118  -40.1204 C.3       4 UNK         0.1400 
     53 CB          2.7311  -14.7257  -39.9272 C.3       4 UNK        -0.1800 
     54 N           2.0203  -12.9050  -41.4407 N.am      4 UNK        -0.5000 
     55 C           1.7042  -13.4146  -42.6424 C.2       3 UNK         0.5000 
     56 O           1.1230  -14.4922  -42.8006 O.2       3 UNK        -0.5000 
     57 CA          2.0407  -12.5460  -43.8766 C.3       3 UNK         0.1400 
     58 CB          3.0724  -11.4280  -43.6026 C.3       3 UNK        -0.1800 
     59 N           2.4451  -13.3400  -45.0401 N.am      3 UNK        -0.5000 
     60 C           3.4938  -14.1742  -45.1312 C.2       2 UNK         0.5000 
     61 O           4.2922  -14.3702  -44.2141 O.2       2 UNK        -0.5000 
     62 CA          3.6951  -14.9025  -46.4764 C.3       2 UNK         0.1400 
     63 CB          4.1965  -16.3433  -46.2873 C.3       2 UNK        -0.1800 
     64 N           2.4622  -14.9177  -47.2687 N.am      2 UNK        -0.5000 
     65 C           2.3383  -14.4278  -48.5092 C.2       1 UNK         0.5000 
     66 O           3.2855  -13.9965  -49.1685 O.2       1 UNK        -0.5000 
     67 C          -4.0587  -21.3324  -46.0971 C.2       11 UNK         0.5000 
     68 O          -5.1358  -21.9212  -46.0010 O.2       11 UNK        -0.5000 
     69 N          -3.1399  -21.2983  -45.1216 N.am      12 UNK        -0.5000 
     70 CA         -3.2263  -22.0560  -43.8760 C.3       12 UNK         0.1400 
     71 CB         -2.9743  -21.1193  -42.6852 C.3       12 UNK        -0.1800 
     72 C          -2.2080  -23.2058  -43.8795 C.2       12 UNK         0.5000 
     73 O          -2.5867  -24.3505  -43.6322 O.2       12 UNK        -0.5000 
     74 N          -0.9385  -22.8887  -44.1729 N.am      13 UNK        -0.5000 
     75 CA          0.2136  -23.7822  -44.0233 C.3       13 UNK         0.1400 
     76 CB          1.5045  -22.9675  -44.2002 C.3       13 UNK        -0.1800 
     77 C           0.2119  -25.0052  -44.9595 C.2       13 UNK         0.5000 
     78 O           0.7885  -26.0330  -44.6017 O.2       13 UNK        -0.5000 
     79 N          -0.4381  -24.8826  -46.1225 N.am      14 UNK        -0.5000 
     80 CA         -0.6271  -25.9558  -47.0995 C.3       14 UNK         0.1400 
     81 CB          0.1425  -25.6038  -48.3864 C.3       14 UNK        -0.1800 
     82 C          -2.1231  -26.1873  -47.3829 C.2       14 UNK         0.5000 
     83 O          -2.4516  -26.8298  -48.3793 O.2       14 UNK        -0.5000 
     84 N          -3.0090  -25.6318  -46.5389 N.am      15 UNK        -0.5000 
     85 CA         -4.4744  -25.6746  -46.6377 C.3       15 UNK         0.1400 
     86 CB         -4.9852  -27.0805  -46.2617 C.3       15 UNK        -0.1800 
     87 C          -5.0274  -25.1839  -47.9974 C.2       15 UNK         0.5000 
     88 O          -6.0400  -25.7005  -48.4724 O.2       15 UNK        -0.5000 
     89 N          -4.3305  -24.2117  -48.6051 N.am      16 UNK        -0.5000 
     90 CA         -4.5828  -23.6115  -49.9183 C.3       16 UNK         0.1400 
     91 CB         -5.9807  -22.9602  -49.9873 C.3       16 UNK        -0.1800 
     92 C          -4.3028  -24.5435  -51.1160 C.2       16 UNK         0.5000 
     93 O          -4.6839  -24.2050  -52.2370 O.2       16 UNK        -0.5000 
     94 N          -3.5950  -25.6640  -50.9007 N.am      17 UNK        -0.5000 
     95 CA         -3.1587  -26.5676  -51.9728 C.3       17 UNK         0.1400 
     96 CB         -2.7046  -27.9046  -51.3689 C.3       17 UNK        -0.1800 
     97 C          -2.0378  -25.9669  -52.8461 C.2       17 UNK         0.5000 
     98 O          -1.8794  -26.3786  -53.9956 O.2       17 UNK        -0.5000 
     99 N          -1.2971  -24.9989  -52.2905 N.am      18 UNK        -0.5000 
    100 CA        -0.2147  -24.2645  -52.9438 C.3       18 UNK         0.1400 
    101 CB         1.1033  -24.5453  -52.1983 C.3       18 UNK        -0.1800 
    102 C         -0.5544  -22.7630  -53.0329 C.2       18 UNK         0.5000 
    103 O          0.3209  -21.9180  -52.8452 O.2       18 UNK        -0.5000 
    104 N         -1.8275  -22.4509  -53.3217 N.am      19 UNK        -0.5000 
    105 CA        -2.3357  -21.0854  -53.5071 C.3       19 UNK         0.1400 
    106 CB        -3.8707  -21.1126  -53.4584 C.3       19 UNK        -0.1800 
    107 C         -1.8484  -20.4013  -54.8028 C.2       19 UNK         0.5000 
    108 O         -1.9522  -19.1788  -54.9135 O.2       19 UNK        -0.5000 
    109 N         -1.3279  -21.1952  -55.7523 N.am      20 UNK        -0.5000 
    110 CA        -0.7413  -20.7849  -57.0307 C.3       20 UNK         0.1400 
    111 CB         0.6075  -20.0683  -56.7918 C.3       20 UNK        -0.1800 
    112 C         -1.7442  -19.9850  -57.8870 C.2       20 UNK         0.5000 
    113 O         -2.7961  -20.5250  -58.2358 O.2       20 UNK        -0.5000 
    114 N         -1.4265  -18.7180  -58.1873 N.am      21 UNK        -0.5000 
    115 CA        -2.2462  -17.7921  -58.9743 C.3       21 UNK         0.1400 
    116 CB        -1.4673  -16.4819  -59.1679 C.3       21 UNK        -0.1800 
    117 C         -3.6392  -17.5065  -58.3764 C.2       21 UNK         0.5000 
    118 O         -4.5549  -17.1657  -59.1268 O.2       21 UNK        -0.5000 
    119 N         -3.7824  -17.6677  -57.0551 N.am      22 UNK        -0.5000 
    120 CA        -5.0651  -17.5808  -56.3414 C.3       22 UNK         0.1400 
    121 C         -5.9171  -18.8839  -56.4182 C.2       22 UNK         0.5000 
    122 N         -5.4310  -19.9819  -56.9874 N.am      22 UNK        -0.7600 
    123 O         -7.0560  -18.8963  -55.9595 O.2       22 UNK        -0.5000 
    124 C124       -4.8734  -17.1379  -54.8711 C.3       23 UNK        -0.0398 
    125 S125       -4.0329  -15.5254  -54.7004 S.3       23 UNK        -0.2404 
    126 C126       -4.1952  -15.2320  -52.9082 C.3       23 UNK        -0.0205 
    127 H127       -2.4433  -13.0279  -46.5974 H         1 UNK         0.0600 
    128 H128       -1.4222  -13.6027  -45.2783 H         1 UNK         0.0600 
    129 H129       -2.0795  -14.7509  -46.4510 H         1 UNK         0.0600 
    130 H130       -0.8129  -15.2168  -48.2675 H         1 UNK         0.3000 
    131 H131        0.8475  -13.3767  -49.5685 H         1 UNK         0.0600 
    132 H132       -0.1546  -15.0964  -50.8339 H         1 UNK         0.0800 
    133 H133        1.5588  -15.3175  -50.9827 H         1 UNK         0.0800 
    134 H134        0.0162  -18.9215  -51.2661 H         1 UNK         0.0800 
    135 H135        0.2693  -17.4386  -52.1299 H         1 UNK         0.0800 
    136 H136       -1.5846  -15.8482  -52.4750 H         1 UNK         0.1150 
    137 H137       -5.5515  -17.2055  -51.6046 H         1 UNK         0.1150 
    138 H138       -2.1717  -19.4378  -50.2070 H         1 UNK         0.1150 
    139 H139       -5.7059  -19.6477  -51.0351 H         1 UNK         0.0800 
    140 H140       -4.3865  -20.4488  -50.2465 H         1 UNK         0.0800 
    141 H141       -4.5962  -18.8157  -46.5819 H         1 UNK         0.0800 
    142 H142       -3.5176  -18.4942  -47.8925 H         1 UNK         0.0800 
    143 H143       -4.1447  -21.2749  -48.1969 H         1 UNK         0.0600 
    144 H144       -1.8060  -19.7494  -47.7302 H         1 UNK         0.3000 
    145 H145        0.5423  -22.2457  -47.3740 H         1 UNK         0.0600 
    146 H146        0.1804  -22.5548  -49.8265 H         1 UNK         0.0600 
    147 H147        1.5521  -21.5034  -49.5169 H         1 UNK         0.0600 
    148 H148        0.0081  -20.8248  -50.0341 H         1 UNK         0.0600 
    149 H149        0.9385  -19.5598  -48.0747 H         1 UNK         0.3000 
    150 H150        1.6214  -18.0871  -46.4911 H         1 UNK         0.0600 
    151 H151       -0.6551  -17.3019  -47.1272 H         1 UNK         0.0600 
    152 H152       -0.0297  -16.3021  -45.8218 H         1 UNK         0.0600 
    153 H153       -1.2346  -17.5448  -45.4949 H         1 UNK         0.0600 
    154 H154        0.5983  -17.7140  -43.8265 H         1 UNK         0.3000 
    155 H155        2.9149  -19.5066  -41.9985 H         1 UNK         0.0600 
    156 H156        3.3200  -16.5352  -42.6383 H         1 UNK         0.0600 
    157 H157        4.5493  -17.7831  -42.7793 H         1 UNK         0.0600 
    158 H158        3.9018  -17.3794  -41.1994 H         1 UNK         0.0600 
    159 H159        1.1921  -17.1572  -41.6025 H         1 UNK         0.3000 
    160 H160       -1.6697  -19.0627  -40.7187 H         1 UNK         0.0600 
    161 H161        0.2566  -17.5359  -38.8934 H         1 UNK         0.0600 
    162 H162       -0.4549  -19.1134  -38.5904 H         1 UNK         0.0600 
    163 H163       -1.4802  -17.6859  -38.6250 H         1 UNK         0.0600 
    164 H164       -0.9518  -16.2474  -40.7221 H         1 UNK         0.3000 
    165 H165       -1.3115  -15.4744  -43.7759 H         1 UNK         0.0600 
    166 H166       -3.6195  -14.5010  -44.1052 H         1 UNK         0.0600 
    167 H167       -4.2675  -15.7469  -43.0393 H         1 UNK         0.0600 
    168 H168       -3.5035  -16.1942  -44.5549 H         1 UNK         0.0600 
    169 H169       -0.9854  -14.0168  -42.1934 H         1 UNK         0.3000 
    170 H170       -2.4349  -12.0970  -40.5496 H         1 UNK         0.0600 
    171 H171       -3.6006  -13.0389  -38.5963 H         1 UNK         0.0600 
    172 H172       -2.2129  -14.0373  -38.1874 H         1 UNK         0.0600 
    173 H173       -2.1086  -12.2814  -38.0672 H         1 UNK         0.0600 
    174 H174       -0.2165  -12.0273  -40.5405 H         1 UNK         0.3000 
    175 H175        2.0787  -12.7604  -39.3799 H         1 UNK         0.0600 
    176 H176        2.4458  -15.5500  -40.5783 H         1 UNK         0.0600 
    177 H177        3.7690  -14.4707  -40.1408 H         1 UNK         0.0600 
    178 H178        2.6886  -15.0919  -38.9008 H         1 UNK         0.0600 
    179 H179        2.4812  -12.0058  -41.4275 H         1 UNK         0.3000 
    180 H180        1.1047  -12.0633  -44.1609 H         1 UNK         0.0600 
    181 H181        4.0141  -11.8258  -43.2223 H         1 UNK         0.0600 
    182 H182        2.6965  -10.7051  -42.8779 H         1 UNK         0.0600 
    183 H183        3.2941  -10.8718  -44.5137 H         1 UNK         0.0600 
    184 H184        1.8542  -13.2202  -45.8557 H         1 UNK         0.3000 
    185 H185        4.4746  -14.3460  -47.0002 H         1 UNK         0.0600 
    186 H186        5.1780  -16.3590  -45.8124 H         1 UNK         0.0600 
    187 H187        3.5217  -16.9162  -45.6562 H         1 UNK         0.0600 
    188 H188        4.2892  -16.8611  -47.2420 H         1 UNK         0.0600 
    189 H189        1.6309  -15.2458  -46.8006 H         1 UNK         0.3000 
    190 H190       -2.2644  -20.8119  -45.2850 H         1 UNK         0.3000 
    191 H191       -4.2202  -22.4913  -43.7530 H         1 UNK         0.0600 
    192 H192       -3.0339  -21.6602  -41.7401 H         1 UNK         0.0600 
    193 H193       -3.7135  -20.3189  -42.6512 H         1 UNK         0.0600 
    194 H194       -1.9874  -20.6585  -42.7384 H         1 UNK         0.0600 
    195 H195       -0.7164  -21.9244  -44.4123 H         1 UNK         0.3000 
    196 H196        0.1962  -24.1628  -43.0000 H         1 UNK         0.0600 
    197 H197        1.5858  -22.5507  -45.2040 H         1 UNK         0.0600 
    198 H198        1.5484  -22.1392  -43.4920 H         1 UNK         0.0600 
    199 H199        2.3858  -23.5872  -44.0301 H         1 UNK         0.0600 
    200 H200       -0.8972  -24.0076  -46.3448 H         1 UNK         0.3000 
    201 H201       -0.2375  -26.9005  -46.7162 H         1 UNK         0.0600 
    202 H202       -0.2742  -24.7250  -48.8768 H         1 UNK         0.0600 
    203 H203        0.1062  -26.4247  -49.1037 H         1 UNK         0.0600 
    204 H204        1.1934  -25.4047  -48.1767 H         1 UNK         0.0600 
    205 H205       -2.6457  -25.1505  -45.7262 H         1 UNK         0.3000 
    206 H206       -4.8500  -24.9736  -45.8907 H         1 UNK         0.0600 
    207 H207       -4.6029  -27.3909  -45.2892 H         1 UNK         0.0600 
    208 H208       -6.0739  -27.1010  -46.2013 H         1 UNK         0.0600 
    209 H209       -4.6824  -27.8281  -46.9956 H         1 UNK         0.0600 
    210 H210       -3.4879  -23.8788  -48.1429 H         1 UNK         0.3000 
    211 H211       -3.8479  -22.8118  -50.0117 H         1 UNK         0.0600 
    212 H212       -6.0842  -22.3474  -50.8832 H         1 UNK         0.0600 
    213 H213       -6.1618  -22.3127  -49.1294 H         1 UNK         0.0600 
    214 H214       -6.7752  -23.7057  -50.0165 H         1 UNK         0.0600 
    215 H215       -3.3182  -25.9144  -49.9561 H         1 UNK         0.3000 
    216 H216       -4.0147  -26.7648  -52.6217 H         1 UNK         0.0600 
    217 H217       -1.8019  -27.7889  -50.7681 H         1 UNK         0.0600 
    218 H218       -2.4829  -28.6299  -52.1527 H         1 UNK         0.0600 
    219 H219       -3.4786  -28.3366  -50.7343 H         1 UNK         0.0600 
    220 H220       -1.5195  -24.7209  -51.3461 H         1 UNK         0.3000 
    221 H221       -0.0895  -24.6059  -53.9731 H         1 UNK         0.0600 
    222 H222        1.3344  -25.6106  -52.2033 H         1 UNK         0.0600 
    223 H223        1.0606  -24.2218  -51.1592 H         1 UNK         0.0600 
    224 H224        1.9419  -24.0322  -52.6706 H         1 UNK         0.0600 
    225 H225       -2.4945  -23.2005  -53.4444 H         1 UNK         0.3000 
    226 H226       -1.9786  -20.4786  -52.6739 H         1 UNK         0.0600 
    227 H227       -4.2891  -21.7146  -54.2658 H         1 UNK         0.0600 
    228 H228       -4.2274  -21.5225  -52.5147 H         1 UNK         0.0600 
    229 H229       -4.2855  -20.1088  -53.5482 H         1 UNK         0.0600 
    230 H230       -1.3392  -22.1893  -55.5794 H         1 UNK         0.3000 
    231 H231       -0.5332  -21.7007  -57.5857 H         1 UNK         0.0600 
    232 H232        0.4917  -19.1458  -56.2216 H         1 UNK         0.0600 
    233 H233        1.0973  -19.8220  -57.7348 H         1 UNK         0.0600 
    234 H234        1.2920  -20.7098  -56.2364 H         1 UNK         0.0600 
    235 H235       -0.5567  -18.3506  -57.8301 H         1 UNK         0.3000 
    236 H236       -2.4025  -18.2456  -59.9552 H         1 UNK         0.0600 
    237 H237       -0.5178  -16.6568  -59.6741 H         1 UNK         0.0600 
    238 H238       -2.0335  -15.7765  -59.7776 H         1 UNK         0.0600 
    239 H239       -1.2570  -15.9960  -58.2142 H         1 UNK         0.0600 
    240 H240       -2.9878  -17.9691  -56.5035 H         1 UNK         0.3000 
    241 H241       -5.6681  -16.8108  -56.8264 H         1 UNK         0.0600 
    242 H242       -4.5023  -20.0045  -57.3958 H         1 UNK         0.3800 
    243 H243       -6.0087  -20.8059  -57.0317 H         1 UNK         0.3800 
    244 H244       -5.8367  -17.0689  -54.3624 H         1 UNK         0.0800 
    245 H245       -4.2917  -17.8875  -54.3346 H         1 UNK         0.0800 
    246 H246       -3.6743  -14.3094  -52.6487 H         1 UNK         0.0800 
    247 H247       -5.2462  -15.0702  -52.6638 H         1 UNK         0.0800 
@<TRIPOS>BOND
     1    1    2 1    
     2    1  127 1    
     3    1  128 1    
     4    1  129 1    
     5    2    3 2    
     6    2    4 am   BACKBONE|DICT|INTERRES
     7    4    5 1    
     8    4  130 1    
     9    5    6 1    
    10    5   65 1    
    11    5  131 1    
    12    6    7 1    
    13    6  132 1    
    14    6  133 1    
    15    7    8 1    
    16    8    9 1    
    17    8  134 1    
    18    8  135 1    
    19    9   10 ar   
    20    9   14 ar   
    21   10   11 ar   
    22   10  136 1    
    23   11   12 ar   
    24   11  126 1    
    25   12   13 ar   
    26   12  137 1    
    27   13   14 ar   
    28   13   15 1    
    29   14  138 1    
    30   15   16 1    
    31   15  139 1    
    32   15  140 1    
    33   16   17 1    
    34   17   18 1    
    35   17  141 1    
    36   17  142 1    
    37   18   19 1    
    38   18   67 1    
    39   18  143 1    
    40   19   20 am   BACKBONE|DICT|INTERRES
    41   19  144 1    
    42   20   21 2    
    43   20   22 1    
    44   22   23 1    
    45   22   24 1    
    46   22  145 1    
    47   23  146 1    
    48   23  147 1    
    49   23  148 1    
    50   24   25 am   BACKBONE|DICT|INTERRES
    51   24  149 1    
    52   25   26 2    
    53   25   27 1    
    54   27   28 1    
    55   27   29 1    
    56   27  150 1    
    57   28  151 1    
    58   28  152 1    
    59   28  153 1    
    60   29   30 am   BACKBONE|DICT|INTERRES
    61   29  154 1    
    62   30   31 2    
    63   30   32 1    
    64   32   33 1    
    65   32   34 1    
    66   32  155 1    
    67   33  156 1    
    68   33  157 1    
    69   33  158 1    
    70   34   35 am   BACKBONE|DICT|INTERRES
    71   34  159 1    
    72   35   36 2    
    73   35   37 1    
    74   37   38 1    
    75   37   39 1    
    76   37  160 1    
    77   38  161 1    
    78   38  162 1    
    79   38  163 1    
    80   39   40 am   BACKBONE|DICT|INTERRES
    81   39  164 1    
    82   40   41 2    
    83   40   42 1    
    84   42   43 1    
    85   42   44 1    
    86   42  165 1    
    87   43  166 1    
    88   43  167 1    
    89   43  168 1    
    90   44   45 am   BACKBONE|DICT|INTERRES
    91   44  169 1    
    92   45   46 2    
    93   45   47 1    
    94   47   48 1    
    95   47   49 1    
    96   47  170 1    
    97   48  171 1    
    98   48  172 1    
    99   48  173 1    
   100   49   50 am   BACKBONE|DICT|INTERRES
   101   49  174 1    
   102   50   51 2    
   103   50   52 1    
   104   52   53 1    
   105   52   54 1    
   106   52  175 1    
   107   53  176 1    
   108   53  177 1    
   109   53  178 1    
   110   54   55 am   BACKBONE|DICT|INTERRES
   111   54  179 1    
   112   55   56 2    
   113   55   57 1    
   114   57   58 1    
   115   57   59 1    
   116   57  180 1    
   117   58  181 1    
   118   58  182 1    
   119   58  183 1    
   120   59   60 am   BACKBONE|DICT|INTERRES
   121   59  184 1    
   122   60   61 2    
   123   60   62 1    
   124   62   63 1    
   125   62   64 1    
   126   62  185 1    
   127   63  186 1    
   128   63  187 1    
   129   63  188 1    
   130   64   65 am   BACKBONE|DICT|INTERRES
   131   64  189 1    
   132   65   66 2    
   133   67   68 2    
   134   67   69 am   BACKBONE|DICT|INTERRES
   135   69   70 1    
   136   69  190 1    
   137   70   71 1    
   138   70   72 1    
   139   70  191 1    
   140   71  192 1    
   141   71  193 1    
   142   71  194 1    
   143   72   73 2    
   144   72   74 am   BACKBONE|DICT|INTERRES
   145   74   75 1    
   146   74  195 1    
   147   75   76 1    
   148   75   77 1    
   149   75  196 1    
   150   76  197 1    
   151   76  198 1    
   152   76  199 1    
   153   77   78 2    
   154   77   79 am   BACKBONE|DICT|INTERRES
   155   79   80 1    
   156   79  200 1    
   157   80   81 1    
   158   80   82 1    
   159   80  201 1    
   160   81  202 1    
   161   81  203 1    
   162   81  204 1    
   163   82   83 2    
   164   82   84 am   BACKBONE|DICT|INTERRES
   165   84   85 1    
   166   84  205 1    
   167   85   86 1    
   168   85   87 1    
   169   85  206 1    
   170   86  207 1    
   171   86  208 1    
   172   86  209 1    
   173   87   88 2    
   174   87   89 am   BACKBONE|DICT|INTERRES
   175   89   90 1    
   176   89  210 1    
   177   90   91 1    
   178   90   92 1    
   179   90  211 1    
   180   91  212 1    
   181   91  213 1    
   182   91  214 1    
   183   92   93 2    
   184   92   94 am   BACKBONE|DICT|INTERRES
   185   94   95 1    
   186   94  215 1    
   187   95   96 1    
   188   95   97 1    
   189   95  216 1    
   190   96  217 1    
   191   96  218 1    
   192   96  219 1    
   193   97   98 2    
   194   97   99 am   BACKBONE|DICT|INTERRES
   195   99  100 1    
   196   99  220 1    
   197  100  101 1    
   198  100  102 1    
   199  100  221 1    
   200  101  222 1    
   201  101  223 1    
   202  101  224 1    
   203  102  103 2    
   204  102  104 am   BACKBONE|DICT|INTERRES
   205  104  105 1    
   206  104  225 1    
   207  105  106 1    
   208  105  107 1    
   209  105  226 1    
   210  106  227 1    
   211  106  228 1    
   212  106  229 1    
   213  107  108 2    
   214  107  109 am   BACKBONE|DICT|INTERRES
   215  109  110 1    
   216  109  230 1    
   217  110  111 1    
   218  110  112 1    
   219  110  231 1    
   220  111  232 1    
   221  111  233 1    
   222  111  234 1    
   223  112  113 2    
   224  112  114 am   BACKBONE|DICT|INTERRES
   225  114  115 1    
   226  114  235 1    
   227  115  116 1    
   228  115  117 1    
   229  115  236 1    
   230  116  237 1    
   231  116  238 1    
   232  116  239 1    
   233  117  118 2    
   234  117  119 am   BACKBONE|DICT|INTERRES
   235  119  120 1    
   236  119  240 1    
   237  120  121 1    
   238  120  124 1    
   239  120  241 1    
   240  121  122 am   BACKBONE|DICT|INTERRES
   241  121  123 2    
   242  122  242 1    
   243  122  243 1    
   244  124  125 1    
   245  124  244 1    
   246  124  245 1    
   247  125  126 1    
   248  126  246 1    
   249  126  247 1    
@<TRIPOS>SUBSTRUCTURE
     1 UNK         1 GROUP             0       ****    0 ROOT    
