@<TRIPOS>MOLECULE
3R540
247   249    1
SMALL
USER_CHARGES


@<TRIPOS>ATOM
      1 CA          0.0088  -18.4129  -50.5602 C.3       0 UNK        -0.1800 
      2 C           0.3359  -17.6316  -49.2962 C.2       0 UNK         0.5000 
      3 O           0.4513  -18.2264  -48.2250 O.2       0 UNK        -0.5000 
      4 N           0.4582  -16.3020  -49.4177 N.am      1 UNK        -0.5000 
      5 CA          0.7871  -15.3632  -48.3350 C.3       1 UNK         0.1400 
      6 C6          2.2432  -15.5192  -47.8180 C.3       23 UNK        -0.0398 
      7 S7          3.4612  -14.9813  -49.0648 S.3       23 UNK        -0.2404 
      8 C8          4.6492  -16.3653  -49.0823 C.3       23 UNK        -0.0205 
      9 C9          4.2719  -17.5020  -50.0280 C.ar      23 UNK        -0.0193 
     10 C10         3.8564  -17.2418  -51.3391 C.ar      23 UNK        -0.1150 
     11 C11         3.5929  -18.2893  -52.2266 C.ar      23 UNK        -0.0193 
     12 C12         3.7427  -19.6097  -51.7942 C.ar      23 UNK        -0.1150 
     13 C13         4.1705  -19.8879  -50.4921 C.ar      23 UNK        -0.0193 
     14 C14         4.4297  -18.8286  -49.6152 C.ar      23 UNK        -0.1150 
     15 C15         4.4057  -21.3326  -50.0607 C.3       23 UNK        -0.0205 
     16 S16         3.5492  -21.7770  -48.5154 S.3       23 UNK        -0.2404 
     17 C17         1.8239  -21.4086  -48.9653 C.3       23 UNK        -0.0398 
     18 CA          0.8002  -22.2163  -48.1384 C.3       11 UNK         0.1400 
     19 N           0.9500  -22.0213  -46.6950 N.am      11 UNK        -0.5000 
     20 C           0.3166  -22.7435  -45.7605 C.2       10 UNK         0.5000 
     21 O          -0.4204  -23.6956  -46.0172 O.2       10 UNK        -0.5000 
     22 CA          0.4947  -22.2982  -44.2967 C.3       10 UNK         0.1400 
     23 CB          1.6289  -23.0891  -43.6315 C.3       10 UNK        -0.1800 
     24 N           0.7335  -20.8568  -44.1540 N.am      10 UNK        -0.5000 
     25 C          -0.1554  -19.9135  -44.5077 C.2       9 UNK         0.5000 
     26 O          -1.2642  -20.1913  -44.9682 O.2       9 UNK        -0.5000 
     27 CA          0.2403  -18.4323  -44.3411 C.3       9 UNK         0.1400 
     28 CB         -0.8640  -17.6403  -43.6237 C.3       9 UNK        -0.1800 
     29 N           1.4948  -18.2630  -43.6066 N.am      9 UNK        -0.5000 
     30 C           2.7003  -18.0926  -44.1688 C.2       8 UNK         0.5000 
     31 O           2.8889  -18.0383  -45.3826 O.2       8 UNK        -0.5000 
     32 CA          3.9148  -18.0100  -43.2201 C.3       8 UNK         0.1400 
     33 CB          4.3076  -16.5516  -42.9537 C.3       8 UNK        -0.1800 
     34 N           3.6967  -18.6915  -41.9426 N.am      8 UNK        -0.5000 
     35 C           3.5505  -20.0180  -41.8235 C.2       7 UNK         0.5000 
     36 O           3.6557  -20.7912  -42.7746 O.2       7 UNK        -0.5000 
     37 CA          3.1921  -20.5860  -40.4372 C.3       7 UNK         0.1400 
     38 CB          4.4256  -21.2327  -39.7890 C.3       7 UNK        -0.1800 
     39 N           2.6167  -19.6206  -39.4976 N.am      7 UNK        -0.5000 
     40 C           1.4771  -18.9333  -39.6587 C.2       6 UNK         0.5000 
     41 O           0.7978  -18.9710  -40.6868 O.2       6 UNK        -0.5000 
     42 CA          1.0110  -18.0630  -38.4690 C.3       6 UNK         0.1400 
     43 CB          1.9744  -18.0776  -37.2595 C.3       6 UNK        -0.1800 
     44 N           0.7144  -16.6762  -38.8397 N.am      6 UNK        -0.5000 
     45 C           1.5216  -15.8149  -39.4735 C.2       5 UNK         0.5000 
     46 O           2.6300  -16.1046  -39.9308 O.2       5 UNK        -0.5000 
     47 CA          1.0297  -14.3586  -39.5330 C.3       5 UNK         0.1400 
     48 CB          1.7285  -13.5166  -38.4540 C.3       5 UNK        -0.1800 
     49 N           1.2843  -13.7580  -40.8397 N.am      5 UNK        -0.5000 
     50 C           0.4889  -13.9157  -41.9026 C.2       4 UNK         0.5000 
     51 O          -0.5456  -14.5863  -41.8829 O.2       4 UNK        -0.5000 
     52 CA          0.9323  -13.1964  -43.1915 C.3       4 UNK         0.1400 
     53 CB          2.0716  -13.9561  -43.8857 C.3       4 UNK        -0.1800 
     54 N          -0.1733  -13.0282  -44.1352 N.am      4 UNK        -0.5000 
     55 C          -1.1377  -12.1049  -44.0065 C.2       3 UNK         0.5000 
     56 O          -1.1705  -11.2880  -43.0842 O.2       3 UNK        -0.5000 
     57 CA         -2.2343  -12.0419  -45.0904 C.3       3 UNK         0.1400 
     58 CB         -2.0507  -10.7915  -45.9659 C.3       3 UNK        -0.1800 
     59 N          -2.2686  -13.2148  -45.9630 N.am      3 UNK        -0.5000 
     60 C          -2.8342  -14.3878  -45.6512 C.2       2 UNK         0.5000 
     61 O          -3.4340  -14.5996  -44.5973 O.2       2 UNK        -0.5000 
     62 CA         -2.7160  -15.5156  -46.6981 C.3       2 UNK         0.1400 
     63 CB         -3.9907  -15.5660  -47.5564 C.3       2 UNK        -0.1800 
     64 N          -1.5531  -15.4157  -47.5898 N.am      2 UNK        -0.5000 
     65 C          -0.2680  -15.3846  -47.2038 C.2       1 UNK         0.5000 
     66 O           0.0794  -15.3509  -46.0244 O.2       1 UNK        -0.5000 
     67 C          -0.6359  -21.8997  -48.5981 C.2       11 UNK         0.5000 
     68 O          -1.1959  -22.6692  -49.3752 O.2       11 UNK        -0.5000 
     69 N          -1.2265  -20.8125  -48.0765 N.am      12 UNK        -0.5000 
     70 CA         -2.6189  -20.4348  -48.3210 C.3       12 UNK         0.1400 
     71 CB         -2.9094  -19.0343  -47.7657 C.3       12 UNK        -0.1800 
     72 C          -3.6095  -21.4542  -47.7434 C.2       12 UNK         0.5000 
     73 O          -4.5913  -21.7771  -48.4111 O.2       12 UNK        -0.5000 
     74 N          -3.3209  -21.9663  -46.5390 N.am      13 UNK        -0.5000 
     75 CA         -4.0987  -23.0204  -45.8859 C.3       13 UNK         0.1400 
     76 CB         -3.5875  -23.2372  -44.4539 C.3       13 UNK        -0.1800 
     77 C          -4.0911  -24.3341  -46.6906 C.2       13 UNK         0.5000 
     78 O          -5.1572  -24.9003  -46.9359 O.2       13 UNK        -0.5000 
     79 N          -2.9009  -24.7562  -47.1433 N.am      14 UNK        -0.5000 
     80 CA         -2.7000  -25.9137  -48.0211 C.3       14 UNK         0.1400 
     81 CB         -1.1948  -26.1765  -48.1776 C.3       14 UNK        -0.1800 
     82 C          -3.3694  -25.7508  -49.4008 C.2       14 UNK         0.5000 
     83 O          -3.8778  -26.7264  -49.9528 O.2       14 UNK        -0.5000 
     84 N          -3.3970  -24.5117  -49.9063 N.am      15 UNK        -0.5000 
     85 CA         -4.0584  -24.0943  -51.1423 C.3       15 UNK         0.1400 
     86 CB         -3.3707  -22.8196  -51.6555 C.3       15 UNK        -0.1800 
     87 C          -5.5818  -23.8829  -51.0058 C.2       15 UNK         0.5000 
     88 O          -6.1835  -23.3351  -51.9311 O.2       15 UNK        -0.5000 
     89 N          -6.1754  -24.2999  -49.8765 N.am      16 UNK        -0.5000 
     90 CA         -7.6024  -24.2445  -49.5444 C.3       16 UNK         0.1400 
     91 CB         -8.4253  -25.1352  -50.4992 C.3       16 UNK        -0.1800 
     92 C          -8.1244  -22.7977  -49.4578 C.2       16 UNK         0.5000 
     93 O          -9.0610  -22.4272  -50.1666 O.2       16 UNK        -0.5000 
     94 N          -7.4740  -22.0070  -48.5931 N.am      17 UNK        -0.5000 
     95 CA         -7.6782  -20.5714  -48.3681 C.3       17 UNK         0.1400 
     96 CB         -9.1010  -20.2720  -47.8501 C.3       17 UNK        -0.1800 
     97 C          -7.2800  -19.7394  -49.6034 C.2       17 UNK         0.5000 
     98 O          -7.9947  -18.8144  -49.9928 O.2       17 UNK        -0.5000 
     99 N          -6.1314  -20.1079  -50.1902 N.am      18 UNK        -0.5000 
    100 CA        -5.5099  -19.5252  -51.3828 C.3       18 UNK         0.1400 
    101 CB        -4.9975  -18.0990  -51.0926 C.3       18 UNK        -0.1800 
    102 C         -6.3939  -19.6089  -52.6458 C.2       18 UNK         0.5000 
    103 O         -6.3582  -18.7042  -53.4809 O.2       18 UNK        -0.5000 
    104 N         -7.1552  -20.7045  -52.7813 N.am      19 UNK        -0.5000 
    105 CA        -7.9099  -21.0345  -53.9910 C.3       19 UNK         0.1400 
    106 CB        -8.9432  -22.1278  -53.6809 C.3       19 UNK        -0.1800 
    107 C         -6.9609  -21.4688  -55.1212 C.2       19 UNK         0.5000 
    108 O         -7.0978  -21.0011  -56.2524 O.2       19 UNK        -0.5000 
    109 N         -5.9651  -22.2954  -54.7734 N.am      20 UNK        -0.5000 
    110 CA        -4.8165  -22.6256  -55.6170 C.3       20 UNK         0.1400 
    111 CB        -4.3386  -24.0492  -55.2797 C.3       20 UNK        -0.1800 
    112 C         -3.7200  -21.5569  -55.4275 C.2       20 UNK         0.5000 
    113 O         -2.6665  -21.8386  -54.8545 O.2       20 UNK        -0.5000 
    114 N         -4.0302  -20.3258  -55.8529 N.am      21 UNK        -0.5000 
    115 CA        -3.2106  -19.1238  -55.6903 C.3       21 UNK         0.1400 
    116 CB        -4.0195  -17.9172  -56.1944 C.3       21 UNK        -0.1800 
    117 C         -1.8460  -19.1887  -56.4070 C.2       21 UNK         0.5000 
    118 O         -1.6625  -19.9794  -57.3362 O.2       21 UNK        -0.5000 
    119 N         -0.9289  -18.3138  -55.9754 N.am      22 UNK        -0.5000 
    120 CA         0.4407  -18.1697  -56.5024 C.3       22 UNK         0.1400 
    121 C          0.5406  -17.6942  -57.9842 C.2       22 UNK         0.5000 
    122 N         -0.5060  -17.1363  -58.5808 N.am      22 UNK        -0.7600 
    123 O          1.5919  -17.8344  -58.6031 O.2       22 UNK        -0.5000 
    124 C124        1.3008  -17.2468  -55.5989 C.3       23 UNK        -0.0398 
    125 S125        1.4054  -17.8071  -53.8626 S.3       23 UNK        -0.2404 
    126 C126        3.2038  -17.9911  -53.6670 C.3       23 UNK        -0.0205 
    127 H127        0.8801  -18.9814  -50.8844 H         1 UNK         0.0600 
    128 H128       -0.2922  -17.7523  -51.3728 H         1 UNK         0.0600 
    129 H129       -0.8069  -19.1109  -50.3778 H         1 UNK         0.0600 
    130 H130        0.3582  -15.8851  -50.3322 H         1 UNK         0.3000 
    131 H131        0.7022  -14.3653  -48.7680 H         1 UNK         0.0600 
    132 H132        2.4364  -16.5493  -47.5175 H         1 UNK         0.0800 
    133 H133        2.4171  -14.9077  -46.9318 H         1 UNK         0.0800 
    134 H134        4.7870  -16.7325  -48.0638 H         1 UNK         0.0800 
    135 H135        5.6183  -15.9771  -49.3976 H         1 UNK         0.0800 
    136 H136        3.7595  -16.2202  -51.6784 H         1 UNK         0.1150 
    137 H137        3.5524  -20.4201  -52.4839 H         1 UNK         0.1150 
    138 H138        4.7770  -19.0413  -48.6137 H         1 UNK         0.1150 
    139 H139        4.0956  -22.0268  -50.8433 H         1 UNK         0.0800 
    140 H140        5.4768  -21.4855  -49.9234 H         1 UNK         0.0800 
    141 H141        1.6880  -21.6095  -50.0298 H         1 UNK         0.0800 
    142 H142        1.6754  -20.3388  -48.8326 H         1 UNK         0.0800 
    143 H143        0.9750  -23.2754  -48.3407 H         1 UNK         0.0600 
    144 H144        1.5454  -21.2607  -46.4017 H         1 UNK         0.3000 
    145 H145       -0.4320  -22.5317  -43.7690 H         1 UNK         0.0600 
    146 H146        1.7195  -22.8380  -42.5749 H         1 UNK         0.0600 
    147 H147        1.4443  -24.1623  -43.6939 H         1 UNK         0.0600 
    148 H148        2.5892  -22.8943  -44.1103 H         1 UNK         0.0600 
    149 H149        1.6341  -20.5756  -43.7881 H         1 UNK         0.3000 
    150 H150        0.3407  -18.0220  -45.3479 H         1 UNK         0.0600 
    151 H151       -1.8213  -17.7365  -44.1368 H         1 UNK         0.0600 
    152 H152       -0.6229  -16.5784  -43.6007 H         1 UNK         0.0600 
    153 H153       -1.0032  -17.9779  -42.5963 H         1 UNK         0.0600 
    154 H154        1.4281  -18.3411  -42.5971 H         1 UNK         0.3000 
    155 H155        4.7530  -18.4964  -43.7238 H         1 UNK         0.0600 
    156 H156        3.5275  -16.0272  -42.4037 H         1 UNK         0.0600 
    157 H157        4.4761  -16.0134  -43.8875 H         1 UNK         0.0600 
    158 H158        5.2266  -16.4900  -42.3708 H         1 UNK         0.0600 
    159 H159        3.5677  -18.1073  -41.1266 H         1 UNK         0.3000 
    160 H160        2.4447  -21.3653  -40.5979 H         1 UNK         0.0600 
    161 H161        5.1989  -20.4945  -39.5728 H         1 UNK         0.0600 
    162 H162        4.8645  -21.9852  -40.4458 H         1 UNK         0.0600 
    163 H163        4.1660  -21.7323  -38.8554 H         1 UNK         0.0600 
    164 H164        3.1149  -19.5027  -38.6274 H         1 UNK         0.3000 
    165 H165        0.0666  -18.4982  -38.1391 H         1 UNK         0.0600 
    166 H166        1.5714  -17.4876  -36.4360 H         1 UNK         0.0600 
    167 H167        2.1223  -19.0886  -36.8777 H         1 UNK         0.0600 
    168 H168        2.9520  -17.6632  -37.5098 H         1 UNK         0.0600 
    169 H169       -0.1897  -16.3408  -38.5384 H         1 UNK         0.3000 
    170 H170       -0.0442  -14.3350  -39.3341 H         1 UNK         0.0600 
    171 H171        1.5434  -13.9250  -37.4596 H         1 UNK         0.0600 
    172 H172        2.8091  -13.4889  -38.6007 H         1 UNK         0.0600 
    173 H173        1.3627  -12.4896  -38.4560 H         1 UNK         0.0600 
    174 H174        2.1445  -13.2380  -40.9340 H         1 UNK         0.3000 
    175 H175        1.3032  -12.2053  -42.9211 H         1 UNK         0.0600 
    176 H176        1.8161  -15.0033  -44.0529 H         1 UNK         0.0600 
    177 H177        2.3164  -13.5108  -44.8499 H         1 UNK         0.0600 
    178 H178        2.9776  -13.9259  -43.2812 H         1 UNK         0.0600 
    179 H179       -0.2424  -13.7244  -44.8698 H         1 UNK         0.3000 
    180 H180       -3.1944  -11.9574  -44.5770 H         1 UNK         0.0600 
    181 H181       -1.1041  -10.8150  -46.5074 H         1 UNK         0.0600 
    182 H182       -2.0599   -9.8841  -45.3606 H         1 UNK         0.0600 
    183 H183       -2.8545  -10.6996  -46.6966 H         1 UNK         0.0600 
    184 H184       -1.8017  -13.1318  -46.8536 H         1 UNK         0.3000 
    185 H185       -2.6268  -16.4569  -46.1531 H         1 UNK         0.0600 
    186 H186       -3.9516  -16.3687  -48.2914 H         1 UNK         0.0600 
    187 H187       -4.8718  -15.7371  -46.9366 H         1 UNK         0.0600 
    188 H188       -4.1465  -14.6312  -48.0964 H         1 UNK         0.0600 
    189 H189       -1.7479  -15.4347  -48.5800 H         1 UNK         0.3000 
    190 H190       -0.7019  -20.2195  -47.4472 H         1 UNK         0.3000 
    191 H191       -2.7720  -20.3984  -49.4004 H         1 UNK         0.0600 
    192 H192       -2.6882  -18.9589  -46.7022 H         1 UNK         0.0600 
    193 H193       -3.9613  -18.7769  -47.8948 H         1 UNK         0.0600 
    194 H194       -2.3256  -18.2757  -48.2834 H         1 UNK         0.0600 
    195 H195       -2.5093  -21.6118  -46.0459 H         1 UNK         0.3000 
    196 H196       -5.1328  -22.6750  -45.8240 H         1 UNK         0.0600 
    197 H197       -4.2096  -23.9609  -43.9260 H         1 UNK         0.0600 
    198 H198       -3.6098  -22.3093  -43.8819 H         1 UNK         0.0600 
    199 H199       -2.5658  -23.6147  -44.4390 H         1 UNK         0.0600 
    200 H200       -2.0646  -24.2487  -46.8661 H         1 UNK         0.3000 
    201 H201       -3.1501  -26.7818  -47.5355 H         1 UNK         0.0600 
    202 H202       -0.7255  -26.3657  -47.2120 H         1 UNK         0.0600 
    203 H203       -0.6846  -25.3287  -48.6359 H         1 UNK         0.0600 
    204 H204       -1.0128  -27.0495  -48.8054 H         1 UNK         0.0600 
    205 H205       -2.8884  -23.7851  -49.4137 H         1 UNK         0.3000 
    206 H206       -3.9195  -24.8764  -51.8907 H         1 UNK         0.0600 
    207 H207       -2.3282  -23.0101  -51.9108 H         1 UNK         0.0600 
    208 H208       -3.8535  -22.4295  -52.5494 H         1 UNK         0.0600 
    209 H209       -3.3924  -22.0302  -50.9079 H         1 UNK         0.0600 
    210 H210       -5.5821  -24.6851  -49.1526 H         1 UNK         0.3000 
    211 H211       -7.6993  -24.6665  -48.5429 H         1 UNK         0.0600 
    212 H212       -8.4045  -24.7662  -51.5246 H         1 UNK         0.0600 
    213 H213       -9.4701  -25.1748  -50.1894 H         1 UNK         0.0600 
    214 H214       -8.0491  -26.1582  -50.5043 H         1 UNK         0.0600 
    215 H215       -6.6504  -22.3901  -48.1448 H         1 UNK         0.3000 
    216 H216       -6.9807  -20.2885  -47.5783 H         1 UNK         0.0600 
    217 H217       -9.1910  -19.2284  -47.5466 H         1 UNK         0.0600 
    218 H218       -9.3411  -20.8842  -46.9809 H         1 UNK         0.0600 
    219 H219       -9.8607  -20.4543  -48.6103 H         1 UNK         0.0600 
    220 H220       -5.6248  -20.8735  -49.7544 H         1 UNK         0.3000 
    221 H221       -4.6362  -20.1389  -51.5998 H         1 UNK         0.0600 
    222 H222       -5.8165  -17.4063  -50.8970 H         1 UNK         0.0600 
    223 H223       -4.3332  -18.0862  -50.2298 H         1 UNK         0.0600 
    224 H224       -4.4313  -17.7058  -51.9378 H         1 UNK         0.0600 
    225 H225       -7.1019  -21.4302  -52.0759 H         1 UNK         0.3000 
    226 H226       -8.4476  -20.1430  -54.3208 H         1 UNK         0.0600 
    227 H227       -9.6339  -21.8057  -52.9015 H         1 UNK         0.0600 
    228 H228       -9.5362  -22.3651  -54.5649 H         1 UNK         0.0600 
    229 H229       -8.4702  -23.0510  -53.3455 H         1 UNK         0.0600 
    230 H230       -5.9358  -22.6256  -53.8137 H         1 UNK         0.3000 
    231 H231       -5.1117  -22.6172  -56.6684 H         1 UNK         0.0600 
    232 H232       -5.1267  -24.7803  -55.4603 H         1 UNK         0.0600 
    233 H233       -4.0323  -24.1416  -54.2387 H         1 UNK         0.0600 
    234 H234       -3.4860  -24.3303  -55.8990 H         1 UNK         0.0600 
    235 H235       -4.9300  -20.1957  -56.2963 H         1 UNK         0.3000 
    236 H236       -3.0261  -18.9983  -54.6213 H         1 UNK         0.0600 
    237 H237       -3.4779  -16.9832  -56.0399 H         1 UNK         0.0600 
    238 H238       -4.2381  -17.9984  -57.2599 H         1 UNK         0.0600 
    239 H239       -4.9682  -17.8276  -55.6652 H         1 UNK         0.0600 
    240 H240       -1.1630  -17.6980  -55.2107 H         1 UNK         0.3000 
    241 H241        0.8901  -19.1643  -56.4791 H         1 UNK         0.0600 
    242 H242       -0.4285  -16.8362  -59.5401 H         1 UNK         0.3800 
    243 H243       -1.3766  -17.0196  -58.0884 H         1 UNK         0.3800 
    244 H244        2.3112  -17.1609  -56.0031 H         1 UNK         0.0800 
    245 H245        0.8940  -16.2341  -55.5999 H         1 UNK         0.0800 
    246 H246        3.6996  -17.0758  -53.9946 H         1 UNK         0.0800 
    247 H247        3.5587  -18.7856  -54.3255 H         1 UNK         0.0800 
@<TRIPOS>BOND
     1    1    2 1    
     2    1  127 1    
     3    1  128 1    
     4    1  129 1    
     5    2    3 2    
     6    2    4 am   BACKBONE|DICT|INTERRES
     7    4    5 1    
     8    4  130 1    
     9    5    6 1    
    10    5   65 1    
    11    5  131 1    
    12    6    7 1    
    13    6  132 1    
    14    6  133 1    
    15    7    8 1    
    16    8    9 1    
    17    8  134 1    
    18    8  135 1    
    19    9   10 ar   
    20    9   14 ar   
    21   10   11 ar   
    22   10  136 1    
    23   11   12 ar   
    24   11  126 1    
    25   12   13 ar   
    26   12  137 1    
    27   13   14 ar   
    28   13   15 1    
    29   14  138 1    
    30   15   16 1    
    31   15  139 1    
    32   15  140 1    
    33   16   17 1    
    34   17   18 1    
    35   17  141 1    
    36   17  142 1    
    37   18   19 1    
    38   18   67 1    
    39   18  143 1    
    40   19   20 am   BACKBONE|DICT|INTERRES
    41   19  144 1    
    42   20   21 2    
    43   20   22 1    
    44   22   23 1    
    45   22   24 1    
    46   22  145 1    
    47   23  146 1    
    48   23  147 1    
    49   23  148 1    
    50   24   25 am   BACKBONE|DICT|INTERRES
    51   24  149 1    
    52   25   26 2    
    53   25   27 1    
    54   27   28 1    
    55   27   29 1    
    56   27  150 1    
    57   28  151 1    
    58   28  152 1    
    59   28  153 1    
    60   29   30 am   BACKBONE|DICT|INTERRES
    61   29  154 1    
    62   30   31 2    
    63   30   32 1    
    64   32   33 1    
    65   32   34 1    
    66   32  155 1    
    67   33  156 1    
    68   33  157 1    
    69   33  158 1    
    70   34   35 am   BACKBONE|DICT|INTERRES
    71   34  159 1    
    72   35   36 2    
    73   35   37 1    
    74   37   38 1    
    75   37   39 1    
    76   37  160 1    
    77   38  161 1    
    78   38  162 1    
    79   38  163 1    
    80   39   40 am   BACKBONE|DICT|INTERRES
    81   39  164 1    
    82   40   41 2    
    83   40   42 1    
    84   42   43 1    
    85   42   44 1    
    86   42  165 1    
    87   43  166 1    
    88   43  167 1    
    89   43  168 1    
    90   44   45 am   BACKBONE|DICT|INTERRES
    91   44  169 1    
    92   45   46 2    
    93   45   47 1    
    94   47   48 1    
    95   47   49 1    
    96   47  170 1    
    97   48  171 1    
    98   48  172 1    
    99   48  173 1    
   100   49   50 am   BACKBONE|DICT|INTERRES
   101   49  174 1    
   102   50   51 2    
   103   50   52 1    
   104   52   53 1    
   105   52   54 1    
   106   52  175 1    
   107   53  176 1    
   108   53  177 1    
   109   53  178 1    
   110   54   55 am   BACKBONE|DICT|INTERRES
   111   54  179 1    
   112   55   56 2    
   113   55   57 1    
   114   57   58 1    
   115   57   59 1    
   116   57  180 1    
   117   58  181 1    
   118   58  182 1    
   119   58  183 1    
   120   59   60 am   BACKBONE|DICT|INTERRES
   121   59  184 1    
   122   60   61 2    
   123   60   62 1    
   124   62   63 1    
   125   62   64 1    
   126   62  185 1    
   127   63  186 1    
   128   63  187 1    
   129   63  188 1    
   130   64   65 am   BACKBONE|DICT|INTERRES
   131   64  189 1    
   132   65   66 2    
   133   67   68 2    
   134   67   69 am   BACKBONE|DICT|INTERRES
   135   69   70 1    
   136   69  190 1    
   137   70   71 1    
   138   70   72 1    
   139   70  191 1    
   140   71  192 1    
   141   71  193 1    
   142   71  194 1    
   143   72   73 2    
   144   72   74 am   BACKBONE|DICT|INTERRES
   145   74   75 1    
   146   74  195 1    
   147   75   76 1    
   148   75   77 1    
   149   75  196 1    
   150   76  197 1    
   151   76  198 1    
   152   76  199 1    
   153   77   78 2    
   154   77   79 am   BACKBONE|DICT|INTERRES
   155   79   80 1    
   156   79  200 1    
   157   80   81 1    
   158   80   82 1    
   159   80  201 1    
   160   81  202 1    
   161   81  203 1    
   162   81  204 1    
   163   82   83 2    
   164   82   84 am   BACKBONE|DICT|INTERRES
   165   84   85 1    
   166   84  205 1    
   167   85   86 1    
   168   85   87 1    
   169   85  206 1    
   170   86  207 1    
   171   86  208 1    
   172   86  209 1    
   173   87   88 2    
   174   87   89 am   BACKBONE|DICT|INTERRES
   175   89   90 1    
   176   89  210 1    
   177   90   91 1    
   178   90   92 1    
   179   90  211 1    
   180   91  212 1    
   181   91  213 1    
   182   91  214 1    
   183   92   93 2    
   184   92   94 am   BACKBONE|DICT|INTERRES
   185   94   95 1    
   186   94  215 1    
   187   95   96 1    
   188   95   97 1    
   189   95  216 1    
   190   96  217 1    
   191   96  218 1    
   192   96  219 1    
   193   97   98 2    
   194   97   99 am   BACKBONE|DICT|INTERRES
   195   99  100 1    
   196   99  220 1    
   197  100  101 1    
   198  100  102 1    
   199  100  221 1    
   200  101  222 1    
   201  101  223 1    
   202  101  224 1    
   203  102  103 2    
   204  102  104 am   BACKBONE|DICT|INTERRES
   205  104  105 1    
   206  104  225 1    
   207  105  106 1    
   208  105  107 1    
   209  105  226 1    
   210  106  227 1    
   211  106  228 1    
   212  106  229 1    
   213  107  108 2    
   214  107  109 am   BACKBONE|DICT|INTERRES
   215  109  110 1    
   216  109  230 1    
   217  110  111 1    
   218  110  112 1    
   219  110  231 1    
   220  111  232 1    
   221  111  233 1    
   222  111  234 1    
   223  112  113 2    
   224  112  114 am   BACKBONE|DICT|INTERRES
   225  114  115 1    
   226  114  235 1    
   227  115  116 1    
   228  115  117 1    
   229  115  236 1    
   230  116  237 1    
   231  116  238 1    
   232  116  239 1    
   233  117  118 2    
   234  117  119 am   BACKBONE|DICT|INTERRES
   235  119  120 1    
   236  119  240 1    
   237  120  121 1    
   238  120  124 1    
   239  120  241 1    
   240  121  122 am   BACKBONE|DICT|INTERRES
   241  121  123 2    
   242  122  242 1    
   243  122  243 1    
   244  124  125 1    
   245  124  244 1    
   246  124  245 1    
   247  125  126 1    
   248  126  246 1    
   249  126  247 1    
@<TRIPOS>SUBSTRUCTURE
     1 UNK         1 GROUP             0       ****    0 ROOT    
