@<TRIPOS>MOLECULE
3R540
247   249    1
SMALL
USER_CHARGES


@<TRIPOS>ATOM
      1 CA          9.0654  -14.0627  -45.4472 C.3       0 UNK        -0.1800 
      2 C           7.5450  -14.0204  -45.3831 C.2       0 UNK         0.5000 
      3 O           6.9850  -13.1756  -44.6842 O.2       0 UNK        -0.5000 
      4 N           6.8791  -14.9327  -46.1005 N.am      1 UNK        -0.5000 
      5 CA          5.4197  -15.0186  -46.1997 C.3       1 UNK         0.1400 
      6 C6          4.9562  -16.3401  -46.8589 C.3       23 UNK        -0.0398 
      7 S7          5.5140  -17.8385  -45.9789 S.3       23 UNK        -0.2404 
      8 C8          4.0238  -18.8833  -46.0605 C.3       23 UNK        -0.0205 
      9 C9          3.6496  -19.2446  -47.4930 C.ar      23 UNK        -0.0193 
     10 C10         2.6292  -18.5564  -48.1603 C.ar      23 UNK        -0.1150 
     11 C11         2.3186  -18.8610  -49.4885 C.ar      23 UNK        -0.0193 
     12 C12         3.0264  -19.8697  -50.1441 C.ar      23 UNK        -0.1150 
     13 C13         4.0245  -20.5860  -49.4810 C.ar      23 UNK        -0.0193 
     14 C14         4.3345  -20.2671  -48.1562 C.ar      23 UNK        -0.1150 
     15 C15         4.7840  -21.6853  -50.2058 C.3       23 UNK        -0.0205 
     16 S16         4.1499  -23.3411  -49.7971 S.3       23 UNK        -0.2404 
     17 C17         2.5101  -23.3500  -50.6036 C.3       23 UNK        -0.0398 
     18 CA          1.3957  -23.7934  -49.6293 C.3       11 UNK         0.1400 
     19 N           1.2435  -22.9026  -48.4722 N.am      11 UNK        -0.5000 
     20 C           0.6327  -23.2788  -47.3408 C.2       10 UNK         0.5000 
     21 O           0.1037  -24.3797  -47.1871 O.2       10 UNK        -0.5000 
     22 CA          0.5784  -22.2548  -46.1968 C.3       10 UNK         0.1400 
     23 CB          1.9467  -22.1304  -45.5105 C.3       10 UNK        -0.1800 
     24 N           0.1127  -20.9261  -46.5914 N.am      10 UNK        -0.5000 
     25 C          -1.0610  -20.6347  -47.1651 C.2       9 UNK         0.5000 
     26 O          -1.8377  -21.4864  -47.5986 O.2       9 UNK        -0.5000 
     27 CA         -1.4428  -19.1373  -47.2082 C.3       9 UNK         0.1400 
     28 CB         -2.7865  -18.8840  -47.9126 C.3       9 UNK        -0.1800 
     29 N          -1.5024  -18.5427  -45.8688 N.am      9 UNK        -0.5000 
     30 C          -0.4352  -18.2020  -45.1387 C.2       8 UNK         0.5000 
     31 O           0.7229  -18.3613  -45.5306 O.2       8 UNK        -0.5000 
     32 CA         -0.6870  -17.6075  -43.7465 C.3       8 UNK         0.1400 
     33 CB         -1.3593  -18.6270  -42.8085 C.3       8 UNK        -0.1800 
     34 N           0.6090  -17.2180  -43.2062 N.am      8 UNK        -0.5000 
     35 C           0.8464  -16.2969  -42.2721 C.2       7 UNK         0.5000 
     36 O          -0.0426  -15.6748  -41.6870 O.2       7 UNK        -0.5000 
     37 CA          2.3240  -16.0301  -41.9073 C.3       7 UNK         0.1400 
     38 CB          3.3552  -16.7419  -42.8178 C.3       7 UNK        -0.1800 
     39 N           2.5899  -14.5920  -41.8249 N.am      7 UNK        -0.5000 
     40 C           2.5352  -13.7125  -42.8328 C.2       6 UNK         0.5000 
     41 O           2.3876  -14.0212  -44.0175 O.2       6 UNK        -0.5000 
     42 CA          2.7009  -12.2377  -42.4500 C.3       6 UNK         0.1400 
     43 CB          4.0296  -11.6841  -42.9883 C.3       6 UNK        -0.1800 
     44 N           1.5901  -11.4643  -43.0035 N.am      6 UNK        -0.5000 
     45 C           0.8106  -10.6346  -42.2980 C.2       5 UNK         0.5000 
     46 O           0.9342  -10.4584  -41.0847 O.2       5 UNK        -0.5000 
     47 CA         -0.2823   -9.8483  -43.0444 C.3       5 UNK         0.1400 
     48 CB          0.2766   -8.5113  -43.5589 C.3       5 UNK        -0.1800 
     49 N          -0.8750  -10.5802  -44.1659 N.am      5 UNK        -0.5000 
     50 C          -2.1868  -10.6173  -44.4424 C.2       4 UNK         0.5000 
     51 O          -3.0476  -10.1028  -43.7263 O.2       4 UNK        -0.5000 
     52 CA         -2.6330  -11.3154  -45.7462 C.3       4 UNK         0.1400 
     53 CB         -2.9198  -10.2719  -46.8373 C.3       4 UNK        -0.1800 
     54 N          -1.6651  -12.2800  -46.2669 N.am      4 UNK        -0.5000 
     55 C          -1.3996  -13.4679  -45.7120 C.2       3 UNK         0.5000 
     56 O          -2.0118  -13.9163  -44.7425 O.2       3 UNK        -0.5000 
     57 CA         -0.2649  -14.3073  -46.3343 C.3       3 UNK         0.1400 
     58 CB         -0.8521  -15.3429  -47.3067 C.3       3 UNK        -0.1800 
     59 N           0.8290  -13.6017  -47.0202 N.am      3 UNK        -0.5000 
     60 C           1.4898  -12.5023  -46.6285 C.2       2 UNK         0.5000 
     61 O           1.1161  -11.7319  -45.7453 O.2       2 UNK        -0.5000 
     62 CA          2.8821  -12.3272  -47.2362 C.3       2 UNK         0.1400 
     63 CB          3.4560  -10.9075  -47.0554 C.3       2 UNK        -0.1800 
     64 N           3.7060  -13.3149  -46.5516 N.am      2 UNK        -0.5000 
     65 C           4.8501  -13.8308  -47.0022 C.2       1 UNK         0.5000 
     66 O           5.4155  -13.4558  -48.0327 O.2       1 UNK        -0.5000 
     67 C           0.0611  -24.0216  -50.3673 C.2       11 UNK         0.5000 
     68 O          -0.1373  -25.1034  -50.9202 O.2       11 UNK        -0.5000 
     69 N          -0.8471  -23.0344  -50.3305 N.am      12 UNK        -0.5000 
     70 CA         -2.2104  -23.1763  -50.8417 C.3       12 UNK         0.1400 
     71 CB         -2.8705  -21.8009  -50.9932 C.3       12 UNK        -0.1800 
     72 C          -3.0508  -24.0926  -49.9398 C.2       12 UNK         0.5000 
     73 O          -3.7398  -24.9733  -50.4499 O.2       12 UNK        -0.5000 
     74 N          -2.9450  -23.9113  -48.6165 N.am      13 UNK        -0.5000 
     75 CA         -3.5978  -24.7507  -47.6121 C.3       13 UNK         0.1400 
     76 CB         -3.3936  -24.1455  -46.2161 C.3       13 UNK        -0.1800 
     77 C          -3.1324  -26.2171  -47.6624 C.2       13 UNK         0.5000 
     78 O          -3.9698  -27.1168  -47.5945 O.2       13 UNK        -0.5000 
     79 N          -1.8235  -26.4340  -47.8548 N.am      14 UNK        -0.5000 
     80 CA         -1.2143  -27.7520  -48.0599 C.3       14 UNK         0.1400 
     81 CB          0.3147  -27.6083  -48.0705 C.3       14 UNK        -0.1800 
     82 C          -1.6973  -28.4590  -49.3433 C.2       14 UNK         0.5000 
     83 O          -1.7851  -29.6870  -49.3633 O.2       14 UNK        -0.5000 
     84 N          -2.0303  -27.6736  -50.3760 N.am      15 UNK        -0.5000 
     85 CA         -2.6105  -28.1358  -51.6382 C.3       15 UNK         0.1400 
     86 CB         -2.2064  -27.1534  -52.7507 C.3       15 UNK        -0.1800 
     87 C          -4.1458  -28.2951  -51.5806 C.2       15 UNK         0.5000 
     88 O          -4.7389  -28.6924  -52.5843 O.2       15 UNK        -0.5000 
     89 N          -4.7625  -27.9717  -50.4320 N.am      16 UNK        -0.5000 
     90 CA         -6.2062  -27.9390  -50.1680 C.3       16 UNK         0.1400 
     91 CB         -6.8270  -29.3475  -50.2754 C.3       16 UNK        -0.1800 
     92 C          -6.9505  -26.8780  -51.0093 C.2       16 UNK         0.5000 
     93 O          -8.1172  -27.0668  -51.3573 O.2       16 UNK        -0.5000 
     94 N          -6.2617  -25.7689  -51.3018 N.am      17 UNK        -0.5000 
     95 CA         -6.7327  -24.6297  -52.0855 C.3       17 UNK         0.1400 
     96 CB         -5.7889  -24.4376  -53.2864 C.3       17 UNK        -0.1800 
     97 C          -6.8144  -23.3632  -51.2115 C.2       17 UNK         0.5000 
     98 O          -6.6510  -22.2537  -51.7209 O.2       17 UNK        -0.5000 
     99 N          -7.0786  -23.5340  -49.9071 N.am      18 UNK        -0.5000 
    100 CA        -7.1685  -22.4628  -48.9062 C.3       18 UNK         0.1400 
    101 CB        -7.4228  -23.0848  -47.5242 C.3       18 UNK        -0.1800 
    102 C         -8.2425  -21.3970  -49.2078 C.2       18 UNK         0.5000 
    103 O         -8.0850  -20.2479  -48.7965 O.2       18 UNK        -0.5000 
    104 N         -9.3001  -21.7909  -49.9317 N.am      19 UNK        -0.5000 
    105 CA       -10.3626  -20.9041  -50.4081 C.3       19 UNK         0.1400 
    106 CB       -11.5458  -21.7555  -50.8932 C.3       19 UNK        -0.1800 
    107 C         -9.8951  -19.9451  -51.5214 C.2       19 UNK         0.5000 
    108 O        -10.4148  -18.8323  -51.6139 O.2       19 UNK        -0.5000 
    109 N         -8.9271  -20.3848  -52.3382 N.am      20 UNK        -0.5000 
    110 CA        -8.2748  -19.5646  -53.3593 C.3       20 UNK         0.1400 
    111 CB        -7.7726  -20.4646  -54.4997 C.3       20 UNK        -0.1800 
    112 C         -7.1196  -18.7506  -52.7518 C.2       20 UNK         0.5000 
    113 O         -6.9662  -17.5752  -53.0876 O.2       20 UNK        -0.5000 
    114 N         -6.3601  -19.3912  -51.8494 N.am      21 UNK        -0.5000 
    115 CA        -5.2114  -18.8658  -51.1072 C.3       21 UNK         0.1400 
    116 CB        -5.6476  -17.7013  -50.1897 C.3       21 UNK        -0.1800 
    117 C         -4.0154  -18.5073  -52.0190 C.2       21 UNK         0.5000 
    118 O         -3.9726  -18.9145  -53.1828 O.2       21 UNK        -0.5000 
    119 N         -3.0419  -17.7803  -51.4619 N.am      22 UNK        -0.5000 
    120 CA        -1.8217  -17.3327  -52.1511 C.3       22 UNK         0.1400 
    121 C         -1.2999  -15.9520  -51.6574 C.2       22 UNK         0.5000 
    122 N         -2.0949  -15.1583  -50.9486 N.am      22 UNK        -0.7600 
    123 O         -0.1665  -15.5743  -51.9397 O.2       22 UNK        -0.5000 
    124 C124       -0.7300  -18.4368  -52.2282 C.3       23 UNK        -0.0398 
    125 S125       -0.1976  -19.1189  -50.6171 S.3       23 UNK        -0.2404 
    126 C126        1.2536  -18.0831  -50.2439 C.3       23 UNK        -0.0205 
    127 H127        9.4507  -13.1198  -45.8351 H         1 UNK         0.0600 
    128 H128        9.4222  -14.8667  -46.0916 H         1 UNK         0.0600 
    129 H129        9.4789  -14.2172  -44.4505 H         1 UNK         0.0600 
    130 H130        7.3926  -15.5977  -46.6604 H         1 UNK         0.3000 
    131 H131        5.0136  -14.9805  -45.1858 H         1 UNK         0.0600 
    132 H132        3.8666  -16.3516  -46.9067 H         1 UNK         0.0800 
    133 H133        5.3073  -16.4068  -47.8907 H         1 UNK         0.0800 
    134 H134        4.1986  -19.7945  -45.4872 H         1 UNK         0.0800 
    135 H135        3.2072  -18.3645  -45.5628 H         1 UNK         0.0800 
    136 H136        2.0909  -17.7688  -47.6531 H         1 UNK         0.1150 
    137 H137        2.7956  -20.0932  -51.1762 H         1 UNK         0.1150 
    138 H138        5.1184  -20.8073  -47.6439 H         1 UNK         0.1150 
    139 H139        4.7447  -21.5362  -51.2860 H         1 UNK         0.0800 
    140 H140        5.8390  -21.6361  -49.9321 H         1 UNK         0.0800 
    141 H141        2.2806  -22.3746  -51.0305 H         1 UNK         0.0800 
    142 H142        2.5716  -24.0392  -51.4479 H         1 UNK         0.0800 
    143 H143        1.6935  -24.7711  -49.2435 H         1 UNK         0.0600 
    144 H144        1.6644  -21.9861  -48.5319 H         1 UNK         0.3000 
    145 H145       -0.1325  -22.6320  -45.4589 H         1 UNK         0.0600 
    146 H146        1.9017  -21.4550  -44.6559 H         1 UNK         0.0600 
    147 H147        2.7067  -21.7549  -46.1954 H         1 UNK         0.0600 
    148 H148        2.2882  -23.0989  -45.1430 H         1 UNK         0.0600 
    149 H149        0.6610  -20.1380  -46.2594 H         1 UNK         0.3000 
    150 H150       -0.6669  -18.6230  -47.7777 H         1 UNK         0.0600 
    151 H151       -2.7646  -19.2556  -48.9358 H         1 UNK         0.0600 
    152 H152       -3.0072  -17.8180  -47.9591 H         1 UNK         0.0600 
    153 H153       -3.6128  -19.3780  -47.4000 H         1 UNK         0.0600 
    154 H154       -2.4245  -18.4249  -45.4750 H         1 UNK         0.3000 
    155 H155       -1.3182  -16.7234  -43.8586 H         1 UNK         0.0600 
    156 H156       -1.5059  -18.2106  -41.8118 H         1 UNK         0.0600 
    157 H157       -0.7605  -19.5330  -42.7068 H         1 UNK         0.0600 
    158 H158       -2.3414  -18.9208  -43.1801 H         1 UNK         0.0600 
    159 H159        1.3867  -17.6399  -43.6991 H         1 UNK         0.3000 
    160 H160        2.4583  -16.4210  -40.8978 H         1 UNK         0.0600 
    161 H161        3.2353  -16.4770  -43.8686 H         1 UNK         0.0600 
    162 H162        3.2689  -17.8262  -42.7393 H         1 UNK         0.0600 
    163 H163        4.3743  -16.4837  -42.5299 H         1 UNK         0.0600 
    164 H164        2.7012  -14.2335  -40.8869 H         1 UNK         0.3000 
    165 H165        2.7196  -12.1615  -41.3610 H         1 UNK         0.0600 
    166 H166        4.1009  -11.7832  -44.0710 H         1 UNK         0.0600 
    167 H167        4.1487  -10.6297  -42.7391 H         1 UNK         0.0600 
    168 H168        4.8772  -12.2196  -42.5587 H         1 UNK         0.0600 
    169 H169        1.4221  -11.5961  -43.9992 H         1 UNK         0.3000 
    170 H170       -1.0514   -9.6262  -42.3017 H         1 UNK         0.0600 
    171 H171        0.7313   -7.9377  -42.7501 H         1 UNK         0.0600 
    172 H172        1.0390   -8.6653  -44.3239 H         1 UNK         0.0600 
    173 H173       -0.5119   -7.8949  -43.9908 H         1 UNK         0.0600 
    174 H174       -0.2266  -11.0353  -44.8057 H         1 UNK         0.3000 
    175 H175       -3.5629  -11.8460  -45.5310 H         1 UNK         0.0600 
    176 H176       -2.0211   -9.7150  -47.1061 H         1 UNK         0.0600 
    177 H177       -3.3081  -10.7417  -47.7411 H         1 UNK         0.0600 
    178 H178       -3.6654   -9.5496  -46.5022 H         1 UNK         0.0600 
    179 H179       -1.0942  -11.9790  -47.0430 H         1 UNK         0.3000 
    180 H180        0.1958  -14.8514  -45.5073 H         1 UNK         0.0600 
    181 H181       -1.2144  -14.8711  -48.2200 H         1 UNK         0.0600 
    182 H182       -1.6938  -15.8731  -46.8604 H         1 UNK         0.0600 
    183 H183       -0.1095  -16.0905  -47.5857 H         1 UNK         0.0600 
    184 H184        1.2539  -14.1325  -47.7659 H         1 UNK         0.3000 
    185 H185        2.8298  -12.5591  -48.3020 H         1 UNK         0.0600 
    186 H186        2.8194  -10.1692  -47.5439 H         1 UNK         0.0600 
    187 H187        3.5335  -10.6271  -46.0051 H         1 UNK         0.0600 
    188 H188        4.4490  -10.8224  -47.4962 H         1 UNK         0.0600 
    189 H189        3.2944  -13.6749  -45.6915 H         1 UNK         0.3000 
    190 H190       -0.6336  -22.1895  -49.8199 H         1 UNK         0.3000 
    191 H191       -2.1628  -23.6339  -51.8322 H         1 UNK         0.0600 
    192 H192       -3.8736  -21.8956  -51.4106 H         1 UNK         0.0600 
    193 H193       -2.2995  -21.1632  -51.6670 H         1 UNK         0.0600 
    194 H194       -2.9595  -21.2891  -50.0364 H         1 UNK         0.0600 
    195 H195       -2.3911  -23.1320  -48.2677 H         1 UNK         0.3000 
    196 H196       -4.6657  -24.7472  -47.8325 H         1 UNK         0.0600 
    197 H197       -3.8940  -24.7432  -45.4534 H         1 UNK         0.0600 
    198 H198       -3.8044  -23.1370  -46.1620 H         1 UNK         0.0600 
    199 H199       -2.3375  -24.0896  -45.9515 H         1 UNK         0.0600 
    200 H200       -1.1905  -25.6384  -47.8327 H         1 UNK         0.3000 
    201 H201       -1.4924  -28.3815  -47.2122 H         1 UNK         0.0600 
    202 H202        0.6770  -27.1676  -47.1416 H         1 UNK         0.0600 
    203 H203        0.6516  -26.9792  -48.8946 H         1 UNK         0.0600 
    204 H204        0.7982  -28.5798  -48.1799 H         1 UNK         0.0600 
    205 H205       -1.9137  -26.6731  -50.2809 H         1 UNK         0.3000 
    206 H206       -2.1930  -29.1139  -51.8856 H         1 UNK         0.0600 
    207 H207       -1.1226  -27.0556  -52.8156 H         1 UNK         0.0600 
    208 H208       -2.5590  -27.4947  -53.7247 H         1 UNK         0.0600 
    209 H209       -2.6217  -26.1597  -52.5827 H         1 UNK         0.0600 
    210 H210       -4.1844  -27.6516  -49.6643 H         1 UNK         0.3000 
    211 H211       -6.3100  -27.6189  -49.1305 H         1 UNK         0.0600 
    212 H212       -6.8381  -29.7110  -51.3031 H         1 UNK         0.0600 
    213 H213       -7.8580  -29.3475  -49.9198 H         1 UNK         0.0600 
    214 H214       -6.2767  -30.0676  -49.6698 H         1 UNK         0.0600 
    215 H215       -5.3085  -25.6767  -50.9511 H         1 UNK         0.3000 
    216 H216       -7.7377  -24.8164  -52.4678 H         1 UNK         0.0600 
    217 H217       -6.1430  -23.6432  -53.9444 H         1 UNK         0.0600 
    218 H218       -5.7233  -25.3472  -53.8836 H         1 UNK         0.0600 
    219 H219       -4.7797  -24.1757  -52.9660 H         1 UNK         0.0600 
    220 H220       -7.2057  -24.4774  -49.5728 H         1 UNK         0.3000 
    221 H221       -6.2020  -21.9547  -48.8828 H         1 UNK         0.0600 
    222 H222       -8.3665  -23.6311  -47.4977 H         1 UNK         0.0600 
    223 H223       -6.6300  -23.7743  -47.2405 H         1 UNK         0.0600 
    224 H224       -7.4684  -22.3152  -46.7523 H         1 UNK         0.0600 
    225 H225       -9.3559  -22.7595  -50.2094 H         1 UNK         0.3000 
    226 H226      -10.7023  -20.2953  -49.5675 H         1 UNK         0.0600 
    227 H227      -11.9325  -22.3865  -50.0926 H         1 UNK         0.0600 
    228 H228      -12.3677  -21.1238  -51.2330 H         1 UNK         0.0600 
    229 H229      -11.2633  -22.4020  -51.7250 H         1 UNK         0.0600 
    230 H230       -8.5085  -21.2874  -52.1558 H         1 UNK         0.3000 
    231 H231       -8.9996  -18.8644  -53.7805 H         1 UNK         0.0600 
    232 H232       -7.3150  -19.8686  -55.2902 H         1 UNK         0.0600 
    233 H233       -8.5917  -21.0268  -54.9482 H         1 UNK         0.0600 
    234 H234       -7.0240  -21.1788  -54.1561 H         1 UNK         0.0600 
    235 H235       -6.5335  -20.3848  -51.7220 H         1 UNK         0.3000 
    236 H236       -4.8786  -19.6827  -50.4666 H         1 UNK         0.0600 
    237 H237       -6.5355  -17.9680  -49.6160 H         1 UNK         0.0600 
    238 H238       -4.8735  -17.4437  -49.4682 H         1 UNK         0.0600 
    239 H239       -5.8783  -16.7999  -50.7582 H         1 UNK         0.0600 
    240 H240       -3.1141  -17.5082  -50.4936 H         1 UNK         0.3000 
    241 H241       -2.1052  -17.1176  -53.1832 H         1 UNK         0.0600 
    242 H242       -3.0605  -15.3885  -50.7834 H         1 UNK         0.3800 
    243 H243       -1.7442  -14.2593  -50.6595 H         1 UNK         0.3800 
    244 H244       -1.1184  -19.2718  -52.8120 H         1 UNK         0.0800 
    245 H245        0.1362  -18.0871  -52.7912 H         1 UNK         0.0800 
    246 H246        0.9300  -17.2095  -49.6764 H         1 UNK         0.0800 
    247 H247        1.6971  -17.7015  -51.1641 H         1 UNK         0.0800 
@<TRIPOS>BOND
     1    1    2 1    
     2    1  127 1    
     3    1  128 1    
     4    1  129 1    
     5    2    3 2    
     6    2    4 am   BACKBONE|DICT|INTERRES
     7    4    5 1    
     8    4  130 1    
     9    5    6 1    
    10    5   65 1    
    11    5  131 1    
    12    6    7 1    
    13    6  132 1    
    14    6  133 1    
    15    7    8 1    
    16    8    9 1    
    17    8  134 1    
    18    8  135 1    
    19    9   10 ar   
    20    9   14 ar   
    21   10   11 ar   
    22   10  136 1    
    23   11   12 ar   
    24   11  126 1    
    25   12   13 ar   
    26   12  137 1    
    27   13   14 ar   
    28   13   15 1    
    29   14  138 1    
    30   15   16 1    
    31   15  139 1    
    32   15  140 1    
    33   16   17 1    
    34   17   18 1    
    35   17  141 1    
    36   17  142 1    
    37   18   19 1    
    38   18   67 1    
    39   18  143 1    
    40   19   20 am   BACKBONE|DICT|INTERRES
    41   19  144 1    
    42   20   21 2    
    43   20   22 1    
    44   22   23 1    
    45   22   24 1    
    46   22  145 1    
    47   23  146 1    
    48   23  147 1    
    49   23  148 1    
    50   24   25 am   BACKBONE|DICT|INTERRES
    51   24  149 1    
    52   25   26 2    
    53   25   27 1    
    54   27   28 1    
    55   27   29 1    
    56   27  150 1    
    57   28  151 1    
    58   28  152 1    
    59   28  153 1    
    60   29   30 am   BACKBONE|DICT|INTERRES
    61   29  154 1    
    62   30   31 2    
    63   30   32 1    
    64   32   33 1    
    65   32   34 1    
    66   32  155 1    
    67   33  156 1    
    68   33  157 1    
    69   33  158 1    
    70   34   35 am   BACKBONE|DICT|INTERRES
    71   34  159 1    
    72   35   36 2    
    73   35   37 1    
    74   37   38 1    
    75   37   39 1    
    76   37  160 1    
    77   38  161 1    
    78   38  162 1    
    79   38  163 1    
    80   39   40 am   BACKBONE|DICT|INTERRES
    81   39  164 1    
    82   40   41 2    
    83   40   42 1    
    84   42   43 1    
    85   42   44 1    
    86   42  165 1    
    87   43  166 1    
    88   43  167 1    
    89   43  168 1    
    90   44   45 am   BACKBONE|DICT|INTERRES
    91   44  169 1    
    92   45   46 2    
    93   45   47 1    
    94   47   48 1    
    95   47   49 1    
    96   47  170 1    
    97   48  171 1    
    98   48  172 1    
    99   48  173 1    
   100   49   50 am   BACKBONE|DICT|INTERRES
   101   49  174 1    
   102   50   51 2    
   103   50   52 1    
   104   52   53 1    
   105   52   54 1    
   106   52  175 1    
   107   53  176 1    
   108   53  177 1    
   109   53  178 1    
   110   54   55 am   BACKBONE|DICT|INTERRES
   111   54  179 1    
   112   55   56 2    
   113   55   57 1    
   114   57   58 1    
   115   57   59 1    
   116   57  180 1    
   117   58  181 1    
   118   58  182 1    
   119   58  183 1    
   120   59   60 am   BACKBONE|DICT|INTERRES
   121   59  184 1    
   122   60   61 2    
   123   60   62 1    
   124   62   63 1    
   125   62   64 1    
   126   62  185 1    
   127   63  186 1    
   128   63  187 1    
   129   63  188 1    
   130   64   65 am   BACKBONE|DICT|INTERRES
   131   64  189 1    
   132   65   66 2    
   133   67   68 2    
   134   67   69 am   BACKBONE|DICT|INTERRES
   135   69   70 1    
   136   69  190 1    
   137   70   71 1    
   138   70   72 1    
   139   70  191 1    
   140   71  192 1    
   141   71  193 1    
   142   71  194 1    
   143   72   73 2    
   144   72   74 am   BACKBONE|DICT|INTERRES
   145   74   75 1    
   146   74  195 1    
   147   75   76 1    
   148   75   77 1    
   149   75  196 1    
   150   76  197 1    
   151   76  198 1    
   152   76  199 1    
   153   77   78 2    
   154   77   79 am   BACKBONE|DICT|INTERRES
   155   79   80 1    
   156   79  200 1    
   157   80   81 1    
   158   80   82 1    
   159   80  201 1    
   160   81  202 1    
   161   81  203 1    
   162   81  204 1    
   163   82   83 2    
   164   82   84 am   BACKBONE|DICT|INTERRES
   165   84   85 1    
   166   84  205 1    
   167   85   86 1    
   168   85   87 1    
   169   85  206 1    
   170   86  207 1    
   171   86  208 1    
   172   86  209 1    
   173   87   88 2    
   174   87   89 am   BACKBONE|DICT|INTERRES
   175   89   90 1    
   176   89  210 1    
   177   90   91 1    
   178   90   92 1    
   179   90  211 1    
   180   91  212 1    
   181   91  213 1    
   182   91  214 1    
   183   92   93 2    
   184   92   94 am   BACKBONE|DICT|INTERRES
   185   94   95 1    
   186   94  215 1    
   187   95   96 1    
   188   95   97 1    
   189   95  216 1    
   190   96  217 1    
   191   96  218 1    
   192   96  219 1    
   193   97   98 2    
   194   97   99 am   BACKBONE|DICT|INTERRES
   195   99  100 1    
   196   99  220 1    
   197  100  101 1    
   198  100  102 1    
   199  100  221 1    
   200  101  222 1    
   201  101  223 1    
   202  101  224 1    
   203  102  103 2    
   204  102  104 am   BACKBONE|DICT|INTERRES
   205  104  105 1    
   206  104  225 1    
   207  105  106 1    
   208  105  107 1    
   209  105  226 1    
   210  106  227 1    
   211  106  228 1    
   212  106  229 1    
   213  107  108 2    
   214  107  109 am   BACKBONE|DICT|INTERRES
   215  109  110 1    
   216  109  230 1    
   217  110  111 1    
   218  110  112 1    
   219  110  231 1    
   220  111  232 1    
   221  111  233 1    
   222  111  234 1    
   223  112  113 2    
   224  112  114 am   BACKBONE|DICT|INTERRES
   225  114  115 1    
   226  114  235 1    
   227  115  116 1    
   228  115  117 1    
   229  115  236 1    
   230  116  237 1    
   231  116  238 1    
   232  116  239 1    
   233  117  118 2    
   234  117  119 am   BACKBONE|DICT|INTERRES
   235  119  120 1    
   236  119  240 1    
   237  120  121 1    
   238  120  124 1    
   239  120  241 1    
   240  121  122 am   BACKBONE|DICT|INTERRES
   241  121  123 2    
   242  122  242 1    
   243  122  243 1    
   244  124  125 1    
   245  124  244 1    
   246  124  245 1    
   247  125  126 1    
   248  126  246 1    
   249  126  247 1    
@<TRIPOS>SUBSTRUCTURE
     1 UNK         1 GROUP             0       ****    0 ROOT    
