@<TRIPOS>MOLECULE
3R540
247   249    1
SMALL
USER_CHARGES


@<TRIPOS>ATOM
      1 CA          1.4788  -11.2970  -44.7480 C.3       0 UNK        -0.1800 
      2 C           2.3098  -10.9470  -45.9737 C.2       0 UNK         0.5000 
      3 O           3.1934  -10.0939  -45.8928 O.2       0 UNK        -0.5000 
      4 N           2.0258  -11.6016  -47.1078 N.am      1 UNK        -0.5000 
      5 CA          2.7114  -11.4064  -48.3946 C.3       1 UNK         0.1400 
      6 C6          1.9797  -12.1081  -49.5661 C.3       23 UNK        -0.0398 
      7 S7          0.2634  -11.5283  -49.7898 S.3       23 UNK        -0.2404 
      8 C8         -0.6917  -12.8816  -49.0338 C.3       23 UNK        -0.0205 
      9 C9         -0.7400  -14.1231  -49.9118 C.ar      23 UNK        -0.0193 
     10 C10        -1.6290  -14.1765  -50.9885 C.ar      23 UNK        -0.1150 
     11 C11        -1.7001  -15.3143  -51.7963 C.ar      23 UNK        -0.0193 
     12 C12        -0.8658  -16.4019  -51.5246 C.ar      23 UNK        -0.1150 
     13 C13         0.0120  -16.3712  -50.4378 C.ar      23 UNK        -0.0193 
     14 C14         0.0747  -15.2269  -49.6367 C.ar      23 UNK        -0.1150 
     15 C15         0.8807  -17.5821  -50.1272 C.3       23 UNK        -0.0205 
     16 S16         0.2661  -18.5225  -48.6926 S.3       23 UNK        -0.2404 
     17 C17        -1.4449  -18.9120  -49.1962 C.3       23 UNK        -0.0398 
     18 CA         -1.9801  -20.2294  -48.5796 C.3       11 UNK         0.1400 
     19 N          -1.9370  -20.2217  -47.1055 N.am      11 UNK        -0.5000 
     20 C          -1.9792  -21.2922  -46.2938 C.2       10 UNK         0.5000 
     21 O          -2.0957  -22.4479  -46.7085 O.2       10 UNK        -0.5000 
     22 CA         -1.9276  -21.0678  -44.7705 C.3       10 UNK         0.1400 
     23 CB         -0.6324  -21.6406  -44.1753 C.3       10 UNK        -0.1800 
     24 N          -2.0644  -19.6643  -44.3861 N.am      10 UNK        -0.5000 
     25 C          -3.2331  -19.0152  -44.2881 C.2       9 UNK         0.5000 
     26 O          -4.3238  -19.5481  -44.4949 O.2       9 UNK        -0.5000 
     27 CA         -3.1854  -17.5212  -43.9064 C.3       9 UNK         0.1400 
     28 CB         -3.4816  -17.3403  -42.4099 C.3       9 UNK        -0.1800 
     29 N          -1.9124  -16.8714  -44.2254 N.am      9 UNK        -0.5000 
     30 C          -1.4426  -16.6854  -45.4663 C.2       8 UNK         0.5000 
     31 O          -2.0625  -17.0050  -46.4796 O.2       8 UNK        -0.5000 
     32 CA         -0.0260  -16.0925  -45.5903 C.3       8 UNK         0.1400 
     33 CB         -0.0655  -14.5632  -45.4861 C.3       8 UNK        -0.1800 
     34 N           0.9082  -16.6202  -44.5942 N.am      8 UNK        -0.5000 
     35 C           1.2558  -17.9101  -44.4811 C.2       7 UNK         0.5000 
     36 O           0.8606  -18.7938  -45.2380 O.2       7 UNK        -0.5000 
     37 CA          2.1396  -18.2870  -43.2815 C.3       7 UNK         0.1400 
     38 CB          3.6154  -17.9625  -43.5541 C.3       7 UNK        -0.1800 
     39 N           1.6959  -17.6085  -42.0645 N.am      7 UNK        -0.5000 
     40 C           0.5927  -17.9406  -41.3782 C.2       6 UNK         0.5000 
     41 O          -0.1270  -18.8973  -41.6636 O.2       6 UNK        -0.5000 
     42 CA          0.2155  -17.0378  -40.1879 C.3       6 UNK         0.1400 
     43 CB          0.8945  -17.5316  -38.9017 C.3       6 UNK        -0.1800 
     44 N           0.5641  -15.6328  -40.4058 N.am      6 UNK        -0.5000 
     45 C          -0.0186  -14.8361  -41.3132 C.2       5 UNK         0.5000 
     46 O          -0.9489  -15.1917  -42.0348 O.2       5 UNK        -0.5000 
     47 CA          0.5806  -13.4255  -41.4808 C.3       5 UNK         0.1400 
     48 CB         -0.0718  -12.4389  -40.5018 C.3       5 UNK        -0.1800 
     49 N           2.0363  -13.3997  -41.3032 N.am      5 UNK        -0.5000 
     50 C           2.9027  -14.0599  -42.0823 C.2       4 UNK         0.5000 
     51 O           2.5631  -14.7241  -43.0644 O.2       4 UNK        -0.5000 
     52 CA          4.3717  -14.0336  -41.6428 C.3       4 UNK         0.1400 
     53 CB          4.5764  -14.9751  -40.4380 C.3       4 UNK        -0.1800 
     54 N           5.2217  -14.4517  -42.7534 N.am      4 UNK        -0.5000 
     55 C           6.5497  -14.3146  -42.8166 C.2       3 UNK         0.5000 
     56 O           7.2172  -13.7508  -41.9481 O.2       3 UNK        -0.5000 
     57 CA          7.2674  -14.9081  -44.0450 C.3       3 UNK         0.1400 
     58 CB          7.0746  -16.4342  -44.1484 C.3       3 UNK        -0.1800 
     59 N           6.9572  -14.2389  -45.3132 N.am      3 UNK        -0.5000 
     60 C           5.7859  -14.1727  -45.9581 C.2       2 UNK         0.5000 
     61 O           4.7343  -14.6787  -45.5572 O.2       2 UNK        -0.5000 
     62 CA          5.8037  -13.4351  -47.3022 C.3       2 UNK         0.1400 
     63 CB          6.1917  -14.3884  -48.4470 C.3       2 UNK        -0.1800 
     64 N           4.4775  -12.8828  -47.5377 N.am      2 UNK        -0.5000 
     65 C           4.1855  -11.8642  -48.3541 C.2       1 UNK         0.5000 
     66 O           5.0197  -11.2874  -49.0535 O.2       1 UNK        -0.5000 
     67 C          -3.3793  -20.5968  -49.1383 C.2       11 UNK         0.5000 
     68 O          -3.9062  -19.9210  -50.0242 O.2       11 UNK        -0.5000 
     69 N          -3.9459  -21.6798  -48.6070 N.am      12 UNK        -0.5000 
     70 CA         -5.1896  -22.3241  -48.9957 C.3       12 UNK         0.1400 
     71 CB         -6.4130  -21.4835  -48.5881 C.3       12 UNK        -0.1800 
     72 C          -5.2115  -23.7120  -48.3491 C.2       12 UNK         0.5000 
     73 O          -5.3243  -24.7090  -49.0584 O.2       12 UNK        -0.5000 
     74 N          -5.0450  -23.7490  -47.0188 N.am      13 UNK        -0.5000 
     75 CA         -5.0306  -24.9656  -46.2061 C.3       13 UNK         0.1400 
     76 CB         -5.0918  -24.5823  -44.7188 C.3       13 UNK        -0.1800 
     77 C          -3.8153  -25.8650  -46.4922 C.2       13 UNK         0.5000 
     78 O          -3.9895  -27.0395  -46.8184 O.2       13 UNK        -0.5000 
     79 N          -2.6070  -25.2915  -46.3998 N.am      14 UNK        -0.5000 
     80 CA         -1.3448  -25.9847  -46.6800 C.3       14 UNK         0.1400 
     81 CB         -0.1884  -25.2244  -46.0135 C.3       14 UNK        -0.1800 
     82 C          -1.0932  -26.1388  -48.1907 C.2       14 UNK         0.5000 
     83 O          -0.3879  -27.0574  -48.6075 O.2       14 UNK        -0.5000 
     84 N          -1.7031  -25.2460  -48.9793 N.am      15 UNK        -0.5000 
     85 CA         -1.6899  -25.2409  -50.4402 C.3       15 UNK         0.1400 
     86 CB         -1.9901  -23.8102  -50.9017 C.3       15 UNK        -0.1800 
     87 C          -2.6866  -26.2388  -51.0695 C.2       15 UNK         0.5000 
     88 O          -2.7225  -26.3545  -52.2977 O.2       15 UNK        -0.5000 
     89 N          -3.4955  -26.9071  -50.2297 N.am      16 UNK        -0.5000 
     90 CA         -4.5108  -27.9186  -50.5520 C.3       16 UNK         0.1400 
     91 CB         -3.8283  -29.2058  -51.0587 C.3       16 UNK        -0.1800 
     92 C          -5.6102  -27.4182  -51.5145 C.2       16 UNK         0.5000 
     93 O          -6.1820  -28.2147  -52.2607 O.2       16 UNK        -0.5000 
     94 N          -5.8509  -26.0983  -51.5067 N.am      17 UNK        -0.5000 
     95 CA         -6.6858  -25.3239  -52.4326 C.3       17 UNK         0.1400 
     96 CB         -8.1755  -25.6672  -52.2302 C.3       17 UNK        -0.1800 
     97 C          -6.2509  -25.4326  -53.9158 C.2       17 UNK         0.5000 
     98 O          -7.0460  -25.1154  -54.8024 O.2       17 UNK        -0.5000 
     99 N          -5.0174  -25.8952  -54.1656 N.am      18 UNK        -0.5000 
    100 CA        -4.4985  -26.2393  -55.4864 C.3       18 UNK         0.1400 
    101 CB        -4.0375  -27.7063  -55.4759 C.3       18 UNK        -0.1800 
    102 C         -3.3476  -25.3089  -55.8856 C.2       18 UNK         0.5000 
    103 O         -3.3869  -24.7332  -56.9737 O.2       18 UNK        -0.5000 
    104 N         -2.3478  -25.1644  -55.0035 N.am      19 UNK        -0.5000 
    105 CA        -1.1878  -24.2941  -55.2284 C.3       19 UNK         0.1400 
    106 CB        -0.0271  -24.7578  -54.3342 C.3       19 UNK        -0.1800 
    107 C         -1.5078  -22.8034  -54.9962 C.2       19 UNK         0.5000 
    108 O         -0.8181  -21.9376  -55.5354 O.2       19 UNK        -0.5000 
    109 N         -2.5542  -22.5433  -54.2089 N.am      20 UNK        -0.5000 
    110 CA        -3.1032  -21.2506  -53.8293 C.3       20 UNK         0.1400 
    111 CB        -2.1439  -20.5037  -52.8821 C.3       20 UNK        -0.1800 
    112 C         -4.4482  -21.5288  -53.1436 C.2       20 UNK         0.5000 
    113 O         -4.6754  -22.6486  -52.6771 O.2       20 UNK        -0.5000 
    114 N         -5.3092  -20.5124  -53.0897 N.am      21 UNK        -0.5000 
    115 CA        -6.6145  -20.5480  -52.4335 C.3       21 UNK         0.1400 
    116 CB        -7.6642  -21.1895  -53.3623 C.3       21 UNK        -0.1800 
    117 C         -6.9658  -19.1181  -51.9945 C.2       21 UNK         0.5000 
    118 O         -8.0348  -18.6030  -52.3260 O.2       21 UNK        -0.5000 
    119 N         -6.0102  -18.4811  -51.3109 N.am      22 UNK        -0.5000 
    120 CA        -6.0045  -17.0442  -50.9953 C.3       22 UNK         0.1400 
    121 C         -6.6241  -16.6904  -49.6126 C.2       22 UNK         0.5000 
    122 N         -7.0779  -17.6524  -48.8191 N.am      22 UNK        -0.7600 
    123 O         -6.7126  -15.5179  -49.2589 O.2       22 UNK        -0.5000 
    124 C124       -4.5795  -16.4526  -51.1427 C.3       23 UNK        -0.0398 
    125 S125       -3.8620  -16.7557  -52.7978 S.3       23 UNK        -0.2404 
    126 C126       -2.6881  -15.3709  -52.9533 C.3       23 UNK        -0.0205 
    127 H127        0.5020  -11.6927  -45.0255 H         1 UNK         0.0600 
    128 H128        1.3186  -10.4132  -44.1303 H         1 UNK         0.0600 
    129 H129        1.9984  -12.0436  -44.1489 H         1 UNK         0.0600 
    130 H130        1.2728  -12.2711  -47.1129 H         1 UNK         0.3000 
    131 H131        2.7179  -10.3335  -48.5990 H         1 UNK         0.0600 
    132 H132        1.9941  -13.1904  -49.4368 H         1 UNK         0.0800 
    133 H133        2.5039  -11.9154  -50.5041 H         1 UNK         0.0800 
    134 H134       -1.7084  -12.5330  -48.8466 H         1 UNK         0.0800 
    135 H135       -0.2685  -13.1176  -48.0603 H         1 UNK         0.0800 
    136 H136       -2.2681  -13.3289  -51.1930 H         1 UNK         0.1150 
    137 H137       -0.9224  -17.2838  -52.1474 H         1 UNK         0.1150 
    138 H138        0.7507  -15.2045  -48.7939 H         1 UNK         0.1150 
    139 H139        0.9405  -18.2461  -50.9910 H         1 UNK         0.0800 
    140 H140        1.9007  -17.2535  -49.9238 H         1 UNK         0.0800 
    141 H141       -1.4671  -18.9776  -50.2849 H         1 UNK         0.0800 
    142 H142       -2.0857  -18.0706  -48.9282 H         1 UNK         0.0800 
    143 H143       -1.3127  -21.0267  -48.9130 H         1 UNK         0.0600 
    144 H144       -1.8524  -19.3057  -46.6830 H         1 UNK         0.3000 
    145 H145       -2.7594  -21.6268  -44.3368 H         1 UNK         0.0600 
    146 H146       -0.5659  -21.4435  -43.1051 H         1 UNK         0.0600 
    147 H147       -0.5910  -22.7216  -44.3081 H         1 UNK         0.0600 
    148 H148        0.2548  -21.2233  -44.6500 H         1 UNK         0.0600 
    149 H149       -1.2049  -19.1558  -44.2228 H         1 UNK         0.3000 
    150 H150       -3.9700  -17.0152  -44.4727 H         1 UNK         0.0600 
    151 H151       -4.4371  -17.7928  -42.1417 H         1 UNK         0.0600 
    152 H152       -3.5367  -16.2848  -42.1432 H         1 UNK         0.0600 
    153 H153       -2.7130  -17.8032  -41.7904 H         1 UNK         0.0600 
    154 H154       -1.3779  -16.5090  -43.4417 H         1 UNK         0.3000 
    155 H155        0.3550  -16.3570  -46.5780 H         1 UNK         0.0600 
    156 H156       -0.8210  -14.1467  -46.1512 H         1 UNK         0.0600 
    157 H157        0.8983  -14.1305  -45.7526 H         1 UNK         0.0600 
    158 H158       -0.3139  -14.2357  -44.4778 H         1 UNK         0.0600 
    159 H159        1.3287  -15.9483  -43.9590 H         1 UNK         0.3000 
    160 H160        2.0562  -19.3650  -43.1261 H         1 UNK         0.0600 
    161 H161        3.7634  -16.9064  -43.7752 H         1 UNK         0.0600 
    162 H162        3.9831  -18.5266  -44.4120 H         1 UNK         0.0600 
    163 H163        4.2438  -18.2192  -42.7012 H         1 UNK         0.0600 
    164 H164        2.2012  -16.7764  -41.8004 H         1 UNK         0.3000 
    165 H165       -0.8661  -17.1030  -40.0512 H         1 UNK         0.0600 
    166 H166        0.5766  -16.9469  -38.0383 H         1 UNK         0.0600 
    167 H167        0.6379  -18.5725  -38.7001 H         1 UNK         0.0600 
    168 H168        1.9814  -17.4684  -38.9693 H         1 UNK         0.0600 
    169 H169        1.3167  -15.2577  -39.8484 H         1 UNK         0.3000 
    170 H170        0.3598  -13.0907  -42.4955 H         1 UNK         0.0600 
    171 H171       -1.1554  -12.4249  -40.6267 H         1 UNK         0.0600 
    172 H172        0.1360  -12.7022  -39.4640 H         1 UNK         0.0600 
    173 H173        0.2861  -11.4229  -40.6696 H         1 UNK         0.0600 
    174 H174        2.3842  -12.8783  -40.5112 H         1 UNK         0.3000 
    175 H175        4.6291  -13.0099  -41.3639 H         1 UNK         0.0600 
    176 H176        3.9294  -14.7015  -39.6039 H         1 UNK         0.0600 
    177 H177        4.3578  -16.0116  -40.6984 H         1 UNK         0.0600 
    178 H178        5.6008  -14.9356  -40.0682 H         1 UNK         0.0600 
    179 H179        4.7261  -14.8242  -43.5610 H         1 UNK         0.3000 
    180 H180        8.3332  -14.7394  -43.8817 H         1 UNK         0.0600 
    181 H181        6.0538  -16.7044  -44.4126 H         1 UNK         0.0600 
    182 H182        7.3074  -16.9233  -43.2017 H         1 UNK         0.0600 
    183 H183        7.7340  -16.8600  -44.9045 H         1 UNK         0.0600 
    184 H184        7.7450  -13.7663  -45.7345 H         1 UNK         0.3000 
    185 H185        6.5258  -12.6178  -47.2428 H         1 UNK         0.0600 
    186 H186        7.1741  -14.8293  -48.2740 H         1 UNK         0.0600 
    187 H187        5.4768  -15.2063  -48.5457 H         1 UNK         0.0600 
    188 H188        6.2362  -13.8659  -49.4026 H         1 UNK         0.0600 
    189 H189        3.7541  -13.2872  -46.9562 H         1 UNK         0.3000 
    190 H190       -3.4022  -22.1629  -47.8949 H         1 UNK         0.3000 
    191 H191       -5.1909  -22.4574  -50.0779 H         1 UNK         0.0600 
    192 H192       -6.4262  -21.2773  -47.5173 H         1 UNK         0.0600 
    193 H193       -7.3408  -21.9995  -48.8381 H         1 UNK         0.0600 
    194 H194       -6.4248  -20.5275  -49.1077 H         1 UNK         0.0600 
    195 H195       -4.9667  -22.8769  -46.5170 H         1 UNK         0.3000 
    196 H196       -5.9293  -25.5387  -46.4444 H         1 UNK         0.0600 
    197 H197       -5.0811  -25.4705  -44.0856 H         1 UNK         0.0600 
    198 H198       -6.0066  -24.0345  -44.4915 H         1 UNK         0.0600 
    199 H199       -4.2469  -23.9585  -44.4242 H         1 UNK         0.0600 
    200 H200       -2.5392  -24.2987  -46.2004 H         1 UNK         0.3000 
    201 H201       -1.3886  -26.9857  -46.2453 H         1 UNK         0.0600 
    202 H202       -0.3416  -25.1395  -44.9377 H         1 UNK         0.0600 
    203 H203       -0.0772  -24.2186  -46.4197 H         1 UNK         0.0600 
    204 H204        0.7582  -25.7444  -46.1659 H         1 UNK         0.0600 
    205 H205       -2.2481  -24.5262  -48.5292 H         1 UNK         0.3000 
    206 H206       -0.6908  -25.5135  -50.7858 H         1 UNK         0.0600 
    207 H207       -1.2895  -23.0958  -50.4696 H         1 UNK         0.0600 
    208 H208       -1.9061  -23.7301  -51.9811 H         1 UNK         0.0600 
    209 H209       -2.9998  -23.5035  -50.6327 H         1 UNK         0.0600 
    210 H210       -3.4178  -26.6882  -49.2460 H         1 UNK         0.3000 
    211 H211       -5.0141  -28.1536  -49.6131 H         1 UNK         0.0600 
    212 H212       -3.3564  -29.0555  -52.0304 H         1 UNK         0.0600 
    213 H213       -4.5486  -30.0175  -51.1661 H         1 UNK         0.0600 
    214 H214       -3.0615  -29.5453  -50.3623 H         1 UNK         0.0600 
    215 H215       -5.3862  -25.5517  -50.7863 H         1 UNK         0.3000 
    216 H216       -6.5582  -24.2799  -52.1491 H         1 UNK         0.0600 
    217 H217       -8.8145  -24.9882  -52.7958 H         1 UNK         0.0600 
    218 H218       -8.4605  -25.5792  -51.1818 H         1 UNK         0.0600 
    219 H219       -8.4053  -26.6815  -52.5575 H         1 UNK         0.0600 
    220 H220       -4.4101  -26.0981  -53.3788 H         1 UNK         0.3000 
    221 H221       -5.2786  -26.1419  -56.2442 H         1 UNK         0.0600 
    222 H222       -3.2679  -27.8862  -54.7240 H         1 UNK         0.0600 
    223 H223       -4.8711  -28.3754  -55.2614 H         1 UNK         0.0600 
    224 H224       -3.6278  -27.9955  -56.4444 H         1 UNK         0.0600 
    225 H225       -2.3862  -25.6646  -54.1202 H         1 UNK         0.3000 
    226 H226       -0.8675  -24.3984  -56.2673 H         1 UNK         0.0600 
    227 H227        0.2608  -25.7831  -54.5671 H         1 UNK         0.0600 
    228 H228        0.8541  -24.1323  -54.4821 H         1 UNK         0.0600 
    229 H229       -0.2836  -24.7177  -53.2767 H         1 UNK         0.0600 
    230 H230       -3.0878  -23.3187  -53.8337 H         1 UNK         0.3000 
    231 H231       -3.2771  -20.6594  -54.7302 H         1 UNK         0.0600 
    232 H232       -1.1932  -20.2813  -53.3658 H         1 UNK         0.0600 
    233 H233       -1.9348  -21.0833  -51.9834 H         1 UNK         0.0600 
    234 H234       -2.5711  -19.5525  -52.5637 H         1 UNK         0.0600 
    235 H235       -5.0377  -19.6113  -53.4601 H         1 UNK         0.3000 
    236 H236       -6.5477  -21.1490  -51.5262 H         1 UNK         0.0600 
    237 H237       -8.6419  -21.2268  -52.8807 H         1 UNK         0.0600 
    238 H238       -7.7730  -20.6283  -54.2909 H         1 UNK         0.0600 
    239 H239       -7.3927  -22.2132  -53.6206 H         1 UNK         0.0600 
    240 H240       -5.1807  -18.9971  -51.0221 H         1 UNK         0.3000 
    241 H241       -6.6330  -16.5324  -51.7265 H         1 UNK         0.0600 
    242 H242       -7.4859  -17.4127  -47.9294 H         1 UNK         0.3800 
    243 H243       -7.0188  -18.6146  -49.1062 H         1 UNK         0.3800 
    244 H244       -4.5963  -15.3760  -50.9641 H         1 UNK         0.0800 
    245 H245       -3.9093  -16.8798  -50.3945 H         1 UNK         0.0800 
    246 H246       -2.1356  -15.4777  -53.8876 H         1 UNK         0.0800 
    247 H247       -3.2506  -14.4393  -53.0321 H         1 UNK         0.0800 
@<TRIPOS>BOND
     1    1    2 1    
     2    1  127 1    
     3    1  128 1    
     4    1  129 1    
     5    2    3 2    
     6    2    4 am   BACKBONE|DICT|INTERRES
     7    4    5 1    
     8    4  130 1    
     9    5    6 1    
    10    5   65 1    
    11    5  131 1    
    12    6    7 1    
    13    6  132 1    
    14    6  133 1    
    15    7    8 1    
    16    8    9 1    
    17    8  134 1    
    18    8  135 1    
    19    9   10 ar   
    20    9   14 ar   
    21   10   11 ar   
    22   10  136 1    
    23   11   12 ar   
    24   11  126 1    
    25   12   13 ar   
    26   12  137 1    
    27   13   14 ar   
    28   13   15 1    
    29   14  138 1    
    30   15   16 1    
    31   15  139 1    
    32   15  140 1    
    33   16   17 1    
    34   17   18 1    
    35   17  141 1    
    36   17  142 1    
    37   18   19 1    
    38   18   67 1    
    39   18  143 1    
    40   19   20 am   BACKBONE|DICT|INTERRES
    41   19  144 1    
    42   20   21 2    
    43   20   22 1    
    44   22   23 1    
    45   22   24 1    
    46   22  145 1    
    47   23  146 1    
    48   23  147 1    
    49   23  148 1    
    50   24   25 am   BACKBONE|DICT|INTERRES
    51   24  149 1    
    52   25   26 2    
    53   25   27 1    
    54   27   28 1    
    55   27   29 1    
    56   27  150 1    
    57   28  151 1    
    58   28  152 1    
    59   28  153 1    
    60   29   30 am   BACKBONE|DICT|INTERRES
    61   29  154 1    
    62   30   31 2    
    63   30   32 1    
    64   32   33 1    
    65   32   34 1    
    66   32  155 1    
    67   33  156 1    
    68   33  157 1    
    69   33  158 1    
    70   34   35 am   BACKBONE|DICT|INTERRES
    71   34  159 1    
    72   35   36 2    
    73   35   37 1    
    74   37   38 1    
    75   37   39 1    
    76   37  160 1    
    77   38  161 1    
    78   38  162 1    
    79   38  163 1    
    80   39   40 am   BACKBONE|DICT|INTERRES
    81   39  164 1    
    82   40   41 2    
    83   40   42 1    
    84   42   43 1    
    85   42   44 1    
    86   42  165 1    
    87   43  166 1    
    88   43  167 1    
    89   43  168 1    
    90   44   45 am   BACKBONE|DICT|INTERRES
    91   44  169 1    
    92   45   46 2    
    93   45   47 1    
    94   47   48 1    
    95   47   49 1    
    96   47  170 1    
    97   48  171 1    
    98   48  172 1    
    99   48  173 1    
   100   49   50 am   BACKBONE|DICT|INTERRES
   101   49  174 1    
   102   50   51 2    
   103   50   52 1    
   104   52   53 1    
   105   52   54 1    
   106   52  175 1    
   107   53  176 1    
   108   53  177 1    
   109   53  178 1    
   110   54   55 am   BACKBONE|DICT|INTERRES
   111   54  179 1    
   112   55   56 2    
   113   55   57 1    
   114   57   58 1    
   115   57   59 1    
   116   57  180 1    
   117   58  181 1    
   118   58  182 1    
   119   58  183 1    
   120   59   60 am   BACKBONE|DICT|INTERRES
   121   59  184 1    
   122   60   61 2    
   123   60   62 1    
   124   62   63 1    
   125   62   64 1    
   126   62  185 1    
   127   63  186 1    
   128   63  187 1    
   129   63  188 1    
   130   64   65 am   BACKBONE|DICT|INTERRES
   131   64  189 1    
   132   65   66 2    
   133   67   68 2    
   134   67   69 am   BACKBONE|DICT|INTERRES
   135   69   70 1    
   136   69  190 1    
   137   70   71 1    
   138   70   72 1    
   139   70  191 1    
   140   71  192 1    
   141   71  193 1    
   142   71  194 1    
   143   72   73 2    
   144   72   74 am   BACKBONE|DICT|INTERRES
   145   74   75 1    
   146   74  195 1    
   147   75   76 1    
   148   75   77 1    
   149   75  196 1    
   150   76  197 1    
   151   76  198 1    
   152   76  199 1    
   153   77   78 2    
   154   77   79 am   BACKBONE|DICT|INTERRES
   155   79   80 1    
   156   79  200 1    
   157   80   81 1    
   158   80   82 1    
   159   80  201 1    
   160   81  202 1    
   161   81  203 1    
   162   81  204 1    
   163   82   83 2    
   164   82   84 am   BACKBONE|DICT|INTERRES
   165   84   85 1    
   166   84  205 1    
   167   85   86 1    
   168   85   87 1    
   169   85  206 1    
   170   86  207 1    
   171   86  208 1    
   172   86  209 1    
   173   87   88 2    
   174   87   89 am   BACKBONE|DICT|INTERRES
   175   89   90 1    
   176   89  210 1    
   177   90   91 1    
   178   90   92 1    
   179   90  211 1    
   180   91  212 1    
   181   91  213 1    
   182   91  214 1    
   183   92   93 2    
   184   92   94 am   BACKBONE|DICT|INTERRES
   185   94   95 1    
   186   94  215 1    
   187   95   96 1    
   188   95   97 1    
   189   95  216 1    
   190   96  217 1    
   191   96  218 1    
   192   96  219 1    
   193   97   98 2    
   194   97   99 am   BACKBONE|DICT|INTERRES
   195   99  100 1    
   196   99  220 1    
   197  100  101 1    
   198  100  102 1    
   199  100  221 1    
   200  101  222 1    
   201  101  223 1    
   202  101  224 1    
   203  102  103 2    
   204  102  104 am   BACKBONE|DICT|INTERRES
   205  104  105 1    
   206  104  225 1    
   207  105  106 1    
   208  105  107 1    
   209  105  226 1    
   210  106  227 1    
   211  106  228 1    
   212  106  229 1    
   213  107  108 2    
   214  107  109 am   BACKBONE|DICT|INTERRES
   215  109  110 1    
   216  109  230 1    
   217  110  111 1    
   218  110  112 1    
   219  110  231 1    
   220  111  232 1    
   221  111  233 1    
   222  111  234 1    
   223  112  113 2    
   224  112  114 am   BACKBONE|DICT|INTERRES
   225  114  115 1    
   226  114  235 1    
   227  115  116 1    
   228  115  117 1    
   229  115  236 1    
   230  116  237 1    
   231  116  238 1    
   232  116  239 1    
   233  117  118 2    
   234  117  119 am   BACKBONE|DICT|INTERRES
   235  119  120 1    
   236  119  240 1    
   237  120  121 1    
   238  120  124 1    
   239  120  241 1    
   240  121  122 am   BACKBONE|DICT|INTERRES
   241  121  123 2    
   242  122  242 1    
   243  122  243 1    
   244  124  125 1    
   245  124  244 1    
   246  124  245 1    
   247  125  126 1    
   248  126  246 1    
   249  126  247 1    
@<TRIPOS>SUBSTRUCTURE
     1 UNK         1 GROUP             0       ****    0 ROOT    
