@<TRIPOS>MOLECULE
3R540
247   249    1
SMALL
USER_CHARGES


@<TRIPOS>ATOM
      1 CA          4.6289  -11.6503  -50.3566 C.3       0 UNK        -0.1800 
      2 C           5.6519  -12.5922  -50.9894 C.2       0 UNK         0.5000 
      3 O           6.5589  -12.1132  -51.6674 O.2       0 UNK        -0.5000 
      4 N           5.5681  -13.9215  -50.8227 N.am      1 UNK        -0.5000 
      5 CA          4.6081  -14.7089  -50.0315 C.3       1 UNK         0.1400 
      6 C6          3.1156  -14.5760  -50.4598 C.3       23 UNK        -0.0398 
      7 S7          2.8134  -14.6763  -52.2582 S.3       23 UNK        -0.2404 
      8 C8          3.2017  -16.4141  -52.6345 C.3       23 UNK        -0.0205 
      9 C9          2.2486  -17.3934  -51.9653 C.ar      23 UNK        -0.0193 
     10 C10         0.9719  -17.6076  -52.4924 C.ar      23 UNK        -0.1150 
     11 C11         0.1124  -18.5524  -51.9221 C.ar      23 UNK        -0.0193 
     12 C12         0.5477  -19.2899  -50.8146 C.ar      23 UNK        -0.1150 
     13 C13         1.8140  -19.0686  -50.2655 C.ar      23 UNK        -0.0193 
     14 C14         2.6595  -18.1202  -50.8455 C.ar      23 UNK        -0.1150 
     15 C15         2.2945  -19.8774  -49.0722 C.3       23 UNK        -0.0205 
     16 S16         2.0568  -18.9963  -47.4972 S.3       23 UNK        -0.2404 
     17 C17         0.2667  -19.1510  -47.1955 C.3       23 UNK        -0.0398 
     18 CA         -0.1360  -20.5747  -46.7188 C.3       11 UNK         0.1400 
     19 N          -0.9141  -20.5646  -45.4776 N.am      11 UNK        -0.5000 
     20 C          -1.2650  -21.6625  -44.7908 C.2       10 UNK         0.5000 
     21 O          -0.8896  -22.8003  -45.0739 O.2       10 UNK        -0.5000 
     22 CA         -2.2617  -21.4615  -43.6374 C.3       10 UNK         0.1400 
     23 CB         -1.5378  -21.0445  -42.3491 C.3       10 UNK        -0.1800 
     24 N          -3.2909  -20.4784  -43.9837 N.am      10 UNK        -0.5000 
     25 C          -4.2461  -20.6932  -44.9017 C.2       9 UNK         0.5000 
     26 O          -4.4020  -21.7680  -45.4804 O.2       9 UNK        -0.5000 
     27 CA         -5.1489  -19.5003  -45.2693 C.3       9 UNK         0.1400 
     28 CB         -6.3692  -19.4390  -44.3397 C.3       9 UNK        -0.1800 
     29 N          -4.4469  -18.2168  -45.2318 N.am      9 UNK        -0.5000 
     30 C          -3.4442  -17.8721  -46.0532 C.2       8 UNK         0.5000 
     31 O          -2.9947  -18.6044  -46.9322 O.2       8 UNK        -0.5000 
     32 CA         -2.7726  -16.5148  -45.7853 C.3       8 UNK         0.1400 
     33 CB         -3.5281  -15.3711  -46.4752 C.3       8 UNK        -0.1800 
     34 N          -2.6475  -16.2316  -44.3538 N.am      8 UNK        -0.5000 
     35 C          -1.8637  -16.9310  -43.5250 C.2       7 UNK         0.5000 
     36 O          -1.1637  -17.8803  -43.8877 O.2       7 UNK        -0.5000 
     37 CA         -1.8868  -16.5322  -42.0461 C.3       7 UNK         0.1400 
     38 CB         -2.7799  -17.4960  -41.2411 C.3       7 UNK        -0.1800 
     39 N          -0.5116  -16.5423  -41.5633 N.am      7 UNK        -0.5000 
     40 C          -0.0776  -16.0838  -40.3841 C.2       6 UNK         0.5000 
     41 O          -0.8127  -15.6884  -39.4787 O.2       6 UNK        -0.5000 
     42 CA          1.4503  -15.9896  -40.2253 C.3       6 UNK         0.1400 
     43 CB          2.1086  -17.3791  -40.2416 C.3       6 UNK        -0.1800 
     44 N           2.0200  -15.1555  -41.2848 N.am      6 UNK        -0.5000 
     45 C           1.8718  -13.8217  -41.3523 C.2       5 UNK         0.5000 
     46 O           1.3776  -13.1449  -40.4498 O.2       5 UNK        -0.5000 
     47 CA          2.3298  -13.1178  -42.6466 C.3       5 UNK         0.1400 
     48 CB          3.7360  -12.5270  -42.4688 C.3       5 UNK        -0.1800 
     49 N           2.3205  -14.0002  -43.8138 N.am      5 UNK        -0.5000 
     50 C           1.2183  -14.5370  -44.3602 C.2       4 UNK         0.5000 
     51 O           0.0770  -14.2396  -44.0086 O.2       4 UNK        -0.5000 
     52 CA          1.4119  -15.6086  -45.4524 C.3       4 UNK         0.1400 
     53 CB          0.8785  -15.1163  -46.8075 C.3       4 UNK        -0.1800 
     54 N           2.8031  -16.0502  -45.5942 N.am      4 UNK        -0.5000 
     55 C           3.4528  -16.8135  -44.7004 C.2       3 UNK         0.5000 
     56 O           2.9308  -17.2183  -43.6607 O.2       3 UNK        -0.5000 
     57 CA          4.9401  -17.1332  -44.9670 C.3       3 UNK         0.1400 
     58 CB          5.1182  -18.5584  -45.5102 C.3       3 UNK        -0.1800 
     59 N           5.5986  -16.1913  -45.8748 N.am      3 UNK        -0.5000 
     60 C           5.8594  -14.9101  -45.5835 C.2       2 UNK         0.5000 
     61 O           5.5995  -14.3958  -44.4960 O.2       2 UNK        -0.5000 
     62 CA          6.4717  -14.0456  -46.7051 C.3       2 UNK         0.1400 
     63 CB          8.0049  -14.0575  -46.6133 C.3       2 UNK        -0.1800 
     64 N           6.0700  -14.4117  -48.0708 N.am      2 UNK        -0.5000 
     65 C           4.8066  -14.4964  -48.5147 C.2       1 UNK         0.5000 
     66 O           3.8282  -14.3801  -47.7798 O.2       1 UNK        -0.5000 
     67 C          -0.8729  -21.3501  -47.8285 C.2       11 UNK         0.5000 
     68 O          -0.2748  -22.2194  -48.4578 O.2       11 UNK        -0.5000 
     69 N          -2.1671  -21.0578  -48.0155 N.am      12 UNK        -0.5000 
     70 CA         -3.0384  -21.7193  -48.9853 C.3       12 UNK         0.1400 
     71 CB         -4.4160  -21.0421  -48.9996 C.3       12 UNK        -0.1800 
     72 C          -3.1798  -23.2285  -48.7379 C.2       12 UNK         0.5000 
     73 O          -3.1679  -23.9959  -49.7000 O.2       12 UNK        -0.5000 
     74 N          -3.2814  -23.6322  -47.4654 N.am      13 UNK        -0.5000 
     75 CA         -3.2916  -25.0319  -47.0453 C.3       13 UNK         0.1400 
     76 CB         -3.6621  -25.1226  -45.5575 C.3       13 UNK        -0.1800 
     77 C          -1.9521  -25.7378  -47.3274 C.2       13 UNK         0.5000 
     78 O          -1.9567  -26.8443  -47.8670 O.2       13 UNK        -0.5000 
     79 N          -0.8346  -25.0763  -46.9923 N.am      14 UNK        -0.5000 
     80 CA          0.5269  -25.5702  -47.2162 C.3       14 UNK         0.1400 
     81 CB          1.5276  -24.6607  -46.4866 C.3       14 UNK        -0.1800 
     82 C           0.8905  -25.6925  -48.7084 C.2       14 UNK         0.5000 
     83 O           1.5094  -26.6800  -49.1064 O.2       14 UNK        -0.5000 
     84 N           0.4802  -24.6996  -49.5075 N.am      15 UNK        -0.5000 
     85 CA          0.6696  -24.6482  -50.9585 C.3       15 UNK         0.1400 
     86 CB          0.4738  -23.1961  -51.4280 C.3       15 UNK        -0.1800 
     87 C          -0.2745  -25.5860  -51.7370 C.2       15 UNK         0.5000 
     88 O          -0.0467  -25.8085  -52.9265 O.2       15 UNK        -0.5000 
     89 N          -1.3277  -26.0829  -51.0695 N.am      16 UNK        -0.5000 
     90 CA         -2.4497  -26.8579  -51.6135 C.3       16 UNK         0.1400 
     91 CB         -1.9773  -28.2136  -52.1780 C.3       16 UNK        -0.1800 
     92 C          -3.3099  -26.0490  -52.6108 C.2       16 UNK         0.5000 
     93 O          -3.9568  -26.6255  -53.4866 O.2       16 UNK        -0.5000 
     94 N          -3.3123  -24.7211  -52.4400 N.am      17 UNK        -0.5000 
     95 CA         -4.1428  -23.7666  -53.1699 C.3       17 UNK         0.1400 
     96 CB         -3.4353  -22.4027  -53.1667 C.3       17 UNK        -0.1800 
     97 C          -5.5512  -23.6659  -52.5509 C.2       17 UNK         0.5000 
     98 O          -6.5067  -23.3742  -53.2709 O.2       17 UNK        -0.5000 
     99 N          -5.6451  -23.9398  -51.2384 N.am      18 UNK        -0.5000 
    100 CA        -6.8483  -24.1044  -50.4186 C.3       18 UNK         0.1400 
    101 CB        -7.4422  -25.5085  -50.6615 C.3       18 UNK        -0.1800 
    102 C         -7.8720  -22.9631  -50.5892 C.2       18 UNK         0.5000 
    103 O         -7.6673  -21.8786  -50.0421 O.2       18 UNK        -0.5000 
    104 N         -8.9362  -23.2195  -51.3636 N.am      19 UNK        -0.5000 
    105 CA       -10.0419  -22.3062  -51.6662 C.3       19 UNK         0.1400 
    106 CB       -11.0841  -23.0595  -52.5073 C.3       19 UNK        -0.1800 
    107 C         -9.6325  -20.9928  -52.3645 C.2       19 UNK         0.5000 
    108 O        -10.4123  -20.0395  -52.3460 O.2       19 UNK        -0.5000 
    109 N         -8.4222  -20.9455  -52.9413 N.am      20 UNK        -0.5000 
    110 CA        -7.8041  -19.7325  -53.4813 C.3       20 UNK         0.1400 
    111 CB        -6.5116  -20.1153  -54.2135 C.3       20 UNK        -0.1800 
    112 C         -7.4983  -18.6676  -52.4069 C.2       20 UNK         0.5000 
    113 O         -7.4021  -17.4884  -52.7471 O.2       20 UNK        -0.5000 
    114 N         -7.3342  -19.0970  -51.1449 N.am      21 UNK        -0.5000 
    115 CA        -7.1308  -18.3169  -49.9151 C.3       21 UNK         0.1400 
    116 CB        -8.3425  -17.4067  -49.6402 C.3       21 UNK        -0.1800 
    117 C         -5.8111  -17.5221  -49.8150 C.2       21 UNK         0.5000 
    118 O         -5.3833  -17.2407  -48.6975 O.2       21 UNK        -0.5000 
    119 N         -5.1897  -17.1844  -50.9513 N.am      22 UNK        -0.5000 
    120 CA        -3.8862  -16.5057  -51.0866 C.3       22 UNK         0.1400 
    121 C         -3.8501  -15.0347  -50.5669 C.2       22 UNK         0.5000 
    122 N         -4.9849  -14.3809  -50.3509 N.am      22 UNK        -0.7600 
    123 O         -2.7803  -14.4591  -50.3887 O.2       22 UNK        -0.5000 
    124 C124       -2.6970  -17.3560  -50.5547 C.3       23 UNK        -0.0398 
    125 S125       -2.6068  -19.0029  -51.3392 S.3       23 UNK        -0.2404 
    126 C126       -1.2585  -18.7952  -52.5481 C.3       23 UNK        -0.0205 
    127 H127        5.0084  -10.6283  -50.3581 H         1 UNK         0.0600 
    128 H128        4.4059  -11.9069  -49.3230 H         1 UNK         0.0600 
    129 H129        3.7034  -11.6579  -50.9315 H         1 UNK         0.0600 
    130 H130        6.2668  -14.4817  -51.2899 H         1 UNK         0.3000 
    131 H131        4.8895  -15.7483  -50.2020 H         1 UNK         0.0600 
    132 H132        2.5162  -15.3449  -49.9695 H         1 UNK         0.0800 
    133 H133        2.6961  -13.6306  -50.1154 H         1 UNK         0.0800 
    134 H134        3.1516  -16.5527  -53.7154 H         1 UNK         0.0800 
    135 H135        4.2347  -16.6268  -52.3568 H         1 UNK         0.0800 
    136 H136        0.6566  -17.0470  -53.3614 H         1 UNK         0.1150 
    137 H137       -0.0985  -20.0407  -50.3832 H         1 UNK         0.1150 
    138 H138        3.6460  -17.9632  -50.4329 H         1 UNK         0.1150 
    139 H139        1.8092  -20.8514  -49.0424 H         1 UNK         0.0800 
    140 H140        3.3589  -20.0869  -49.1877 H         1 UNK         0.0800 
    141 H141        0.0242  -18.4150  -46.4287 H         1 UNK         0.0800 
    142 H142       -0.2826  -18.8213  -48.0797 H         1 UNK         0.0800 
    143 H143        0.7694  -21.1417  -46.4914 H         1 UNK         0.0600 
    144 H144       -1.2466  -19.6646  -45.1537 H         1 UNK         0.3000 
    145 H145       -2.7540  -22.4185  -43.4509 H         1 UNK         0.0600 
    146 H146       -2.2380  -20.9356  -41.5210 H         1 UNK         0.0600 
    147 H147       -0.8062  -21.7985  -42.0563 H         1 UNK         0.0600 
    148 H148       -1.0018  -20.1030  -42.4680 H         1 UNK         0.0600 
    149 H149       -3.2027  -19.5598  -43.5770 H         1 UNK         0.3000 
    150 H150       -5.5045  -19.6552  -46.2902 H         1 UNK         0.0600 
    151 H151       -6.9251  -20.3773  -44.3640 H         1 UNK         0.0600 
    152 H152       -7.0560  -18.6484  -44.6426 H         1 UNK         0.0600 
    153 H153       -6.0794  -19.2554  -43.3043 H         1 UNK         0.0600 
    154 H154       -4.7456  -17.5538  -44.5325 H         1 UNK         0.3000 
    155 H155       -1.7685  -16.5608  -46.2099 H         1 UNK         0.0600 
    156 H156       -3.0250  -14.4162  -46.3224 H         1 UNK         0.0600 
    157 H157       -4.5503  -15.2793  -46.1067 H         1 UNK         0.0600 
    158 H158       -3.5817  -15.5383  -47.5513 H         1 UNK         0.0600 
    159 H159       -3.1830  -15.4542  -43.9949 H         1 UNK         0.3000 
    160 H160       -2.2761  -15.5159  -41.9585 H         1 UNK         0.0600 
    161 H161       -2.3511  -18.4961  -41.1952 H         1 UNK         0.0600 
    162 H162       -3.7714  -17.5807  -41.6876 H         1 UNK         0.0600 
    163 H163       -2.9212  -17.1498  -40.2176 H         1 UNK         0.0600 
    164 H164        0.1623  -16.8601  -42.2480 H         1 UNK         0.3000 
    165 H165        1.6654  -15.5260  -39.2601 H         1 UNK         0.0600 
    166 H166        1.9484  -17.8985  -41.1869 H         1 UNK         0.0600 
    167 H167        3.1843  -17.3053  -40.0814 H         1 UNK         0.0600 
    168 H168        1.7042  -18.0095  -39.4489 H         1 UNK         0.0600 
    169 H169        2.4313  -15.6408  -42.0719 H         1 UNK         0.3000 
    170 H170        1.6358  -12.2973  -42.8405 H         1 UNK         0.0600 
    171 H171        3.7568  -11.8096  -41.6476 H         1 UNK         0.0600 
    172 H172        4.4712  -13.3011  -42.2460 H         1 UNK         0.0600 
    173 H173        4.0623  -12.0027  -43.3673 H         1 UNK         0.0600 
    174 H174        3.2234  -14.2838  -44.1711 H         1 UNK         0.3000 
    175 H175        0.8188  -16.4756  -45.1575 H         1 UNK         0.0600 
    176 H176        1.3694  -14.1966  -47.1242 H         1 UNK         0.0600 
    177 H177        1.0209  -15.8644  -47.5879 H         1 UNK         0.0600 
    178 H178       -0.1885  -14.9007  -46.7522 H         1 UNK         0.0600 
    179 H179        3.3036  -15.6868  -46.3992 H         1 UNK         0.3000 
    180 H180        5.4481  -17.0803  -44.0016 H         1 UNK         0.0600 
    181 H181        4.7713  -18.6435  -46.5395 H         1 UNK         0.0600 
    182 H182        4.5632  -19.2828  -44.9124 H         1 UNK         0.0600 
    183 H183        6.1665  -18.8562  -45.4890 H         1 UNK         0.0600 
    184 H184        5.8351  -16.5324  -46.7946 H         1 UNK         0.3000 
    185 H185        6.1313  -13.0219  -46.5366 H         1 UNK         0.0600 
    186 H186        8.4488  -13.3574  -47.3214 H         1 UNK         0.0600 
    187 H187        8.3400  -13.7649  -45.6171 H         1 UNK         0.0600 
    188 H188        8.4119  -15.0483  -46.8190 H         1 UNK         0.0600 
    189 H189        6.8175  -14.5084  -48.7430 H         1 UNK         0.3000 
    190 H190       -2.5680  -20.2774  -47.4987 H         1 UNK         0.3000 
    191 H191       -2.5785  -21.5905  -49.9658 H         1 UNK         0.0600 
    192 H192       -4.9987  -21.3723  -49.8594 H         1 UNK         0.0600 
    193 H193       -4.3232  -19.9593  -49.0681 H         1 UNK         0.0600 
    194 H194       -4.9932  -21.2692  -48.1035 H         1 UNK         0.0600 
    195 H195       -3.3593  -22.9320  -46.7347 H         1 UNK         0.3000 
    196 H196       -4.0662  -25.5470  -47.6175 H         1 UNK         0.0600 
    197 H197       -3.7016  -26.1613  -45.2275 H         1 UNK         0.0600 
    198 H198       -4.6418  -24.6832  -45.3690 H         1 UNK         0.0600 
    199 H199       -2.9385  -24.6049  -44.9277 H         1 UNK         0.0600 
    200 H200       -0.9179  -24.1769  -46.5278 H         1 UNK         0.3000 
    201 H201        0.5949  -26.5676  -46.7771 H         1 UNK         0.0600 
    202 H202        1.3269  -24.6344  -45.4154 H         1 UNK         0.0600 
    203 H203        1.4871  -23.6365  -46.8583 H         1 UNK         0.0600 
    204 H204        2.5495  -25.0184  -46.6179 H         1 UNK         0.0600 
    205 H205        0.0398  -23.8845  -49.0827 H         1 UNK         0.3000 
    206 H206        1.6944  -24.9482  -51.1862 H         1 UNK         0.0600 
    207 H207       -0.5347  -22.8376  -51.2164 H         1 UNK         0.0600 
    208 H208        1.1767  -22.5238  -50.9359 H         1 UNK         0.0600 
    209 H209        0.6359  -23.1030  -52.5025 H         1 UNK         0.0600 
    210 H210       -1.4193  -25.8235  -50.0960 H         1 UNK         0.3000 
    211 H211       -3.1007  -27.0679  -50.7636 H         1 UNK         0.0600 
    212 H212       -1.3895  -28.0938  -53.0882 H         1 UNK         0.0600 
    213 H213       -2.8274  -28.8515  -52.4222 H         1 UNK         0.0600 
    214 H214       -1.3677  -28.7513  -51.4518 H         1 UNK         0.0600 
    215 H215       -2.8132  -24.3606  -51.6346 H         1 UNK         0.3000 
    216 H216       -4.2442  -24.1011  -54.2044 H         1 UNK         0.0600 
    217 H217       -3.9043  -21.7208  -53.8745 H         1 UNK         0.0600 
    218 H218       -2.3903  -22.4964  -53.4632 H         1 UNK         0.0600 
    219 H219       -3.4622  -21.9329  -52.1834 H         1 UNK         0.0600 
    220 H220       -4.7730  -24.1134  -50.7486 H         1 UNK         0.3000 
    221 H221       -6.5202  -24.0621  -49.3788 H         1 UNK         0.0600 
    222 H222       -7.7011  -25.6714  -51.7083 H         1 UNK         0.0600 
    223 H223       -6.7289  -26.2829  -50.3788 H         1 UNK         0.0600 
    224 H224       -8.3405  -25.6680  -50.0635 H         1 UNK         0.0600 
    225 H225       -8.9829  -24.1268  -51.8038 H         1 UNK         0.3000 
    226 H226      -10.5035  -22.0299  -50.7162 H         1 UNK         0.0600 
    227 H227      -11.4568  -23.9386  -51.9811 H         1 UNK         0.0600 
    228 H228      -11.9447  -22.4259  -52.7260 H         1 UNK         0.0600 
    229 H229      -10.6678  -23.3884  -53.4603 H         1 UNK         0.0600 
    230 H230       -7.8541  -21.7863  -52.9431 H         1 UNK         0.3000 
    231 H231       -8.4952  -19.2923  -54.2029 H         1 UNK         0.0600 
    232 H232       -6.0678  -19.2491  -54.7058 H         1 UNK         0.0600 
    233 H233       -6.6931  -20.8703  -54.9787 H         1 UNK         0.0600 
    234 H234       -5.7738  -20.5097  -53.5158 H         1 UNK         0.0600 
    235 H235       -7.4127  -20.0966  -50.9842 H         1 UNK         0.3000 
    236 H236       -7.0922  -19.0572  -49.1141 H         1 UNK         0.0600 
    237 H237       -9.2696  -17.9800  -49.6252 H         1 UNK         0.0600 
    238 H238       -8.2487  -16.9150  -48.6711 H         1 UNK         0.0600 
    239 H239       -8.4434  -16.6248  -50.3933 H         1 UNK         0.0600 
    240 H240       -5.6788  -17.3840  -51.8162 H         1 UNK         0.3000 
    241 H241       -3.7376  -16.4039  -52.1620 H         1 UNK         0.0600 
    242 H242       -5.8715  -14.8353  -50.4992 H         1 UNK         0.3800 
    243 H243       -4.9550  -13.4271  -50.0274 H         1 UNK         0.3800 
    244 H244       -1.7490  -16.8401  -50.7135 H         1 UNK         0.0800 
    245 H245       -2.7825  -17.4967  -49.4764 H         1 UNK         0.0800 
    246 H246       -1.5242  -17.9809  -53.2240 H         1 UNK         0.0800 
    247 H247       -1.2015  -19.6972  -53.1586 H         1 UNK         0.0800 
@<TRIPOS>BOND
     1    1    2 1    
     2    1  127 1    
     3    1  128 1    
     4    1  129 1    
     5    2    3 2    
     6    2    4 am   BACKBONE|DICT|INTERRES
     7    4    5 1    
     8    4  130 1    
     9    5    6 1    
    10    5   65 1    
    11    5  131 1    
    12    6    7 1    
    13    6  132 1    
    14    6  133 1    
    15    7    8 1    
    16    8    9 1    
    17    8  134 1    
    18    8  135 1    
    19    9   10 ar   
    20    9   14 ar   
    21   10   11 ar   
    22   10  136 1    
    23   11   12 ar   
    24   11  126 1    
    25   12   13 ar   
    26   12  137 1    
    27   13   14 ar   
    28   13   15 1    
    29   14  138 1    
    30   15   16 1    
    31   15  139 1    
    32   15  140 1    
    33   16   17 1    
    34   17   18 1    
    35   17  141 1    
    36   17  142 1    
    37   18   19 1    
    38   18   67 1    
    39   18  143 1    
    40   19   20 am   BACKBONE|DICT|INTERRES
    41   19  144 1    
    42   20   21 2    
    43   20   22 1    
    44   22   23 1    
    45   22   24 1    
    46   22  145 1    
    47   23  146 1    
    48   23  147 1    
    49   23  148 1    
    50   24   25 am   BACKBONE|DICT|INTERRES
    51   24  149 1    
    52   25   26 2    
    53   25   27 1    
    54   27   28 1    
    55   27   29 1    
    56   27  150 1    
    57   28  151 1    
    58   28  152 1    
    59   28  153 1    
    60   29   30 am   BACKBONE|DICT|INTERRES
    61   29  154 1    
    62   30   31 2    
    63   30   32 1    
    64   32   33 1    
    65   32   34 1    
    66   32  155 1    
    67   33  156 1    
    68   33  157 1    
    69   33  158 1    
    70   34   35 am   BACKBONE|DICT|INTERRES
    71   34  159 1    
    72   35   36 2    
    73   35   37 1    
    74   37   38 1    
    75   37   39 1    
    76   37  160 1    
    77   38  161 1    
    78   38  162 1    
    79   38  163 1    
    80   39   40 am   BACKBONE|DICT|INTERRES
    81   39  164 1    
    82   40   41 2    
    83   40   42 1    
    84   42   43 1    
    85   42   44 1    
    86   42  165 1    
    87   43  166 1    
    88   43  167 1    
    89   43  168 1    
    90   44   45 am   BACKBONE|DICT|INTERRES
    91   44  169 1    
    92   45   46 2    
    93   45   47 1    
    94   47   48 1    
    95   47   49 1    
    96   47  170 1    
    97   48  171 1    
    98   48  172 1    
    99   48  173 1    
   100   49   50 am   BACKBONE|DICT|INTERRES
   101   49  174 1    
   102   50   51 2    
   103   50   52 1    
   104   52   53 1    
   105   52   54 1    
   106   52  175 1    
   107   53  176 1    
   108   53  177 1    
   109   53  178 1    
   110   54   55 am   BACKBONE|DICT|INTERRES
   111   54  179 1    
   112   55   56 2    
   113   55   57 1    
   114   57   58 1    
   115   57   59 1    
   116   57  180 1    
   117   58  181 1    
   118   58  182 1    
   119   58  183 1    
   120   59   60 am   BACKBONE|DICT|INTERRES
   121   59  184 1    
   122   60   61 2    
   123   60   62 1    
   124   62   63 1    
   125   62   64 1    
   126   62  185 1    
   127   63  186 1    
   128   63  187 1    
   129   63  188 1    
   130   64   65 am   BACKBONE|DICT|INTERRES
   131   64  189 1    
   132   65   66 2    
   133   67   68 2    
   134   67   69 am   BACKBONE|DICT|INTERRES
   135   69   70 1    
   136   69  190 1    
   137   70   71 1    
   138   70   72 1    
   139   70  191 1    
   140   71  192 1    
   141   71  193 1    
   142   71  194 1    
   143   72   73 2    
   144   72   74 am   BACKBONE|DICT|INTERRES
   145   74   75 1    
   146   74  195 1    
   147   75   76 1    
   148   75   77 1    
   149   75  196 1    
   150   76  197 1    
   151   76  198 1    
   152   76  199 1    
   153   77   78 2    
   154   77   79 am   BACKBONE|DICT|INTERRES
   155   79   80 1    
   156   79  200 1    
   157   80   81 1    
   158   80   82 1    
   159   80  201 1    
   160   81  202 1    
   161   81  203 1    
   162   81  204 1    
   163   82   83 2    
   164   82   84 am   BACKBONE|DICT|INTERRES
   165   84   85 1    
   166   84  205 1    
   167   85   86 1    
   168   85   87 1    
   169   85  206 1    
   170   86  207 1    
   171   86  208 1    
   172   86  209 1    
   173   87   88 2    
   174   87   89 am   BACKBONE|DICT|INTERRES
   175   89   90 1    
   176   89  210 1    
   177   90   91 1    
   178   90   92 1    
   179   90  211 1    
   180   91  212 1    
   181   91  213 1    
   182   91  214 1    
   183   92   93 2    
   184   92   94 am   BACKBONE|DICT|INTERRES
   185   94   95 1    
   186   94  215 1    
   187   95   96 1    
   188   95   97 1    
   189   95  216 1    
   190   96  217 1    
   191   96  218 1    
   192   96  219 1    
   193   97   98 2    
   194   97   99 am   BACKBONE|DICT|INTERRES
   195   99  100 1    
   196   99  220 1    
   197  100  101 1    
   198  100  102 1    
   199  100  221 1    
   200  101  222 1    
   201  101  223 1    
   202  101  224 1    
   203  102  103 2    
   204  102  104 am   BACKBONE|DICT|INTERRES
   205  104  105 1    
   206  104  225 1    
   207  105  106 1    
   208  105  107 1    
   209  105  226 1    
   210  106  227 1    
   211  106  228 1    
   212  106  229 1    
   213  107  108 2    
   214  107  109 am   BACKBONE|DICT|INTERRES
   215  109  110 1    
   216  109  230 1    
   217  110  111 1    
   218  110  112 1    
   219  110  231 1    
   220  111  232 1    
   221  111  233 1    
   222  111  234 1    
   223  112  113 2    
   224  112  114 am   BACKBONE|DICT|INTERRES
   225  114  115 1    
   226  114  235 1    
   227  115  116 1    
   228  115  117 1    
   229  115  236 1    
   230  116  237 1    
   231  116  238 1    
   232  116  239 1    
   233  117  118 2    
   234  117  119 am   BACKBONE|DICT|INTERRES
   235  119  120 1    
   236  119  240 1    
   237  120  121 1    
   238  120  124 1    
   239  120  241 1    
   240  121  122 am   BACKBONE|DICT|INTERRES
   241  121  123 2    
   242  122  242 1    
   243  122  243 1    
   244  124  125 1    
   245  124  244 1    
   246  124  245 1    
   247  125  126 1    
   248  126  246 1    
   249  126  247 1    
@<TRIPOS>SUBSTRUCTURE
     1 UNK         1 GROUP             0       ****    0 ROOT    
