@<TRIPOS>MOLECULE
3R540
247   249    1
SMALL
USER_CHARGES


@<TRIPOS>ATOM
      1 CA         -2.0911  -12.9679  -46.1421 C.3       0 UNK        -0.1800 
      2 C          -1.0554  -12.1679  -46.9182 C.2       0 UNK         0.5000 
      3 O          -1.4226  -11.3804  -47.7905 O.2       0 UNK        -0.5000 
      4 N           0.2288  -12.3707  -46.6076 N.am      1 UNK        -0.5000 
      5 CA          1.3619  -11.6736  -47.2210 C.3       1 UNK         0.1400 
      6 C6          2.5037  -12.6602  -47.5760 C.3       23 UNK        -0.0398 
      7 S7          2.0246  -13.8149  -48.9036 S.3       23 UNK        -0.2404 
      8 C8          1.6394  -15.2969  -47.9263 C.3       23 UNK        -0.0205 
      9 C9          1.0639  -16.4111  -48.7840 C.ar      23 UNK        -0.0193 
     10 C10        -0.2133  -16.2820  -49.3386 C.ar      23 UNK        -0.1150 
     11 C11        -0.7843  -17.3324  -50.0629 C.ar      23 UNK        -0.0193 
     12 C12        -0.0525  -18.5068  -50.2528 C.ar      23 UNK        -0.1150 
     13 C13         1.2325  -18.6427  -49.7200 C.ar      23 UNK        -0.0193 
     14 C14         1.7853  -17.5912  -48.9846 C.ar      23 UNK        -0.1150 
     15 C15         2.0211  -19.9268  -49.9323 C.3       23 UNK        -0.0205 
     16 S16         1.9000  -21.0475  -48.5023 S.3       23 UNK        -0.2404 
     17 C17         0.1345  -21.4912  -48.5617 C.3       23 UNK        -0.0398 
     18 CA         -0.2168  -22.6554  -47.6085 C.3       11 UNK         0.1400 
     19 N          -0.1422  -22.2581  -46.1970 N.am      11 UNK        -0.5000 
     20 C          -0.2730  -23.0993  -45.1609 C.2       10 UNK         0.5000 
     21 O          -0.4389  -24.3118  -45.2836 O.2       10 UNK        -0.5000 
     22 CA         -0.2792  -22.4818  -43.7513 C.3       10 UNK         0.1400 
     23 CB          1.1369  -22.0788  -43.3136 C.3       10 UNK        -0.1800 
     24 N          -1.1785  -21.3332  -43.6494 N.am      10 UNK        -0.5000 
     25 C          -2.5061  -21.3876  -43.8285 C.2       9 UNK         0.5000 
     26 O          -3.1253  -22.4273  -44.0515 O.2       9 UNK        -0.5000 
     27 CA         -3.2653  -20.0492  -43.8075 C.3       9 UNK         0.1400 
     28 CB         -3.5696  -19.6064  -42.3685 C.3       9 UNK        -0.1800 
     29 N          -2.5422  -18.9893  -44.5094 N.am      9 UNK        -0.5000 
     30 C          -2.2795  -18.9939  -45.8242 C.2       8 UNK         0.5000 
     31 O          -2.6455  -19.8778  -46.5975 O.2       8 UNK        -0.5000 
     32 CA         -1.4158  -17.8396  -46.3517 C.3       8 UNK         0.1400 
     33 CB         -2.2678  -16.5816  -46.5692 C.3       8 UNK        -0.1800 
     34 N          -0.2967  -17.5369  -45.4596 N.am      8 UNK        -0.5000 
     35 C           0.7255  -18.3780  -45.2408 C.2       7 UNK         0.5000 
     36 O           0.8293  -19.4795  -45.7776 O.2       7 UNK        -0.5000 
     37 CA          1.7697  -17.9494  -44.1940 C.3       7 UNK         0.1400 
     38 CB          2.8385  -17.0433  -44.8211 C.3       7 UNK        -0.1800 
     39 N           1.1714  -17.2712  -43.0444 N.am      7 UNK        -0.5000 
     40 C           0.2868  -17.8317  -42.2073 C.2       6 UNK         0.5000 
     41 O          -0.0764  -19.0045  -42.2890 O.2       6 UNK        -0.5000 
     42 CA         -0.3211  -16.9313  -41.1161 C.3       6 UNK         0.1400 
     43 CB          0.3752  -17.1807  -39.7702 C.3       6 UNK        -0.1800 
     44 N          -0.2632  -15.5000  -41.4232 N.am      6 UNK        -0.5000 
     45 C          -0.9122  -14.8895  -42.4263 C.2       5 UNK         0.5000 
     46 O          -1.6120  -15.4796  -43.2495 O.2       5 UNK        -0.5000 
     47 CA         -0.6997  -13.3688  -42.5443 C.3       5 UNK         0.1400 
     48 CB         -1.6905  -12.6107  -41.6492 C.3       5 UNK        -0.1800 
     49 N           0.6692  -12.9859  -42.1953 N.am      5 UNK        -0.5000 
     50 C           1.7246  -13.1852  -42.9936 C.2       4 UNK         0.5000 
     51 O           1.6450  -13.6299  -44.1431 O.2       4 UNK        -0.5000 
     52 CA          3.1001  -12.9006  -42.3799 C.3       4 UNK         0.1400 
     53 CB          3.7066  -14.2107  -41.8379 C.3       4 UNK        -0.1800 
     54 N           3.9615  -12.3054  -43.3954 N.am      4 UNK        -0.5000 
     55 C           5.1623  -11.7534  -43.1786 C.2       3 UNK         0.5000 
     56 O           5.7013  -11.6910  -42.0729 O.2       3 UNK        -0.5000 
     57 CA          5.8790  -11.1527  -44.4025 C.3       3 UNK         0.1400 
     58 CB          6.5694  -12.2558  -45.2201 C.3       3 UNK        -0.1800 
     59 N           4.9747  -10.4020  -45.2734 N.am      3 UNK        -0.5000 
     60 C           4.4031   -9.2297  -44.9588 C.2       2 UNK         0.5000 
     61 O           4.6287   -8.6148  -43.9159 O.2       2 UNK        -0.5000 
     62 CA          3.3997   -8.6524  -45.9791 C.3       2 UNK         0.1400 
     63 CB          4.1024   -7.6720  -46.9308 C.3       2 UNK        -0.1800 
     64 N           2.7216   -9.6864  -46.7684 N.am      2 UNK        -0.5000 
     65 C           1.8667  -10.5827  -46.2571 C.2       1 UNK         0.5000 
     66 O           1.5174  -10.5821  -45.0740 O.2       1 UNK        -0.5000 
     67 C          -1.5941  -23.2469  -47.9745 C.2       11 UNK         0.5000 
     68 O          -1.6552  -24.2548  -48.6864 O.2       11 UNK        -0.5000 
     69 N          -2.6710  -22.6250  -47.4720 N.am      12 UNK        -0.5000 
     70 CA         -4.0477  -23.0815  -47.6460 C.3       12 UNK         0.1400 
     71 CB         -5.0287  -22.0433  -47.0835 C.3       12 UNK        -0.1800 
     72 C          -4.2889  -24.4669  -47.0224 C.2       12 UNK         0.5000 
     73 O          -4.8316  -25.3464  -47.6917 O.2       12 UNK        -0.5000 
     74 N          -3.8398  -24.6459  -45.7731 N.am      13 UNK        -0.5000 
     75 CA         -3.9198  -25.9057  -45.0346 C.3       13 UNK         0.1400 
     76 CB         -3.5170  -25.6637  -43.5720 C.3       13 UNK        -0.1800 
     77 C          -3.0653  -27.0290  -45.6505 C.2       13 UNK         0.5000 
     78 O          -3.4838  -28.1870  -45.6190 O.2       13 UNK        -0.5000 
     79 N          -1.8911  -26.6724  -46.1903 N.am      14 UNK        -0.5000 
     80 CA         -0.9448  -27.5979  -46.8081 C.3       14 UNK         0.1400 
     81 CB          0.3930  -26.8868  -47.0691 C.3       14 UNK        -0.1800 
     82 C          -1.4820  -28.2435  -48.0961 C.2       14 UNK         0.5000 
     83 O          -1.5040  -29.4724  -48.1851 O.2       14 UNK        -0.5000 
     84 N          -1.8852  -27.4184  -49.0730 N.am      15 UNK        -0.5000 
     85 CA         -2.2670  -27.8857  -50.4099 C.3       15 UNK         0.1400 
     86 CB         -1.0088  -28.3157  -51.1992 C.3       15 UNK        -0.1800 
     87 C          -3.0993  -26.8471  -51.1815 C.2       15 UNK         0.5000 
     88 O          -2.9708  -26.7591  -52.4046 O.2       15 UNK        -0.5000 
     89 N          -3.9128  -26.0445  -50.4750 N.am      16 UNK        -0.5000 
     90 CA         -4.7397  -24.9582  -51.0277 C.3       16 UNK         0.1400 
     91 CB         -5.8877  -25.5273  -51.8872 C.3       16 UNK        -0.1800 
     92 C          -3.9079  -23.9007  -51.7878 C.2       16 UNK         0.5000 
     93 O          -4.3773  -23.3421  -52.7807 O.2       16 UNK        -0.5000 
     94 N          -2.6513  -23.6997  -51.3610 N.am      17 UNK        -0.5000 
     95 CA         -1.6006  -22.8974  -52.0038 C.3       17 UNK         0.1400 
     96 CB         -1.9801  -21.4026  -51.9596 C.3       17 UNK        -0.1800 
     97 C          -1.2278  -23.3349  -53.4408 C.2       17 UNK         0.5000 
     98 O          -0.4817  -22.6179  -54.1083 O.2       17 UNK        -0.5000 
     99 N          -1.7848  -24.4639  -53.9104 N.am      18 UNK        -0.5000 
    100 CA        -1.8601  -24.9104  -55.3058 C.3       18 UNK         0.1400 
    101 CB        -0.4699  -25.3436  -55.8145 C.3       18 UNK        -0.1800 
    102 C         -2.5490  -23.8816  -56.2373 C.2       18 UNK         0.5000 
    103 O         -2.2882  -23.8796  -57.4420 O.2       18 UNK        -0.5000 
    104 N         -3.3972  -23.0105  -55.6685 N.am      19 UNK        -0.5000 
    105 CA        -3.9458  -21.8252  -56.3290 C.3       19 UNK         0.1400 
    106 CB        -2.8563  -20.7363  -56.4410 C.3       19 UNK        -0.1800 
    107 C         -5.2080  -21.3156  -55.6099 C.2       19 UNK         0.5000 
    108 O         -5.4114  -20.1038  -55.5205 O.2       19 UNK        -0.5000 
    109 N         -6.0240  -22.2448  -55.0880 N.am      20 UNK        -0.5000 
    110 CA        -7.2978  -22.0131  -54.3900 C.3       20 UNK         0.1400 
    111 CB        -8.3834  -21.5863  -55.3995 C.3       20 UNK        -0.1800 
    112 C         -7.1785  -21.0393  -53.1955 C.2       20 UNK         0.5000 
    113 O         -8.0032  -20.1361  -53.0412 O.2       20 UNK        -0.5000 
    114 N         -6.1136  -21.2170  -52.4004 N.am      21 UNK        -0.5000 
    115 CA        -5.7202  -20.4113  -51.2372 C.3       21 UNK         0.1400 
    116 CB        -6.7189  -20.6153  -50.0797 C.3       21 UNK        -0.1800 
    117 C         -5.4816  -18.9219  -51.5749 C.2       21 UNK         0.5000 
    118 O         -5.7216  -18.0546  -50.7342 O.2       21 UNK        -0.5000 
    119 N         -5.0277  -18.6617  -52.8089 N.am      22 UNK        -0.5000 
    120 CA        -4.8768  -17.3363  -53.4337 C.3       22 UNK         0.1400 
    121 C         -6.2284  -16.6501  -53.8094 C.2       22 UNK         0.5000 
    122 N         -7.3703  -17.3269  -53.7576 N.am      22 UNK        -0.7600 
    123 O         -6.2453  -15.4814  -54.1871 O.2       22 UNK        -0.5000 
    124 C124       -3.9238  -16.3702  -52.6694 C.3       23 UNK        -0.0398 
    125 S125       -2.2377  -17.0264  -52.4079 S.3       23 UNK        -0.2404 
    126 C126       -2.2045  -17.2158  -50.5974 C.3       23 UNK        -0.0205 
    127 H127       -2.5926  -12.3306  -45.4139 H         1 UNK         0.0600 
    128 H128       -2.8434  -13.3702  -46.8207 H         1 UNK         0.0600 
    129 H129       -1.6363  -13.8050  -45.6143 H         1 UNK         0.0600 
    130 H130        0.4756  -12.9530  -45.8152 H         1 UNK         0.3000 
    131 H131        1.0473  -11.1719  -48.1385 H         1 UNK         0.0600 
    132 H132        3.3842  -12.1251  -47.9349 H         1 UNK         0.0800 
    133 H133        2.8279  -13.2185  -46.6956 H         1 UNK         0.0800 
    134 H134        0.9252  -15.0496  -47.1401 H         1 UNK         0.0800 
    135 H135        2.5503  -15.6299  -47.4284 H         1 UNK         0.0800 
    136 H136       -0.7711  -15.3696  -49.1810 H         1 UNK         0.1150 
    137 H137       -0.4896  -19.3185  -50.8104 H         1 UNK         0.1150 
    138 H138        2.7708  -17.7023  -48.5546 H         1 UNK         0.1150 
    139 H139        1.6814  -20.4422  -50.8321 H         1 UNK         0.0800 
    140 H140        3.0713  -19.6842  -50.1007 H         1 UNK         0.0800 
    141 H141       -0.0970  -21.7509  -49.5941 H         1 UNK         0.0800 
    142 H142       -0.4625  -20.6096  -48.3216 H         1 UNK         0.0800 
    143 H143        0.5140  -23.4524  -47.7607 H         1 UNK         0.0600 
    144 H144        0.0392  -21.2746  -46.0148 H         1 UNK         0.3000 
    145 H145       -0.6407  -23.2442  -43.0581 H         1 UNK         0.0600 
    146 H146        1.1391  -21.6928  -42.2940 H         1 UNK         0.0600 
    147 H147        1.8106  -22.9361  -43.3395 H         1 UNK         0.0600 
    148 H148        1.5590  -21.3112  -43.9616 H         1 UNK         0.0600 
    149 H149       -0.7549  -20.4406  -43.4136 H         1 UNK         0.3000 
    150 H150       -4.2166  -20.1988  -44.3221 H         1 UNK         0.0600 
    151 H151       -4.1552  -20.3639  -41.8460 H         1 UNK         0.0600 
    152 H152       -4.1472  -18.6820  -42.3535 H         1 UNK         0.0600 
    153 H153       -2.6597  -19.4430  -41.7914 H         1 UNK         0.0600 
    154 H154       -2.1772  -18.2337  -43.9480 H         1 UNK         0.3000 
    155 H155       -1.0046  -18.1509  -47.3131 H         1 UNK         0.0600 
    156 H156       -2.7281  -16.2368  -45.6427 H         1 UNK         0.0600 
    157 H157       -3.0692  -16.7739  -47.2837 H         1 UNK         0.0600 
    158 H158       -1.6671  -15.7663  -46.9677 H         1 UNK         0.0600 
    159 H159       -0.3517  -16.6789  -44.9284 H         1 UNK         0.3000 
    160 H160        2.2614  -18.8546  -43.8319 H         1 UNK         0.0600 
    161 H161        3.6656  -16.8773  -44.1313 H         1 UNK         0.0600 
    162 H162        2.4299  -16.0702  -45.0929 H         1 UNK         0.0600 
    163 H163        3.2550  -17.4936  -45.7233 H         1 UNK         0.0600 
    164 H164        1.4044  -16.2981  -42.9167 H         1 UNK         0.3000 
    165 H165       -1.3723  -17.2092  -41.0156 H         1 UNK         0.0600 
    166 H166       -0.1009  -16.6162  -38.9683 H         1 UNK         0.0600 
    167 H167        0.3276  -18.2353  -39.4948 H         1 UNK         0.0600 
    168 H168        1.4280  -16.8973  -39.8030 H         1 UNK         0.0600 
    169 H169        0.2928  -14.9327  -40.8013 H         1 UNK         0.3000 
    170 H170       -0.8875  -13.0748  -43.5764 H         1 UNK         0.0600 
    171 H171       -2.7198  -12.8643  -41.9065 H         1 UNK         0.0600 
    172 H172       -1.5476  -12.8471  -40.5941 H         1 UNK         0.0600 
    173 H173       -1.5831  -11.5325  -41.7695 H         1 UNK         0.0600 
    174 H174        0.8116  -12.5991  -41.2732 H         1 UNK         0.3000 
    175 H175        2.9832  -12.1864  -41.5623 H         1 UNK         0.0600 
    176 H176        3.9126  -14.9174  -42.6422 H         1 UNK         0.0600 
    177 H177        4.6400  -14.0327  -41.3047 H         1 UNK         0.0600 
    178 H178        3.0287  -14.6989  -41.1367 H         1 UNK         0.0600 
    179 H179        3.5604  -12.2885  -44.3229 H         1 UNK         0.3000 
    180 H180        6.6480  -10.4683  -44.0377 H         1 UNK         0.0600 
    181 H181        5.8500  -12.9614  -45.6378 H         1 UNK         0.0600 
    182 H182        7.2634  -12.8242  -44.5994 H         1 UNK         0.0600 
    183 H183        7.1442  -11.8341  -46.0449 H         1 UNK         0.0600 
    184 H184        4.7540  -10.8165  -46.1653 H         1 UNK         0.3000 
    185 H185        2.6415   -8.1006  -45.4192 H         1 UNK         0.0600 
    186 H186        4.5966   -6.8745  -46.3742 H         1 UNK         0.0600 
    187 H187        4.8620   -8.1701  -47.5344 H         1 UNK         0.0600 
    188 H188        3.3901   -7.2000  -47.6078 H         1 UNK         0.0600 
    189 H189        2.9510   -9.7217  -47.7516 H         1 UNK         0.3000 
    190 H190       -2.5455  -21.7651  -46.9442 H         1 UNK         0.3000 
    191 H191       -4.2235  -23.1490  -48.7177 H         1 UNK         0.0600 
    192 H192       -4.9061  -21.9089  -46.0094 H         1 UNK         0.0600 
    193 H193       -6.0613  -22.3464  -47.2605 H         1 UNK         0.0600 
    194 H194       -4.8882  -21.0727  -47.5580 H         1 UNK         0.0600 
    195 H195       -3.4287  -23.8576  -45.2790 H         1 UNK         0.3000 
    196 H196       -4.9604  -26.2360  -45.0504 H         1 UNK         0.0600 
    197 H197       -2.4945  -25.2920  -43.4939 H         1 UNK         0.0600 
    198 H198       -3.5791  -26.5842  -42.9902 H         1 UNK         0.0600 
    199 H199       -4.1742  -24.9342  -43.0982 H         1 UNK         0.0600 
    200 H200       -1.5880  -25.7075  -46.1013 H         1 UNK         0.3000 
    201 H201       -0.7559  -28.4016  -46.0933 H         1 UNK         0.0600 
    202 H202        1.1032  -27.5549  -47.5579 H         1 UNK         0.0600 
    203 H203        0.8506  -26.5569  -46.1364 H         1 UNK         0.0600 
    204 H204        0.2705  -26.0126  -47.7086 H         1 UNK         0.0600 
    205 H205       -1.8387  -26.4152  -48.9279 H         1 UNK         0.3000 
    206 H206       -2.9159  -28.7569  -50.3001 H         1 UNK         0.0600 
    207 H207       -0.4570  -29.1031  -50.6863 H         1 UNK         0.0600 
    208 H208       -1.2713  -28.7086  -52.1822 H         1 UNK         0.0600 
    209 H209       -0.3292  -27.4763  -51.3503 H         1 UNK         0.0600 
    210 H210       -3.9841  -26.1701  -49.4709 H         1 UNK         0.3000 
    211 H211       -5.2061  -24.4471  -50.1884 H         1 UNK         0.0600 
    212 H212       -5.5208  -25.9918  -52.8030 H         1 UNK         0.0600 
    213 H213       -6.5852  -24.7409  -52.1779 H         1 UNK         0.0600 
    214 H214       -6.4574  -26.2757  -51.3365 H         1 UNK         0.0600 
    215 H215       -2.3557  -24.1909  -50.5225 H         1 UNK         0.3000 
    216 H216       -0.6990  -23.0420  -51.4088 H         1 UNK         0.0600 
    217 H217       -2.8541  -21.1852  -52.5736 H         1 UNK         0.0600 
    218 H218       -1.1679  -20.7841  -52.3412 H         1 UNK         0.0600 
    219 H219       -2.1939  -21.0767  -50.9418 H         1 UNK         0.0600 
    220 H220       -2.3380  -25.0196  -53.2659 H         1 UNK         0.3000 
    221 H221       -2.5016  -25.7927  -55.3043 H         1 UNK         0.0600 
    222 H222        0.2086  -24.4957  -55.9114 H         1 UNK         0.0600 
    223 H223       -0.0114  -26.0655  -55.1387 H         1 UNK         0.0600 
    224 H224       -0.5414  -25.8182  -56.7937 H         1 UNK         0.0600 
    225 H225       -3.5900  -23.0960  -54.6751 H         1 UNK         0.3000 
    226 H226       -4.2629  -22.1009  -57.3366 H         1 UNK         0.0600 
    227 H227       -1.9913  -21.0903  -57.0016 H         1 UNK         0.0600 
    228 H228       -3.2299  -19.8525  -56.9594 H         1 UNK         0.0600 
    229 H229       -2.5079  -20.4208  -55.4565 H         1 UNK         0.0600 
    230 H230       -5.7483  -23.2127  -55.1763 H         1 UNK         0.3000 
    231 H231       -7.5977  -22.9732  -53.9678 H         1 UNK         0.0600 
    232 H232       -8.4733  -22.3088  -56.2105 H         1 UNK         0.0600 
    233 H233       -8.1639  -20.6131  -55.8403 H         1 UNK         0.0600 
    234 H234       -9.3601  -21.5161  -54.9194 H         1 UNK         0.0600 
    235 H235       -5.4800  -21.9794  -52.6380 H         1 UNK         0.3000 
    236 H236       -4.7568  -20.8002  -50.9062 H         1 UNK         0.0600 
    237 H237       -6.3876  -20.0996  -49.1782 H         1 UNK         0.0600 
    238 H238       -7.7087  -20.2307  -50.3271 H         1 UNK         0.0600 
    239 H239       -6.8214  -21.6713  -49.8300 H         1 UNK         0.0600 
    240 H240       -4.9282  -19.4369  -53.4515 H         1 UNK         0.3000 
    241 H241       -4.4081  -17.5409  -54.3968 H         1 UNK         0.0600 
    242 H242       -7.4012  -18.2988  -53.4669 H         1 UNK         0.3800 
    243 H243       -8.2262  -16.8633  -54.0166 H         1 UNK         0.3800 
    244 H244       -3.8032  -15.4448  -53.2346 H         1 UNK         0.0800 
    245 H245       -4.3651  -16.0701  -51.7189 H         1 UNK         0.0800 
    246 H246       -2.7061  -16.3674  -50.1297 H         1 UNK         0.0800 
    247 H247       -2.7744  -18.1023  -50.3162 H         1 UNK         0.0800 
@<TRIPOS>BOND
     1    1    2 1    
     2    1  127 1    
     3    1  128 1    
     4    1  129 1    
     5    2    3 2    
     6    2    4 am   BACKBONE|DICT|INTERRES
     7    4    5 1    
     8    4  130 1    
     9    5    6 1    
    10    5   65 1    
    11    5  131 1    
    12    6    7 1    
    13    6  132 1    
    14    6  133 1    
    15    7    8 1    
    16    8    9 1    
    17    8  134 1    
    18    8  135 1    
    19    9   10 ar   
    20    9   14 ar   
    21   10   11 ar   
    22   10  136 1    
    23   11   12 ar   
    24   11  126 1    
    25   12   13 ar   
    26   12  137 1    
    27   13   14 ar   
    28   13   15 1    
    29   14  138 1    
    30   15   16 1    
    31   15  139 1    
    32   15  140 1    
    33   16   17 1    
    34   17   18 1    
    35   17  141 1    
    36   17  142 1    
    37   18   19 1    
    38   18   67 1    
    39   18  143 1    
    40   19   20 am   BACKBONE|DICT|INTERRES
    41   19  144 1    
    42   20   21 2    
    43   20   22 1    
    44   22   23 1    
    45   22   24 1    
    46   22  145 1    
    47   23  146 1    
    48   23  147 1    
    49   23  148 1    
    50   24   25 am   BACKBONE|DICT|INTERRES
    51   24  149 1    
    52   25   26 2    
    53   25   27 1    
    54   27   28 1    
    55   27   29 1    
    56   27  150 1    
    57   28  151 1    
    58   28  152 1    
    59   28  153 1    
    60   29   30 am   BACKBONE|DICT|INTERRES
    61   29  154 1    
    62   30   31 2    
    63   30   32 1    
    64   32   33 1    
    65   32   34 1    
    66   32  155 1    
    67   33  156 1    
    68   33  157 1    
    69   33  158 1    
    70   34   35 am   BACKBONE|DICT|INTERRES
    71   34  159 1    
    72   35   36 2    
    73   35   37 1    
    74   37   38 1    
    75   37   39 1    
    76   37  160 1    
    77   38  161 1    
    78   38  162 1    
    79   38  163 1    
    80   39   40 am   BACKBONE|DICT|INTERRES
    81   39  164 1    
    82   40   41 2    
    83   40   42 1    
    84   42   43 1    
    85   42   44 1    
    86   42  165 1    
    87   43  166 1    
    88   43  167 1    
    89   43  168 1    
    90   44   45 am   BACKBONE|DICT|INTERRES
    91   44  169 1    
    92   45   46 2    
    93   45   47 1    
    94   47   48 1    
    95   47   49 1    
    96   47  170 1    
    97   48  171 1    
    98   48  172 1    
    99   48  173 1    
   100   49   50 am   BACKBONE|DICT|INTERRES
   101   49  174 1    
   102   50   51 2    
   103   50   52 1    
   104   52   53 1    
   105   52   54 1    
   106   52  175 1    
   107   53  176 1    
   108   53  177 1    
   109   53  178 1    
   110   54   55 am   BACKBONE|DICT|INTERRES
   111   54  179 1    
   112   55   56 2    
   113   55   57 1    
   114   57   58 1    
   115   57   59 1    
   116   57  180 1    
   117   58  181 1    
   118   58  182 1    
   119   58  183 1    
   120   59   60 am   BACKBONE|DICT|INTERRES
   121   59  184 1    
   122   60   61 2    
   123   60   62 1    
   124   62   63 1    
   125   62   64 1    
   126   62  185 1    
   127   63  186 1    
   128   63  187 1    
   129   63  188 1    
   130   64   65 am   BACKBONE|DICT|INTERRES
   131   64  189 1    
   132   65   66 2    
   133   67   68 2    
   134   67   69 am   BACKBONE|DICT|INTERRES
   135   69   70 1    
   136   69  190 1    
   137   70   71 1    
   138   70   72 1    
   139   70  191 1    
   140   71  192 1    
   141   71  193 1    
   142   71  194 1    
   143   72   73 2    
   144   72   74 am   BACKBONE|DICT|INTERRES
   145   74   75 1    
   146   74  195 1    
   147   75   76 1    
   148   75   77 1    
   149   75  196 1    
   150   76  197 1    
   151   76  198 1    
   152   76  199 1    
   153   77   78 2    
   154   77   79 am   BACKBONE|DICT|INTERRES
   155   79   80 1    
   156   79  200 1    
   157   80   81 1    
   158   80   82 1    
   159   80  201 1    
   160   81  202 1    
   161   81  203 1    
   162   81  204 1    
   163   82   83 2    
   164   82   84 am   BACKBONE|DICT|INTERRES
   165   84   85 1    
   166   84  205 1    
   167   85   86 1    
   168   85   87 1    
   169   85  206 1    
   170   86  207 1    
   171   86  208 1    
   172   86  209 1    
   173   87   88 2    
   174   87   89 am   BACKBONE|DICT|INTERRES
   175   89   90 1    
   176   89  210 1    
   177   90   91 1    
   178   90   92 1    
   179   90  211 1    
   180   91  212 1    
   181   91  213 1    
   182   91  214 1    
   183   92   93 2    
   184   92   94 am   BACKBONE|DICT|INTERRES
   185   94   95 1    
   186   94  215 1    
   187   95   96 1    
   188   95   97 1    
   189   95  216 1    
   190   96  217 1    
   191   96  218 1    
   192   96  219 1    
   193   97   98 2    
   194   97   99 am   BACKBONE|DICT|INTERRES
   195   99  100 1    
   196   99  220 1    
   197  100  101 1    
   198  100  102 1    
   199  100  221 1    
   200  101  222 1    
   201  101  223 1    
   202  101  224 1    
   203  102  103 2    
   204  102  104 am   BACKBONE|DICT|INTERRES
   205  104  105 1    
   206  104  225 1    
   207  105  106 1    
   208  105  107 1    
   209  105  226 1    
   210  106  227 1    
   211  106  228 1    
   212  106  229 1    
   213  107  108 2    
   214  107  109 am   BACKBONE|DICT|INTERRES
   215  109  110 1    
   216  109  230 1    
   217  110  111 1    
   218  110  112 1    
   219  110  231 1    
   220  111  232 1    
   221  111  233 1    
   222  111  234 1    
   223  112  113 2    
   224  112  114 am   BACKBONE|DICT|INTERRES
   225  114  115 1    
   226  114  235 1    
   227  115  116 1    
   228  115  117 1    
   229  115  236 1    
   230  116  237 1    
   231  116  238 1    
   232  116  239 1    
   233  117  118 2    
   234  117  119 am   BACKBONE|DICT|INTERRES
   235  119  120 1    
   236  119  240 1    
   237  120  121 1    
   238  120  124 1    
   239  120  241 1    
   240  121  122 am   BACKBONE|DICT|INTERRES
   241  121  123 2    
   242  122  242 1    
   243  122  243 1    
   244  124  125 1    
   245  124  244 1    
   246  124  245 1    
   247  125  126 1    
   248  126  246 1    
   249  126  247 1    
@<TRIPOS>SUBSTRUCTURE
     1 UNK         1 GROUP             0       ****    0 ROOT    
