@<TRIPOS>MOLECULE
3R540
247   249    1
SMALL
USER_CHARGES


@<TRIPOS>ATOM
      1 CA          2.6310  -12.5255  -53.0437 C.3       0 UNK        -0.1800 
      2 C           1.8600  -13.4825  -52.1378 C.2       0 UNK         0.5000 
      3 O           0.8834  -14.0814  -52.5804 O.2       0 UNK        -0.5000 
      4 N           2.2502  -13.6532  -50.8711 N.am      1 UNK        -0.5000 
      5 CA          3.3334  -12.9709  -50.1658 C.3       1 UNK         0.1400 
      6 C6          4.7533  -13.4959  -50.5768 C.3       23 UNK        -0.0398 
      7 S7          5.9216  -14.0627  -49.2763 S.3       23 UNK        -0.2404 
      8 C8          6.3065  -15.7707  -49.7927 C.3       23 UNK        -0.0205 
      9 C9          5.3592  -16.8100  -49.2026 C.ar      23 UNK        -0.0193 
     10 C10         3.9841  -16.7320  -49.4293 C.ar      23 UNK        -0.1150 
     11 C11         3.1183  -17.6997  -48.9193 C.ar      23 UNK        -0.0193 
     12 C12         3.6366  -18.7764  -48.1926 C.ar      23 UNK        -0.1150 
     13 C13         5.0140  -18.8764  -47.9620 C.ar      23 UNK        -0.0193 
     14 C14         5.8649  -17.8840  -48.4627 C.ar      23 UNK        -0.1150 
     15 C15         5.6050  -20.0759  -47.2276 C.3       23 UNK        -0.0205 
     16 S16         4.8839  -20.3437  -45.5728 S.3       23 UNK        -0.2404 
     17 C17         3.9356  -21.8819  -45.8404 C.3       23 UNK        -0.0398 
     18 CA          3.6381  -22.6395  -44.5203 C.3       11 UNK         0.1400 
     19 N           2.6907  -21.9031  -43.6757 N.am      11 UNK        -0.5000 
     20 C           2.4914  -22.1123  -42.3682 C.2       10 UNK         0.5000 
     21 O           3.1187  -22.9388  -41.7049 O.2       10 UNK        -0.5000 
     22 CA          1.3830  -21.2794  -41.6952 C.3       10 UNK         0.1400 
     23 CB          1.9004  -19.8796  -41.3314 C.3       10 UNK        -0.1800 
     24 N           0.1716  -21.1592  -42.5125 N.am      10 UNK        -0.5000 
     25 C          -0.6357  -22.1810  -42.8347 C.2       9 UNK         0.5000 
     26 O          -0.4440  -23.3426  -42.4755 O.2       9 UNK        -0.5000 
     27 CA         -1.8387  -21.8655  -43.7446 C.3       9 UNK         0.1400 
     28 CB         -2.9814  -21.2147  -42.9518 C.3       9 UNK        -0.1800 
     29 N          -1.4781  -21.0116  -44.8743 N.am      9 UNK        -0.5000 
     30 C          -0.6379  -21.3703  -45.8543 C.2       8 UNK         0.5000 
     31 O          -0.1347  -22.4894  -45.9530 O.2       8 UNK        -0.5000 
     32 CA         -0.2600  -20.2829  -46.8710 C.3       8 UNK         0.1400 
     33 CB         -1.3339  -20.1567  -47.9626 C.3       8 UNK        -0.1800 
     34 N          -0.0325  -18.9872  -46.2309 N.am      8 UNK        -0.5000 
     35 C           0.9191  -18.7503  -45.3164 C.2       7 UNK         0.5000 
     36 O           1.7165  -19.6002  -44.9318 O.2       7 UNK        -0.5000 
     37 CA          0.9387  -17.3584  -44.6688 C.3       7 UNK         0.1400 
     38 CB          1.6797  -16.3412  -45.5484 C.3       7 UNK        -0.1800 
     39 N          -0.4153  -16.8943  -44.3664 N.am      7 UNK        -0.5000 
     40 C          -1.1826  -17.4250  -43.4021 C.2       6 UNK         0.5000 
     41 O          -0.7917  -18.2952  -42.6242 O.2       6 UNK        -0.5000 
     42 CA         -2.6438  -16.9481  -43.3240 C.3       6 UNK         0.1400 
     43 CB         -2.7975  -15.7694  -42.3549 C.3       6 UNK        -0.1800 
     44 N          -3.1797  -16.5791  -44.6340 N.am      6 UNK        -0.5000 
     45 C          -3.5188  -17.4760  -45.5698 C.2       5 UNK         0.5000 
     46 O          -3.4254  -18.6936  -45.4109 O.2       5 UNK        -0.5000 
     47 CA         -3.9988  -16.9161  -46.9224 C.3       5 UNK         0.1400 
     48 CB         -5.4873  -16.5427  -46.8454 C.3       5 UNK        -0.1800 
     49 N          -3.2378  -15.7506  -47.3791 N.am      5 UNK        -0.5000 
     50 C          -1.9137  -15.7258  -47.5816 C.2       4 UNK         0.5000 
     51 O          -1.1875  -16.7036  -47.4147 O.2       4 UNK        -0.5000 
     52 CA         -1.2754  -14.3913  -48.0101 C.3       4 UNK         0.1400 
     53 CB         -2.2784  -13.3864  -48.6168 C.3       4 UNK        -0.1800 
     54 N          -0.5155  -13.7660  -46.9216 N.am      4 UNK        -0.5000 
     55 C          -0.9693  -13.4034  -45.7097 C.2       3 UNK         0.5000 
     56 O          -2.1114  -13.6449  -45.3147 O.2       3 UNK        -0.5000 
     57 CA          0.0013  -12.6534  -44.7682 C.3       3 UNK         0.1400 
     58 CB         -0.0187  -13.2302  -43.3436 C.3       3 UNK        -0.1800 
     59 N           1.3854  -12.6461  -45.2409 N.am      3 UNK        -0.5000 
     60 C           1.9218  -11.7331  -46.0578 C.2       2 UNK         0.5000 
     61 O           1.2968  -10.7765  -46.5187 O.2       2 UNK        -0.5000 
     62 CA          3.4028  -11.9241  -46.4487 C.3       2 UNK         0.1400 
     63 CB          4.1199  -13.0757  -45.7056 C.3       2 UNK        -0.1800 
     64 N           3.5596  -12.0856  -47.8955 N.am      2 UNK        -0.5000 
     65 C           2.9822  -13.0190  -48.6656 C.2       1 UNK         0.5000 
     66 O           2.1938  -13.8747  -48.2465 O.2       1 UNK        -0.5000 
     67 C           3.1666  -24.0784  -44.8335 C.2       11 UNK         0.5000 
     68 O           3.9767  -24.8781  -45.3038 O.2       11 UNK        -0.5000 
     69 N           1.8769  -24.3733  -44.6040 N.am      12 UNK        -0.5000 
     70 CA          1.1645  -25.6048  -44.9682 C.3       12 UNK         0.1400 
     71 CB          1.7228  -26.8246  -44.2065 C.3       12 UNK        -0.1800 
     72 C           1.0942  -25.8170  -46.4976 C.2       12 UNK         0.5000 
     73 O           1.0800  -26.9534  -46.9734 O.2       12 UNK        -0.5000 
     74 N           1.0412  -24.7012  -47.2342 N.am      13 UNK        -0.5000 
     75 CA          0.8857  -24.6321  -48.6858 C.3       13 UNK         0.1400 
     76 CB          1.7012  -23.4341  -49.2001 C.3       13 UNK        -0.1800 
     77 C          -0.5927  -24.4874  -49.0961 C.2       13 UNK         0.5000 
     78 O          -0.9122  -24.6685  -50.2712 O.2       13 UNK        -0.5000 
     79 N          -1.4573  -24.1417  -48.1312 N.am      14 UNK        -0.5000 
     80 CA         -2.8950  -23.9458  -48.2895 C.3       14 UNK         0.1400 
     81 CB         -3.4864  -23.4933  -46.9438 C.3       14 UNK        -0.1800 
     82 C          -3.6415  -25.1905  -48.8055 C.2       14 UNK         0.5000 
     83 O          -3.3257  -26.3174  -48.4178 O.2       14 UNK        -0.5000 
     84 N          -4.6569  -24.9307  -49.6301 N.am      15 UNK        -0.5000 
     85 CA         -5.6315  -25.8839  -50.1455 C.3       15 UNK         0.1400 
     86 CB         -5.1869  -26.3688  -51.5402 C.3       15 UNK        -0.1800 
     87 C          -7.0023  -25.1817  -50.1252 C.2       15 UNK         0.5000 
     88 O          -7.2751  -24.4327  -49.1828 O.2       15 UNK        -0.5000 
     89 N          -7.8258  -25.3816  -51.1637 N.am      16 UNK        -0.5000 
     90 CA         -9.1185  -24.7165  -51.3579 C.3       16 UNK         0.1400 
     91 CB         -9.7547  -25.2203  -52.6618 C.3       16 UNK        -0.1800 
     92 C          -8.9741  -23.1825  -51.3819 C.2       16 UNK         0.5000 
     93 O          -8.1515  -22.6640  -52.1412 O.2       16 UNK        -0.5000 
     94 N          -9.7256  -22.4964  -50.5087 N.am      17 UNK        -0.5000 
     95 CA         -9.6819  -21.0472  -50.2640 C.3       17 UNK         0.1400 
     96 CB        -10.2700  -20.2814  -51.4679 C.3       17 UNK        -0.1800 
     97 C          -8.2752  -20.5448  -49.8644 C.2       17 UNK         0.5000 
     98 O          -7.8550  -19.4732  -50.3004 O.2       17 UNK        -0.5000 
     99 N          -7.5482  -21.3629  -49.0870 N.am      18 UNK        -0.5000 
    100 CA        -6.1434  -21.1906  -48.6980 C.3       18 UNK         0.1400 
    101 CB        -5.9622  -19.9731  -47.7734 C.3       18 UNK        -0.1800 
    102 C         -5.1948  -21.1754  -49.9154 C.2       18 UNK         0.5000 
    103 O         -4.2648  -20.3696  -49.9747 O.2       18 UNK        -0.5000 
    104 N         -5.4836  -22.0652  -50.8786 N.am      19 UNK        -0.5000 
    105 CA        -4.8622  -22.1735  -52.2043 C.3       19 UNK         0.1400 
    106 CB        -3.3735  -22.5721  -52.1015 C.3       19 UNK        -0.1800 
    107 C         -5.0934  -20.8933  -53.0294 C.2       19 UNK         0.5000 
    108 O         -4.1469  -20.3368  -53.5846 O.2       19 UNK        -0.5000 
    109 N         -6.3495  -20.4213  -53.0361 N.am      20 UNK        -0.5000 
    110 CA        -6.8046  -19.1384  -53.5890 C.3       20 UNK         0.1400 
    111 CB        -6.7810  -19.1789  -55.1306 C.3       20 UNK        -0.1800 
    112 C         -6.0328  -17.9342  -53.0000 C.2       20 UNK         0.5000 
    113 O         -5.6159  -17.0409  -53.7389 O.2       20 UNK        -0.5000 
    114 N         -5.8422  -17.9665  -51.6729 N.am      21 UNK        -0.5000 
    115 CA        -5.0454  -17.0530  -50.8518 C.3       21 UNK         0.1400 
    116 CB        -5.7370  -15.6787  -50.7447 C.3       21 UNK        -0.1800 
    117 C         -3.5755  -16.9624  -51.3139 C.2       21 UNK         0.5000 
    118 O         -3.0833  -15.8672  -51.5912 O.2       21 UNK        -0.5000 
    119 N         -2.9028  -18.1204  -51.3748 N.am      22 UNK        -0.5000 
    120 CA        -1.5035  -18.2687  -51.8172 C.3       22 UNK         0.1400 
    121 C         -1.2950  -18.0246  -53.3460 C.2       22 UNK         0.5000 
    122 N         -2.2199  -18.4370  -54.2011 N.am      22 UNK        -0.7600 
    123 O         -0.2882  -17.4715  -53.7800 O.2       22 UNK        -0.5000 
    124 C124       -0.5193  -17.4606  -50.9219 C.3       23 UNK        -0.0398 
    125 S125        1.1289  -18.2257  -50.7677 S.3       23 UNK        -0.2404 
    126 C126        1.6262  -17.5565  -49.1547 C.3       23 UNK        -0.0205 
    127 H127        2.1954  -12.5127  -54.0431 H         1 UNK         0.0600 
    128 H128        3.6718  -12.8318  -53.1415 H         1 UNK         0.0600 
    129 H129        2.5966  -11.5080  -52.6550 H         1 UNK         0.0600 
    130 H130        1.7129  -14.2534  -50.2581 H         1 UNK         0.3000 
    131 H131        3.2766  -11.9142  -50.4343 H         1 UNK         0.0600 
    132 H132        4.6575  -14.2922  -51.3153 H         1 UNK         0.0800 
    133 H133        5.2675  -12.6989  -51.1151 H         1 UNK         0.0800 
    134 H134        6.3037  -15.8505  -50.8803 H         1 UNK         0.0800 
    135 H135        7.3307  -15.9834  -49.4830 H         1 UNK         0.0800 
    136 H136        3.5773  -15.9171  -50.0060 H         1 UNK         0.1150 
    137 H137        2.9708  -19.5357  -47.8082 H         1 UNK         0.1150 
    138 H138        6.9304  -17.9616  -48.2975 H         1 UNK         0.1150 
    139 H139        5.4819  -20.9592  -47.8546 H         1 UNK         0.0800 
    140 H140        6.6813  -19.9496  -47.1014 H         1 UNK         0.0800 
    141 H141        3.0102  -21.6427  -46.3671 H         1 UNK         0.0800 
    142 H142        4.5159  -22.5158  -46.5133 H         1 UNK         0.0800 
    143 H143        4.5751  -22.7372  -43.9678 H         1 UNK         0.0600 
    144 H144        2.1924  -21.1385  -44.1299 H         1 UNK         0.3000 
    145 H145        1.1072  -21.7865  -40.7683 H         1 UNK         0.0600 
    146 H146        1.1467  -19.3093  -40.7881 H         1 UNK         0.0600 
    147 H147        2.1767  -19.3091  -42.2182 H         1 UNK         0.0600 
    148 H148        2.7831  -19.9429  -40.6939 H         1 UNK         0.0600 
    149 H149       -0.0725  -20.2248  -42.8228 H         1 UNK         0.3000 
    150 H150       -2.2055  -22.8118  -44.1469 H         1 UNK         0.0600 
    151 H151       -2.6839  -20.2569  -42.5251 H         1 UNK         0.0600 
    152 H152       -3.8512  -21.0416  -43.5861 H         1 UNK         0.0600 
    153 H153       -3.2996  -21.8560  -42.1291 H         1 UNK         0.0600 
    154 H154       -1.8917  -20.0865  -44.9030 H         1 UNK         0.3000 
    155 H155        0.6749  -20.5838  -47.3469 H         1 UNK         0.0600 
    156 H156       -1.4803  -21.1055  -48.4796 H         1 UNK         0.0600 
    157 H157       -1.0489  -19.4236  -48.7149 H         1 UNK         0.0600 
    158 H158       -2.2983  -19.8550  -47.5546 H         1 UNK         0.0600 
    159 H159       -0.6195  -18.2136  -46.5346 H         1 UNK         0.3000 
    160 H160        1.4886  -17.4408  -43.7289 H         1 UNK         0.0600 
    161 H161        1.1640  -16.1495  -46.4879 H         1 UNK         0.0600 
    162 H162        2.6806  -16.6974  -45.7971 H         1 UNK         0.0600 
    163 H163        1.7958  -15.3934  -45.0278 H         1 UNK         0.0600 
    164 H164       -0.8339  -16.2445  -45.0154 H         1 UNK         0.3000 
    165 H165       -3.2341  -17.7781  -42.9295 H         1 UNK         0.0600 
    166 H166       -3.8490  -15.5384  -42.1838 H         1 UNK         0.0600 
    167 H167       -2.3511  -15.9942  -41.3854 H         1 UNK         0.0600 
    168 H168       -2.3203  -14.8716  -42.7405 H         1 UNK         0.0600 
    169 H169       -3.2302  -15.5913  -44.8528 H         1 UNK         0.3000 
    170 H170       -3.8726  -17.7051  -47.6662 H         1 UNK         0.0600 
    171 H171       -6.0833  -17.3722  -46.4634 H         1 UNK         0.0600 
    172 H172       -5.6542  -15.6934  -46.1817 H         1 UNK         0.0600 
    173 H173       -5.8846  -16.2829  -47.8258 H         1 UNK         0.0600 
    174 H174       -3.7521  -14.8894  -47.4925 H         1 UNK         0.3000 
    175 H175       -0.5518  -14.6400  -48.7878 H         1 UNK         0.0600 
    176 H176       -3.0064  -13.0314  -47.8868 H         1 UNK         0.0600 
    177 H177       -1.7578  -12.5133  -49.0104 H         1 UNK         0.0600 
    178 H178       -2.8265  -13.8323  -49.4481 H         1 UNK         0.0600 
    179 H179        0.4607  -13.5916  -47.1365 H         1 UNK         0.3000 
    180 H180       -0.3559  -11.6234  -44.7079 H         1 UNK         0.0600 
    181 H181       -0.9889  -13.0658  -42.8759 H         1 UNK         0.0600 
    182 H182        0.7211  -12.7421  -42.7088 H         1 UNK         0.0600 
    183 H183        0.1856  -14.3009  -43.3325 H         1 UNK         0.0600 
    184 H184        1.9702  -13.4084  -44.9324 H         1 UNK         0.3000 
    185 H185        3.9082  -10.9952  -46.1809 H         1 UNK         0.0600 
    186 H186        4.0667  -12.9464  -44.6239 H         1 UNK         0.0600 
    187 H187        5.1771  -13.1037  -45.9698 H         1 UNK         0.0600 
    188 H188        3.7013  -14.0521  -45.9513 H         1 UNK         0.0600 
    189 H189        4.1676  -11.4103  -48.3368 H         1 UNK         0.3000 
    190 H190        1.2948  -23.6392  -44.2223 H         1 UNK         0.3000 
    191 H191        0.1345  -25.4589  -44.6395 H         1 UNK         0.0600 
    192 H192        1.0890  -27.6995  -44.3548 H         1 UNK         0.0600 
    193 H193        1.7643  -26.6331  -43.1342 H         1 UNK         0.0600 
    194 H194        2.7260  -27.0902  -44.5400 H         1 UNK         0.0600 
    195 H195        0.9723  -23.8187  -46.7357 H         1 UNK         0.3000 
    196 H196        1.2758  -25.5422  -49.1460 H         1 UNK         0.0600 
    197 H197        1.6456  -23.3605  -50.2869 H         1 UNK         0.0600 
    198 H198        2.7542  -23.5308  -48.9345 H         1 UNK         0.0600 
    199 H199        1.3373  -22.4921  -48.7887 H         1 UNK         0.0600 
    200 H200       -1.0848  -23.9891  -47.2038 H         1 UNK         0.3000 
    201 H201       -3.0305  -23.1403  -49.0137 H         1 UNK         0.0600 
    202 H202       -4.5755  -23.5376  -46.9463 H         1 UNK         0.0600 
    203 H203       -3.2097  -22.4646  -46.7173 H         1 UNK         0.0600 
    204 H204       -3.1457  -24.1259  -46.1234 H         1 UNK         0.0600 
    205 H205       -4.8580  -23.9680  -49.8556 H         1 UNK         0.3000 
    206 H206       -5.7026  -26.7422  -49.4744 H         1 UNK         0.0600 
    207 H207       -5.1677  -25.5545  -52.2657 H         1 UNK         0.0600 
    208 H208       -4.1849  -26.7969  -51.5012 H         1 UNK         0.0600 
    209 H209       -5.8488  -27.1469  -51.9218 H         1 UNK         0.0600 
    210 H210       -7.5187  -25.9840  -51.9131 H         1 UNK         0.3000 
    211 H211       -9.7665  -25.0009  -50.5264 H         1 UNK         0.0600 
    212 H212       -9.1316  -24.9925  -53.5278 H         1 UNK         0.0600 
    213 H213      -10.7277  -24.7555  -52.8264 H         1 UNK         0.0600 
    214 H214       -9.9111  -26.2988  -52.6346 H         1 UNK         0.0600 
    215 H215      -10.3545  -23.0150  -49.9108 H         1 UNK         0.3000 
    216 H216      -10.3253  -20.8558  -49.4041 H         1 UNK         0.0600 
    217 H217      -11.2794  -20.6238  -51.6952 H         1 UNK         0.0600 
    218 H218       -9.6653  -20.4089  -52.3658 H         1 UNK         0.0600 
    219 H219      -10.3311  -19.2120  -51.2626 H         1 UNK         0.0600 
    220 H220       -7.9613  -22.2479  -48.8179 H         1 UNK         0.3000 
    221 H221       -5.8840  -22.0775  -48.1221 H         1 UNK         0.0600 
    222 H222       -4.9451  -19.9336  -47.3827 H         1 UNK         0.0600 
    223 H223       -6.1521  -19.0369  -48.2972 H         1 UNK         0.0600 
    224 H224       -6.6350  -20.0225  -46.9176 H         1 UNK         0.0600 
    225 H225       -6.3582  -22.5663  -50.7846 H         1 UNK         0.3000 
    226 H226       -5.3823  -22.9746  -52.7315 H         1 UNK         0.0600 
    227 H227       -3.2474  -23.5164  -51.5744 H         1 UNK         0.0600 
    228 H228       -2.9389  -22.7043  -53.0929 H         1 UNK         0.0600 
    229 H229       -2.7778  -21.8177  -51.5873 H         1 UNK         0.0600 
    230 H230       -7.0598  -20.9800  -52.5746 H         1 UNK         0.3000 
    231 H231       -7.8424  -19.0164  -53.2766 H         1 UNK         0.0600 
    232 H232       -7.2218  -18.2749  -55.5521 H         1 UNK         0.0600 
    233 H233       -7.3526  -20.0256  -55.5105 H         1 UNK         0.0600 
    234 H234       -5.7649  -19.2592  -55.5182 H         1 UNK         0.0600 
    235 H235       -6.3047  -18.7133  -51.1621 H         1 UNK         0.3000 
    236 H236       -5.0228  -17.4878  -49.8527 H         1 UNK         0.0600 
    237 H237       -6.7530  -15.7791  -50.3629 H         1 UNK         0.0600 
    238 H238       -5.1965  -15.0224  -50.0618 H         1 UNK         0.0600 
    239 H239       -5.7897  -15.1749  -51.7103 H         1 UNK         0.0600 
    240 H240       -3.3815  -18.9759  -51.1079 H         1 UNK         0.3000 
    241 H241       -1.2853  -19.3268  -51.6687 H         1 UNK         0.0600 
    242 H242       -3.0161  -18.9917  -53.8881 H         1 UNK         0.3800 
    243 H243       -2.0860  -18.2770  -55.1858 H         1 UNK         0.3800 
    244 H244       -0.9324  -17.3791  -49.9180 H         1 UNK         0.0800 
    245 H245       -0.4077  -16.4347  -51.2779 H         1 UNK         0.0800 
    246 H246        1.3484  -16.5032  -49.0888 H         1 UNK         0.0800 
    247 H247        1.0699  -18.0671  -48.3746 H         1 UNK         0.0800 
@<TRIPOS>BOND
     1    1    2 1    
     2    1  127 1    
     3    1  128 1    
     4    1  129 1    
     5    2    3 2    
     6    2    4 am   BACKBONE|DICT|INTERRES
     7    4    5 1    
     8    4  130 1    
     9    5    6 1    
    10    5   65 1    
    11    5  131 1    
    12    6    7 1    
    13    6  132 1    
    14    6  133 1    
    15    7    8 1    
    16    8    9 1    
    17    8  134 1    
    18    8  135 1    
    19    9   10 ar   
    20    9   14 ar   
    21   10   11 ar   
    22   10  136 1    
    23   11   12 ar   
    24   11  126 1    
    25   12   13 ar   
    26   12  137 1    
    27   13   14 ar   
    28   13   15 1    
    29   14  138 1    
    30   15   16 1    
    31   15  139 1    
    32   15  140 1    
    33   16   17 1    
    34   17   18 1    
    35   17  141 1    
    36   17  142 1    
    37   18   19 1    
    38   18   67 1    
    39   18  143 1    
    40   19   20 am   BACKBONE|DICT|INTERRES
    41   19  144 1    
    42   20   21 2    
    43   20   22 1    
    44   22   23 1    
    45   22   24 1    
    46   22  145 1    
    47   23  146 1    
    48   23  147 1    
    49   23  148 1    
    50   24   25 am   BACKBONE|DICT|INTERRES
    51   24  149 1    
    52   25   26 2    
    53   25   27 1    
    54   27   28 1    
    55   27   29 1    
    56   27  150 1    
    57   28  151 1    
    58   28  152 1    
    59   28  153 1    
    60   29   30 am   BACKBONE|DICT|INTERRES
    61   29  154 1    
    62   30   31 2    
    63   30   32 1    
    64   32   33 1    
    65   32   34 1    
    66   32  155 1    
    67   33  156 1    
    68   33  157 1    
    69   33  158 1    
    70   34   35 am   BACKBONE|DICT|INTERRES
    71   34  159 1    
    72   35   36 2    
    73   35   37 1    
    74   37   38 1    
    75   37   39 1    
    76   37  160 1    
    77   38  161 1    
    78   38  162 1    
    79   38  163 1    
    80   39   40 am   BACKBONE|DICT|INTERRES
    81   39  164 1    
    82   40   41 2    
    83   40   42 1    
    84   42   43 1    
    85   42   44 1    
    86   42  165 1    
    87   43  166 1    
    88   43  167 1    
    89   43  168 1    
    90   44   45 am   BACKBONE|DICT|INTERRES
    91   44  169 1    
    92   45   46 2    
    93   45   47 1    
    94   47   48 1    
    95   47   49 1    
    96   47  170 1    
    97   48  171 1    
    98   48  172 1    
    99   48  173 1    
   100   49   50 am   BACKBONE|DICT|INTERRES
   101   49  174 1    
   102   50   51 2    
   103   50   52 1    
   104   52   53 1    
   105   52   54 1    
   106   52  175 1    
   107   53  176 1    
   108   53  177 1    
   109   53  178 1    
   110   54   55 am   BACKBONE|DICT|INTERRES
   111   54  179 1    
   112   55   56 2    
   113   55   57 1    
   114   57   58 1    
   115   57   59 1    
   116   57  180 1    
   117   58  181 1    
   118   58  182 1    
   119   58  183 1    
   120   59   60 am   BACKBONE|DICT|INTERRES
   121   59  184 1    
   122   60   61 2    
   123   60   62 1    
   124   62   63 1    
   125   62   64 1    
   126   62  185 1    
   127   63  186 1    
   128   63  187 1    
   129   63  188 1    
   130   64   65 am   BACKBONE|DICT|INTERRES
   131   64  189 1    
   132   65   66 2    
   133   67   68 2    
   134   67   69 am   BACKBONE|DICT|INTERRES
   135   69   70 1    
   136   69  190 1    
   137   70   71 1    
   138   70   72 1    
   139   70  191 1    
   140   71  192 1    
   141   71  193 1    
   142   71  194 1    
   143   72   73 2    
   144   72   74 am   BACKBONE|DICT|INTERRES
   145   74   75 1    
   146   74  195 1    
   147   75   76 1    
   148   75   77 1    
   149   75  196 1    
   150   76  197 1    
   151   76  198 1    
   152   76  199 1    
   153   77   78 2    
   154   77   79 am   BACKBONE|DICT|INTERRES
   155   79   80 1    
   156   79  200 1    
   157   80   81 1    
   158   80   82 1    
   159   80  201 1    
   160   81  202 1    
   161   81  203 1    
   162   81  204 1    
   163   82   83 2    
   164   82   84 am   BACKBONE|DICT|INTERRES
   165   84   85 1    
   166   84  205 1    
   167   85   86 1    
   168   85   87 1    
   169   85  206 1    
   170   86  207 1    
   171   86  208 1    
   172   86  209 1    
   173   87   88 2    
   174   87   89 am   BACKBONE|DICT|INTERRES
   175   89   90 1    
   176   89  210 1    
   177   90   91 1    
   178   90   92 1    
   179   90  211 1    
   180   91  212 1    
   181   91  213 1    
   182   91  214 1    
   183   92   93 2    
   184   92   94 am   BACKBONE|DICT|INTERRES
   185   94   95 1    
   186   94  215 1    
   187   95   96 1    
   188   95   97 1    
   189   95  216 1    
   190   96  217 1    
   191   96  218 1    
   192   96  219 1    
   193   97   98 2    
   194   97   99 am   BACKBONE|DICT|INTERRES
   195   99  100 1    
   196   99  220 1    
   197  100  101 1    
   198  100  102 1    
   199  100  221 1    
   200  101  222 1    
   201  101  223 1    
   202  101  224 1    
   203  102  103 2    
   204  102  104 am   BACKBONE|DICT|INTERRES
   205  104  105 1    
   206  104  225 1    
   207  105  106 1    
   208  105  107 1    
   209  105  226 1    
   210  106  227 1    
   211  106  228 1    
   212  106  229 1    
   213  107  108 2    
   214  107  109 am   BACKBONE|DICT|INTERRES
   215  109  110 1    
   216  109  230 1    
   217  110  111 1    
   218  110  112 1    
   219  110  231 1    
   220  111  232 1    
   221  111  233 1    
   222  111  234 1    
   223  112  113 2    
   224  112  114 am   BACKBONE|DICT|INTERRES
   225  114  115 1    
   226  114  235 1    
   227  115  116 1    
   228  115  117 1    
   229  115  236 1    
   230  116  237 1    
   231  116  238 1    
   232  116  239 1    
   233  117  118 2    
   234  117  119 am   BACKBONE|DICT|INTERRES
   235  119  120 1    
   236  119  240 1    
   237  120  121 1    
   238  120  124 1    
   239  120  241 1    
   240  121  122 am   BACKBONE|DICT|INTERRES
   241  121  123 2    
   242  122  242 1    
   243  122  243 1    
   244  124  125 1    
   245  124  244 1    
   246  124  245 1    
   247  125  126 1    
   248  126  246 1    
   249  126  247 1    
@<TRIPOS>SUBSTRUCTURE
     1 UNK         1 GROUP             0       ****    0 ROOT    
