@<TRIPOS>MOLECULE
3R540
247   249    1
SMALL
USER_CHARGES


@<TRIPOS>ATOM
      1 CA          2.8517  -14.1605  -47.8944 C.3       0 UNK        -0.1800 
      2 C           1.3605  -13.9364  -47.6914 C.2       0 UNK         0.5000 
      3 O           0.8339  -12.9042  -48.1069 O.2       0 UNK        -0.5000 
      4 N           0.6819  -14.8957  -47.0457 N.am      1 UNK        -0.5000 
      5 CA         -0.7374  -14.8486  -46.6686 C.3       1 UNK         0.1400 
      6 C6         -1.7058  -14.9302  -47.8820 C.3       23 UNK        -0.0398 
      7 S7         -1.6363  -16.5750  -48.6663 S.3       23 UNK        -0.2404 
      8 C8         -0.6022  -16.2825  -50.1337 C.3       23 UNK        -0.0205 
      9 C9          0.3805  -17.4253  -50.3356 C.ar      23 UNK        -0.0193 
     10 C10         0.1405  -18.4268  -51.2812 C.ar      23 UNK        -0.1150 
     11 C11         1.0663  -19.4597  -51.4683 C.ar      23 UNK        -0.0193 
     12 C12         2.2259  -19.4983  -50.6857 C.ar      23 UNK        -0.1150 
     13 C13         2.4648  -18.5124  -49.7248 C.ar      23 UNK        -0.0193 
     14 C14         1.5449  -17.4742  -49.5674 C.ar      23 UNK        -0.1150 
     15 C15         3.7107  -18.5545  -48.8490 C.3       23 UNK        -0.0205 
     16 S16         3.7151  -19.9332  -47.6519 S.3       23 UNK        -0.2404 
     17 C17         2.0329  -19.8946  -46.9397 C.3       23 UNK        -0.0398 
     18 CA          1.2670  -21.1937  -47.2847 C.3       11 UNK         0.1400 
     19 N           1.8255  -22.3587  -46.5919 N.am      11 UNK        -0.5000 
     20 C           1.5312  -23.6354  -46.8685 C.2       10 UNK         0.5000 
     21 O           0.7658  -23.9841  -47.7653 O.2       10 UNK        -0.5000 
     22 CA          2.1711  -24.6998  -45.9590 C.3       10 UNK         0.1400 
     23 CB          3.6092  -25.0014  -46.4064 C.3       10 UNK        -0.1800 
     24 N           2.1729  -24.3033  -44.5499 N.am      10 UNK        -0.5000 
     25 C           1.0684  -24.1593  -43.8037 C.2       9 UNK         0.5000 
     26 O          -0.0693  -24.3841  -44.2150 O.2       9 UNK        -0.5000 
     27 CA          1.2662  -23.6223  -42.3733 C.3       9 UNK         0.1400 
     28 CB          1.5965  -24.7688  -41.4061 C.3       9 UNK        -0.1800 
     29 N           2.2996  -22.5856  -42.2734 N.am      9 UNK        -0.5000 
     30 C           2.2642  -21.4164  -42.9256 C.2       8 UNK         0.5000 
     31 O           1.3778  -21.1094  -43.7260 O.2       8 UNK        -0.5000 
     32 CA          3.4431  -20.4554  -42.6915 C.3       8 UNK         0.1400 
     33 CB          4.6102  -20.8105  -43.6262 C.3       8 UNK        -0.1800 
     34 N           3.0412  -19.0723  -42.9453 N.am      8 UNK        -0.5000 
     35 C           2.2606  -18.3500  -42.1317 C.2       7 UNK         0.5000 
     36 O           1.9554  -18.7122  -40.9920 O.2       7 UNK        -0.5000 
     37 CA          1.7844  -16.9878  -42.6850 C.3       7 UNK         0.1400 
     38 CB          1.2543  -17.0920  -44.1317 C.3       7 UNK        -0.1800 
     39 N           0.8048  -16.3150  -41.8243 N.am      7 UNK        -0.5000 
     40 C          -0.4266  -16.7360  -41.4911 C.2       6 UNK         0.5000 
     41 O          -0.9615  -17.7461  -41.9502 O.2       6 UNK        -0.5000 
     42 CA         -1.1983  -15.8921  -40.4569 C.3       6 UNK         0.1400 
     43 CB         -1.0839  -16.5247  -39.0609 C.3       6 UNK        -0.1800 
     44 N          -0.7212  -14.5108  -40.3861 N.am      6 UNK        -0.5000 
     45 C          -1.1287  -13.5246  -41.1941 C.2       5 UNK         0.5000 
     46 O          -2.0240  -13.6509  -42.0301 O.2       5 UNK        -0.5000 
     47 CA         -0.4227  -12.1623  -41.0448 C.3       5 UNK         0.1400 
     48 CB          0.0714  -11.8684  -39.6107 C.3       5 UNK        -0.1800 
     49 N           0.6597  -12.0068  -42.0189 N.am      5 UNK        -0.5000 
     50 C           1.7643  -12.7592  -42.1552 C.2       4 UNK         0.5000 
     51 O           2.0586  -13.6832  -41.3937 O.2       4 UNK        -0.5000 
     52 CA          2.6894  -12.4322  -43.3470 C.3       4 UNK         0.1400 
     53 CB          3.2882  -13.7001  -43.9805 C.3       4 UNK        -0.1800 
     54 N           1.9641  -11.7005  -44.3835 N.am      4 UNK        -0.5000 
     55 C           2.1948  -10.4384  -44.7667 C.2       3 UNK         0.5000 
     56 O           3.1085   -9.7446  -44.3195 O.2       3 UNK        -0.5000 
     57 CA          1.2353   -9.8360  -45.8150 C.3       3 UNK         0.1400 
     58 CB          1.9211   -9.7482  -47.1869 C.3       3 UNK        -0.1800 
     59 N          -0.0208  -10.5810  -45.9482 N.am      3 UNK        -0.5000 
     60 C          -0.9945  -10.5948  -45.0247 C.2       2 UNK         0.5000 
     61 O          -0.9474   -9.9431  -43.9809 O.2       2 UNK        -0.5000 
     62 CA         -2.1946  -11.5315  -45.2744 C.3       2 UNK         0.1400 
     63 CB         -3.3385  -10.7675  -45.9575 C.3       2 UNK        -0.1800 
     64 N          -1.8748  -12.7240  -46.0660 N.am      2 UNK        -0.5000 
     65 C          -0.9729  -13.6541  -45.7190 C.2       1 UNK         0.5000 
     66 O          -0.2864  -13.5795  -44.6997 O.2       1 UNK        -0.5000 
     67 C          -0.2396  -21.0520  -47.0041 C.2       11 UNK         0.5000 
     68 O          -1.0103  -20.8361  -47.9377 O.2       11 UNK        -0.5000 
     69 N          -0.6379  -21.2344  -45.7374 N.am      12 UNK        -0.5000 
     70 CA         -2.0329  -21.2547  -45.3015 C.3       12 UNK         0.1400 
     71 CB         -2.0925  -21.3364  -43.7691 C.3       12 UNK        -0.1800 
     72 C          -2.8367  -22.3951  -45.9534 C.2       12 UNK         0.5000 
     73 O          -3.9369  -22.1510  -46.4467 O.2       12 UNK        -0.5000 
     74 N          -2.2576  -23.6041  -45.9944 N.am      13 UNK        -0.5000 
     75 CA         -2.8327  -24.7742  -46.6608 C.3       13 UNK         0.1400 
     76 CB         -1.9930  -26.0197  -46.3405 C.3       13 UNK        -0.1800 
     77 C          -2.9731  -24.5858  -48.1823 C.2       13 UNK         0.5000 
     78 O          -4.0208  -24.9144  -48.7389 O.2       13 UNK        -0.5000 
     79 N          -1.9371  -24.0250  -48.8218 N.am      14 UNK        -0.5000 
     80 CA         -1.9220  -23.7135  -50.2515 C.3       14 UNK         0.1400 
     81 CB         -0.4983  -23.3406  -50.6878 C.3       14 UNK        -0.1800 
     82 C          -2.9146  -22.6070  -50.6499 C.2       14 UNK         0.5000 
     83 O          -3.3792  -22.6171  -51.7864 O.2       14 UNK        -0.5000 
     84 N          -3.2200  -21.6852  -49.7276 N.am      15 UNK        -0.5000 
     85 CA         -4.2210  -20.6324  -49.8990 C.3       15 UNK         0.1400 
     86 CB         -3.8764  -19.4625  -48.9715 C.3       15 UNK        -0.1800 
     87 C          -5.6550  -21.1243  -49.6365 C.2       15 UNK         0.5000 
     88 O          -6.5929  -20.6153  -50.2512 O.2       15 UNK        -0.5000 
     89 N          -5.8105  -22.0973  -48.7288 N.am      16 UNK        -0.5000 
     90 CA         -7.0909  -22.7249  -48.3969 C.3       16 UNK         0.1400 
     91 CB         -6.9493  -23.4975  -47.0769 C.3       16 UNK        -0.1800 
     92 C          -7.6139  -23.6520  -49.5103 C.2       16 UNK         0.5000 
     93 O          -8.8233  -23.8696  -49.5996 O.2       16 UNK        -0.5000 
     94 N          -6.7061  -24.1712  -50.3460 N.am      17 UNK        -0.5000 
     95 CA         -6.9602  -25.0816  -51.4636 C.3       17 UNK         0.1400 
     96 CB         -5.6381  -25.7922  -51.8068 C.3       17 UNK        -0.1800 
     97 C          -7.6081  -24.3930  -52.6895 C.2       17 UNK         0.5000 
     98 O          -7.1046  -24.5295  -53.8058 O.2       17 UNK        -0.5000 
     99 N          -8.7295  -23.6931  -52.4561 N.am      18 UNK        -0.5000 
    100 CA        -9.5328  -22.9240  -53.4144 C.3       18 UNK         0.1400 
    101 CB       -10.1881  -23.8549  -54.4568 C.3       18 UNK        -0.1800 
    102 C         -8.7238  -21.7723  -54.0459 C.2       18 UNK         0.5000 
    103 O         -8.4890  -21.7660  -55.2564 O.2       18 UNK        -0.5000 
    104 N         -8.3024  -20.8347  -53.1836 N.am      19 UNK        -0.5000 
    105 CA        -7.3337  -19.7574  -53.4267 C.3       19 UNK         0.1400 
    106 CB        -7.7403  -18.8622  -54.6184 C.3       19 UNK        -0.1800 
    107 C         -5.8962  -20.3065  -53.5398 C.2       19 UNK         0.5000 
    108 O         -5.6761  -21.4913  -53.2933 O.2       19 UNK        -0.5000 
    109 N         -4.9335  -19.4257  -53.8475 N.am      20 UNK        -0.5000 
    110 CA        -3.5004  -19.7220  -53.9209 C.3       20 UNK         0.1400 
    111 CB        -2.7272  -18.4101  -54.1367 C.3       20 UNK        -0.1800 
    112 C         -3.1584  -20.7666  -55.0008 C.2       20 UNK         0.5000 
    113 O         -2.9918  -20.4138  -56.1707 O.2       20 UNK        -0.5000 
    114 N         -3.0399  -22.0329  -54.5815 N.am      21 UNK        -0.5000 
    115 CA        -2.7342  -23.1894  -55.4285 C.3       21 UNK         0.1400 
    116 CB        -2.8811  -24.4699  -54.5933 C.3       21 UNK        -0.1800 
    117 C         -1.3442  -23.1292  -56.0915 C.2       21 UNK         0.5000 
    118 O         -1.1266  -23.7929  -57.1059 O.2       21 UNK        -0.5000 
    119 N         -0.4420  -22.3206  -55.5224 N.am      22 UNK        -0.5000 
    120 CA         0.8595  -21.9670  -56.1017 C.3       22 UNK         0.1400 
    121 C          0.7916  -20.9928  -57.3187 C.2       22 UNK         0.5000 
    122 N         -0.3479  -20.3862  -57.6356 N.am      22 UNK        -0.7600 
    123 O          1.7941  -20.7961  -58.0002 O.2       22 UNK        -0.5000 
    124 C124        1.8479  -21.4810  -55.0107 C.3       23 UNK        -0.0398 
    125 S125        1.3468  -19.9370  -54.1637 S.3       23 UNK        -0.2404 
    126 C126        0.8258  -20.5275  -52.5228 C.3       23 UNK        -0.0205 
    127 H127        3.4131  -13.3124  -47.5021 H         1 UNK         0.0600 
    128 H128        3.0747  -14.2579  -48.9568 H         1 UNK         0.0600 
    129 H129        3.2002  -15.0603  -47.3869 H         1 UNK         0.0600 
    130 H130        1.1809  -15.7049  -46.7100 H         1 UNK         0.3000 
    131 H131       -0.9188  -15.7309  -46.0529 H         1 UNK         0.0600 
    132 H132       -1.5074  -14.1478  -48.6157 H         1 UNK         0.0800 
    133 H133       -2.7391  -14.7957  -47.5583 H         1 UNK         0.0800 
    134 H134       -1.2442  -16.1649  -51.0079 H         1 UNK         0.0800 
    135 H135       -0.0476  -15.3489  -50.0315 H         1 UNK         0.0800 
    136 H136       -0.7578  -18.3959  -51.8803 H         1 UNK         0.1150 
    137 H137        2.9424  -20.2967  -50.8196 H         1 UNK         0.1150 
    138 H138        1.7272  -16.7060  -48.8329 H         1 UNK         0.1150 
    139 H139        4.5921  -18.6390  -49.4859 H         1 UNK         0.0800 
    140 H140        3.8247  -17.6190  -48.2992 H         1 UNK         0.0800 
    141 H141        1.4950  -19.0152  -47.2930 H         1 UNK         0.0800 
    142 H142        2.1156  -19.7687  -45.8604 H         1 UNK         0.0800 
    143 H143        1.3658  -21.3687  -48.3586 H         1 UNK         0.0600 
    144 H144        2.4312  -22.1634  -45.8100 H         1 UNK         0.3000 
    145 H145        1.5843  -25.6160  -46.0539 H         1 UNK         0.0600 
    146 H146        4.0448  -25.8076  -45.8159 H         1 UNK         0.0600 
    147 H147        3.6343  -25.3148  -47.4510 H         1 UNK         0.0600 
    148 H148        4.2548  -24.1274  -46.3103 H         1 UNK         0.0600 
    149 H149        3.0678  -24.0972  -44.1315 H         1 UNK         0.3000 
    150 H150        0.3209  -23.1753  -42.0591 H         1 UNK         0.0600 
    151 H151        2.5532  -25.2351  -41.6442 H         1 UNK         0.0600 
    152 H152        0.8326  -25.5466  -41.4477 H         1 UNK         0.0600 
    153 H153        1.6416  -24.4153  -40.3759 H         1 UNK         0.0600 
    154 H154        3.0668  -22.7747  -41.6445 H         1 UNK         0.3000 
    155 H155        3.7769  -20.5463  -41.6557 H         1 UNK         0.0600 
    156 H156        4.3233  -20.7444  -44.6762 H         1 UNK         0.0600 
    157 H157        4.9629  -21.8268  -43.4463 H         1 UNK         0.0600 
    158 H158        5.4576  -20.1430  -43.4690 H         1 UNK         0.0600 
    159 H159        3.2510  -18.7107  -43.8628 H         1 UNK         0.3000 
    160 H160        2.6604  -16.3390  -42.6927 H         1 UNK         0.0600 
    161 H161        0.4946  -17.8686  -44.2317 H         1 UNK         0.0600 
    162 H162        2.0546  -17.3197  -44.8358 H         1 UNK         0.0600 
    163 H163        0.8100  -16.1490  -44.4443 H         1 UNK         0.0600 
    164 H164        1.1363  -15.4498  -41.4100 H         1 UNK         0.3000 
    165 H165       -2.2519  -15.8968  -40.7444 H         1 UNK         0.0600 
    166 H166       -1.6680  -15.9697  -38.3266 H         1 UNK         0.0600 
    167 H167       -1.4575  -17.5496  -39.0655 H         1 UNK         0.0600 
    168 H168       -0.0494  -16.5549  -38.7164 H         1 UNK         0.0600 
    169 H169        0.0359  -14.3217  -39.7449 H         1 UNK         0.3000 
    170 H170       -1.1666  -11.4035  -41.2929 H         1 UNK         0.0600 
    171 H171       -0.7401  -11.9750  -38.8897 H         1 UNK         0.0600 
    172 H172        0.8789  -12.5305  -39.2982 H         1 UNK         0.0600 
    173 H173        0.4389  -10.8453  -39.5312 H         1 UNK         0.0600 
    174 H174        0.4955  -11.2977  -42.7212 H         1 UNK         0.3000 
    175 H175        3.5087  -11.8296  -42.9509 H         1 UNK         0.0600 
    176 H176        2.5093  -14.3613  -44.3602 H         1 UNK         0.0600 
    177 H177        3.9463  -13.4494  -44.8125 H         1 UNK         0.0600 
    178 H178        3.8823  -14.2608  -43.2583 H         1 UNK         0.0600 
    179 H179        1.1615  -12.1917  -44.7656 H         1 UNK         0.3000 
    180 H180        0.9949   -8.8208  -45.4924 H         1 UNK         0.0600 
    181 H181        2.2409  -10.7278  -47.5421 H         1 UNK         0.0600 
    182 H182        2.8080   -9.1153  -47.1383 H         1 UNK         0.0600 
    183 H183        1.2564   -9.3181  -47.9362 H         1 UNK         0.0600 
    184 H184       -0.1074  -11.1787  -46.7607 H         1 UNK         0.3000 
    185 H185       -2.5461  -11.8722  -44.2981 H         1 UNK         0.0600 
    186 H186       -3.6198   -9.8861  -45.3794 H         1 UNK         0.0600 
    187 H187       -3.0567  -10.4292  -46.9555 H         1 UNK         0.0600 
    188 H188       -4.2288  -11.3895  -46.0513 H         1 UNK         0.0600 
    189 H189       -2.3748  -12.8248  -46.9364 H         1 UNK         0.3000 
    190 H190        0.0678  -21.3655  -45.0160 H         1 UNK         0.3000 
    191 H191       -2.4880  -20.3106  -45.6084 H         1 UNK         0.0600 
    192 H192       -1.5731  -20.4945  -43.3098 H         1 UNK         0.0600 
    193 H193       -3.1245  -21.3146  -43.4172 H         1 UNK         0.0600 
    194 H194       -1.6366  -22.2532  -43.3956 H         1 UNK         0.0600 
    195 H195       -1.3676  -23.7411  -45.5240 H         1 UNK         0.3000 
    196 H196       -3.8339  -24.9288  -46.2535 H         1 UNK         0.0600 
    197 H197       -2.4092  -26.9061  -46.8207 H         1 UNK         0.0600 
    198 H198       -1.9685  -26.2122  -45.2678 H         1 UNK         0.0600 
    199 H199       -0.9639  -25.9115  -46.6838 H         1 UNK         0.0600 
    200 H200       -1.0843  -23.8261  -48.3059 H         1 UNK         0.3000 
    201 H201       -2.2122  -24.6181  -50.7902 H         1 UNK         0.0600 
    202 H202       -0.4571  -23.1648  -51.7631 H         1 UNK         0.0600 
    203 H203        0.2058  -24.1424  -50.4659 H         1 UNK         0.0600 
    204 H204       -0.1483  -22.4370  -50.1869 H         1 UNK         0.0600 
    205 H205       -2.7115  -21.6903  -48.8503 H         1 UNK         0.3000 
    206 H206       -4.1816  -20.2673  -50.9249 H         1 UNK         0.0600 
    207 H207       -2.8701  -19.1006  -49.1769 H         1 UNK         0.0600 
    208 H208       -4.5631  -18.6276  -49.1157 H         1 UNK         0.0600 
    209 H209       -3.9180  -19.7513  -47.9208 H         1 UNK         0.0600 
    210 H210       -5.0022  -22.4053  -48.1995 H         1 UNK         0.3000 
    211 H211       -7.8316  -21.9361  -48.2505 H         1 UNK         0.0600 
    212 H212       -6.2059  -24.2913  -47.1531 H         1 UNK         0.0600 
    213 H213       -7.8950  -23.9591  -46.7899 H         1 UNK         0.0600 
    214 H214       -6.6513  -22.8363  -46.2631 H         1 UNK         0.0600 
    215 H215       -5.7368  -23.9348  -50.1813 H         1 UNK         0.3000 
    216 H216       -7.6645  -25.8445  -51.1262 H         1 UNK         0.0600 
    217 H217       -5.7689  -26.5065  -52.6205 H         1 UNK         0.0600 
    218 H218       -5.2555  -26.3463  -50.9493 H         1 UNK         0.0600 
    219 H219       -4.8713  -25.0786  -52.1090 H         1 UNK         0.0600 
    220 H220       -9.0380  -23.6539  -51.4885 H         1 UNK         0.3000 
    221 H221      -10.3389  -22.4625  -52.8419 H         1 UNK         0.0600 
    222 H222       -9.4493  -24.3474  -55.0895 H         1 UNK         0.0600 
    223 H223      -10.7841  -24.6290  -53.9736 H         1 UNK         0.0600 
    224 H224      -10.8547  -23.2936  -55.1125 H         1 UNK         0.0600 
    225 H225       -8.5062  -20.9857  -52.2054 H         1 UNK         0.3000 
    226 H226       -7.3547  -19.1385  -52.5286 H         1 UNK         0.0600 
    227 H227       -8.7961  -18.5955  -54.5699 H         1 UNK         0.0600 
    228 H228       -7.1757  -17.9296  -54.6203 H         1 UNK         0.0600 
    229 H229       -7.5605  -19.3503  -55.5767 H         1 UNK         0.0600 
    230 H230       -5.1983  -18.4738  -54.0527 H         1 UNK         0.3000 
    231 H231       -3.1855  -20.1253  -52.9580 H         1 UNK         0.0600 
    232 H232       -3.0424  -17.9001  -55.0479 H         1 UNK         0.0600 
    233 H233       -1.6558  -18.5975  -54.2218 H         1 UNK         0.0600 
    234 H234       -2.8713  -17.7247  -53.3012 H         1 UNK         0.0600 
    235 H235       -3.2623  -22.2393  -53.6078 H         1 UNK         0.3000 
    236 H236       -3.4747  -23.2169  -56.2302 H         1 UNK         0.0600 
    237 H237       -2.2039  -24.4731  -53.7383 H         1 UNK         0.0600 
    238 H238       -3.8990  -24.5716  -54.2169 H         1 UNK         0.0600 
    239 H239       -2.6663  -25.3573  -55.1899 H         1 UNK         0.0600 
    240 H240       -0.7185  -21.8025  -54.7033 H         1 UNK         0.3000 
    241 H241        1.2815  -22.8893  -56.5058 H         1 UNK         0.0600 
    242 H242       -1.1914  -20.5211  -57.0888 H         1 UNK         0.3800 
    243 H243       -0.3690  -19.7664  -58.4296 H         1 UNK         0.3800 
    244 H244        1.9956  -22.2740  -54.2772 H         1 UNK         0.0800 
    245 H245        2.8333  -21.3150  -55.4492 H         1 UNK         0.0800 
    246 H246       -0.2314  -20.7951  -52.5503 H         1 UNK         0.0800 
    247 H247        1.3710  -21.4330  -52.2539 H         1 UNK         0.0800 
@<TRIPOS>BOND
     1    1    2 1    
     2    1  127 1    
     3    1  128 1    
     4    1  129 1    
     5    2    3 2    
     6    2    4 am   BACKBONE|DICT|INTERRES
     7    4    5 1    
     8    4  130 1    
     9    5    6 1    
    10    5   65 1    
    11    5  131 1    
    12    6    7 1    
    13    6  132 1    
    14    6  133 1    
    15    7    8 1    
    16    8    9 1    
    17    8  134 1    
    18    8  135 1    
    19    9   10 ar   
    20    9   14 ar   
    21   10   11 ar   
    22   10  136 1    
    23   11   12 ar   
    24   11  126 1    
    25   12   13 ar   
    26   12  137 1    
    27   13   14 ar   
    28   13   15 1    
    29   14  138 1    
    30   15   16 1    
    31   15  139 1    
    32   15  140 1    
    33   16   17 1    
    34   17   18 1    
    35   17  141 1    
    36   17  142 1    
    37   18   19 1    
    38   18   67 1    
    39   18  143 1    
    40   19   20 am   BACKBONE|DICT|INTERRES
    41   19  144 1    
    42   20   21 2    
    43   20   22 1    
    44   22   23 1    
    45   22   24 1    
    46   22  145 1    
    47   23  146 1    
    48   23  147 1    
    49   23  148 1    
    50   24   25 am   BACKBONE|DICT|INTERRES
    51   24  149 1    
    52   25   26 2    
    53   25   27 1    
    54   27   28 1    
    55   27   29 1    
    56   27  150 1    
    57   28  151 1    
    58   28  152 1    
    59   28  153 1    
    60   29   30 am   BACKBONE|DICT|INTERRES
    61   29  154 1    
    62   30   31 2    
    63   30   32 1    
    64   32   33 1    
    65   32   34 1    
    66   32  155 1    
    67   33  156 1    
    68   33  157 1    
    69   33  158 1    
    70   34   35 am   BACKBONE|DICT|INTERRES
    71   34  159 1    
    72   35   36 2    
    73   35   37 1    
    74   37   38 1    
    75   37   39 1    
    76   37  160 1    
    77   38  161 1    
    78   38  162 1    
    79   38  163 1    
    80   39   40 am   BACKBONE|DICT|INTERRES
    81   39  164 1    
    82   40   41 2    
    83   40   42 1    
    84   42   43 1    
    85   42   44 1    
    86   42  165 1    
    87   43  166 1    
    88   43  167 1    
    89   43  168 1    
    90   44   45 am   BACKBONE|DICT|INTERRES
    91   44  169 1    
    92   45   46 2    
    93   45   47 1    
    94   47   48 1    
    95   47   49 1    
    96   47  170 1    
    97   48  171 1    
    98   48  172 1    
    99   48  173 1    
   100   49   50 am   BACKBONE|DICT|INTERRES
   101   49  174 1    
   102   50   51 2    
   103   50   52 1    
   104   52   53 1    
   105   52   54 1    
   106   52  175 1    
   107   53  176 1    
   108   53  177 1    
   109   53  178 1    
   110   54   55 am   BACKBONE|DICT|INTERRES
   111   54  179 1    
   112   55   56 2    
   113   55   57 1    
   114   57   58 1    
   115   57   59 1    
   116   57  180 1    
   117   58  181 1    
   118   58  182 1    
   119   58  183 1    
   120   59   60 am   BACKBONE|DICT|INTERRES
   121   59  184 1    
   122   60   61 2    
   123   60   62 1    
   124   62   63 1    
   125   62   64 1    
   126   62  185 1    
   127   63  186 1    
   128   63  187 1    
   129   63  188 1    
   130   64   65 am   BACKBONE|DICT|INTERRES
   131   64  189 1    
   132   65   66 2    
   133   67   68 2    
   134   67   69 am   BACKBONE|DICT|INTERRES
   135   69   70 1    
   136   69  190 1    
   137   70   71 1    
   138   70   72 1    
   139   70  191 1    
   140   71  192 1    
   141   71  193 1    
   142   71  194 1    
   143   72   73 2    
   144   72   74 am   BACKBONE|DICT|INTERRES
   145   74   75 1    
   146   74  195 1    
   147   75   76 1    
   148   75   77 1    
   149   75  196 1    
   150   76  197 1    
   151   76  198 1    
   152   76  199 1    
   153   77   78 2    
   154   77   79 am   BACKBONE|DICT|INTERRES
   155   79   80 1    
   156   79  200 1    
   157   80   81 1    
   158   80   82 1    
   159   80  201 1    
   160   81  202 1    
   161   81  203 1    
   162   81  204 1    
   163   82   83 2    
   164   82   84 am   BACKBONE|DICT|INTERRES
   165   84   85 1    
   166   84  205 1    
   167   85   86 1    
   168   85   87 1    
   169   85  206 1    
   170   86  207 1    
   171   86  208 1    
   172   86  209 1    
   173   87   88 2    
   174   87   89 am   BACKBONE|DICT|INTERRES
   175   89   90 1    
   176   89  210 1    
   177   90   91 1    
   178   90   92 1    
   179   90  211 1    
   180   91  212 1    
   181   91  213 1    
   182   91  214 1    
   183   92   93 2    
   184   92   94 am   BACKBONE|DICT|INTERRES
   185   94   95 1    
   186   94  215 1    
   187   95   96 1    
   188   95   97 1    
   189   95  216 1    
   190   96  217 1    
   191   96  218 1    
   192   96  219 1    
   193   97   98 2    
   194   97   99 am   BACKBONE|DICT|INTERRES
   195   99  100 1    
   196   99  220 1    
   197  100  101 1    
   198  100  102 1    
   199  100  221 1    
   200  101  222 1    
   201  101  223 1    
   202  101  224 1    
   203  102  103 2    
   204  102  104 am   BACKBONE|DICT|INTERRES
   205  104  105 1    
   206  104  225 1    
   207  105  106 1    
   208  105  107 1    
   209  105  226 1    
   210  106  227 1    
   211  106  228 1    
   212  106  229 1    
   213  107  108 2    
   214  107  109 am   BACKBONE|DICT|INTERRES
   215  109  110 1    
   216  109  230 1    
   217  110  111 1    
   218  110  112 1    
   219  110  231 1    
   220  111  232 1    
   221  111  233 1    
   222  111  234 1    
   223  112  113 2    
   224  112  114 am   BACKBONE|DICT|INTERRES
   225  114  115 1    
   226  114  235 1    
   227  115  116 1    
   228  115  117 1    
   229  115  236 1    
   230  116  237 1    
   231  116  238 1    
   232  116  239 1    
   233  117  118 2    
   234  117  119 am   BACKBONE|DICT|INTERRES
   235  119  120 1    
   236  119  240 1    
   237  120  121 1    
   238  120  124 1    
   239  120  241 1    
   240  121  122 am   BACKBONE|DICT|INTERRES
   241  121  123 2    
   242  122  242 1    
   243  122  243 1    
   244  124  125 1    
   245  124  244 1    
   246  124  245 1    
   247  125  126 1    
   248  126  246 1    
   249  126  247 1    
@<TRIPOS>SUBSTRUCTURE
     1 UNK         1 GROUP             0       ****    0 ROOT    
