@<TRIPOS>MOLECULE
3R540
247   249    1
SMALL
USER_CHARGES


@<TRIPOS>ATOM
      1 CA         -1.4655  -12.2063  -52.2858 C.3       0 UNK        -0.1800 
      2 C          -0.4364  -12.4757  -51.1982 C.2       0 UNK         0.5000 
      3 O          -0.5789  -11.9821  -50.0811 O.2       0 UNK        -0.5000 
      4 N           0.5833  -13.2832  -51.5069 N.am      1 UNK        -0.5000 
      5 CA          1.6101  -13.7447  -50.5699 C.3       1 UNK         0.1400 
      6 C6          2.7893  -14.4130  -51.3171 C.3       23 UNK        -0.0398 
      7 S7          4.2527  -14.6598  -50.2529 S.3       23 UNK        -0.2404 
      8 C8          4.8484  -16.2979  -50.7876 C.3       23 UNK        -0.0205 
      9 C9          3.8385  -17.4151  -50.5547 C.ar      23 UNK        -0.0193 
     10 C10         3.3741  -18.1753  -51.6324 C.ar      23 UNK        -0.1150 
     11 C11         2.4664  -19.2188  -51.4293 C.ar      23 UNK        -0.0193 
     12 C12         2.0205  -19.4987  -50.1349 C.ar      23 UNK        -0.1150 
     13 C13         2.4872  -18.7557  -49.0471 C.ar      23 UNK        -0.0193 
     14 C14         3.3942  -17.7142  -49.2633 C.ar      23 UNK        -0.1150 
     15 C15         2.0206  -19.0793  -47.6371 C.3       23 UNK        -0.0205 
     16 S16         3.1112  -20.2938  -46.8314 S.3       23 UNK        -0.2404 
     17 C17         2.5531  -21.8387  -47.6269 C.3       23 UNK        -0.0398 
     18 CA          3.0065  -23.1176  -46.8792 C.3       11 UNK         0.1400 
     19 N           2.6666  -23.1032  -45.4510 N.am      11 UNK        -0.5000 
     20 C           3.2331  -23.8947  -44.5269 C.2       10 UNK         0.5000 
     21 O           4.1277  -24.7018  -44.7821 O.2       10 UNK        -0.5000 
     22 CA          2.7327  -23.7735  -43.0736 C.3       10 UNK         0.1400 
     23 CB          3.7004  -22.9152  -42.2444 C.3       10 UNK        -0.1800 
     24 N           1.3865  -23.2070  -42.9879 N.am      10 UNK        -0.5000 
     25 C           0.2626  -23.9027  -43.2205 C.2       9 UNK         0.5000 
     26 O           0.2527  -25.1189  -43.4109 O.2       9 UNK        -0.5000 
     27 CA         -1.0728  -23.1247  -43.2552 C.3       9 UNK         0.1400 
     28 CB         -1.8697  -23.3637  -41.9644 C.3       9 UNK        -0.1800 
     29 N          -0.9236  -21.6817  -43.4568 N.am      9 UNK        -0.5000 
     30 C          -0.3861  -21.0968  -44.5365 C.2       8 UNK         0.5000 
     31 O          -0.0102  -21.7173  -45.5303 O.2       8 UNK        -0.5000 
     32 CA         -0.1785  -19.5708  -44.4713 C.3       8 UNK         0.1400 
     33 CB         -1.3438  -18.8511  -45.1602 C.3       8 UNK        -0.1800 
     34 N          -0.0130  -19.0307  -43.1150 N.am      8 UNK        -0.5000 
     35 C           0.9275  -19.4100  -42.2364 C.2       7 UNK         0.5000 
     36 O           1.7496  -20.2957  -42.4707 O.2       7 UNK        -0.5000 
     37 CA          0.9396  -18.6819  -40.8811 C.3       7 UNK         0.1400 
     38 CB          2.2181  -18.9586  -40.0684 C.3       7 UNK        -0.1800 
     39 N           0.8101  -17.2418  -41.0899 N.am      7 UNK        -0.5000 
     40 C          -0.1653  -16.4626  -40.6068 C.2       6 UNK         0.5000 
     41 O          -1.0914  -16.8750  -39.9079 O.2       6 UNK        -0.5000 
     42 CA         -0.0976  -14.9660  -40.9706 C.3       6 UNK         0.1400 
     43 CB          0.5156  -14.1608  -39.8144 C.3       6 UNK        -0.1800 
     44 N           0.6701  -14.7037  -42.1917 N.am      6 UNK        -0.5000 
     45 C           0.2375  -14.9779  -43.4288 C.2       5 UNK         0.5000 
     46 O          -0.8617  -15.4775  -43.6728 O.2       5 UNK        -0.5000 
     47 CA          1.2107  -14.6637  -44.5805 C.3       5 UNK         0.1400 
     48 CB          1.5949  -15.9490  -45.3302 C.3       5 UNK        -0.1800 
     49 N           0.6521  -13.7015  -45.5283 N.am      5 UNK        -0.5000 
     50 C           0.3139  -12.4372  -45.2386 C.2       4 UNK         0.5000 
     51 O           0.4830  -11.9181  -44.1342 O.2       4 UNK        -0.5000 
     52 CA         -0.3097  -11.6038  -46.3731 C.3       4 UNK         0.1400 
     53 CB          0.7878  -10.9313  -47.2121 C.3       4 UNK        -0.1800 
     54 N          -1.1760  -12.3882  -47.2528 N.am      4 UNK        -0.5000 
     55 C          -2.3719  -12.8866  -46.9065 C.2       3 UNK         0.5000 
     56 O          -2.8984  -12.7030  -45.8087 O.2       3 UNK        -0.5000 
     57 CA         -3.0996  -13.7367  -47.9642 C.3       3 UNK         0.1400 
     58 CB         -3.8585  -12.8475  -48.9616 C.3       3 UNK        -0.1800 
     59 N          -2.1692  -14.6047  -48.6858 N.am      3 UNK        -0.5000 
     60 C          -1.6923  -15.7579  -48.1955 C.2       2 UNK         0.5000 
     61 O          -2.0727  -16.2523  -47.1371 O.2       2 UNK        -0.5000 
     62 CA         -0.6070  -16.4832  -49.0149 C.3       2 UNK         0.1400 
     63 CB         -1.2200  -17.6373  -49.8170 C.3       2 UNK        -0.1800 
     64 N           0.1241  -15.5904  -49.9163 N.am      2 UNK        -0.5000 
     65 C           0.9978  -14.6651  -49.4934 C.2       1 UNK         0.5000 
     66 O           1.2652  -14.4775  -48.3064 O.2       1 UNK        -0.5000 
     67 C           2.4137  -24.3677  -47.5587 C.2       11 UNK         0.5000 
     68 O           3.0955  -25.0307  -48.3412 O.2       11 UNK        -0.5000 
     69 N           1.1594  -24.6715  -47.2123 N.am      12 UNK        -0.5000 
     70 CA          0.3993  -25.8515  -47.5980 C.3       12 UNK         0.1400 
     71 CB         -0.1229  -25.7098  -49.0388 C.3       12 UNK        -0.1800 
     72 C          -0.7587  -25.9600  -46.6015 C.2       12 UNK         0.5000 
     73 O          -1.2722  -24.9240  -46.1755 O.2       12 UNK        -0.5000 
     74 N          -1.1702  -27.1875  -46.2600 N.am      13 UNK        -0.5000 
     75 CA         -2.1530  -27.4820  -45.2062 C.3       13 UNK         0.1400 
     76 CB         -2.2846  -29.0055  -45.0584 C.3       13 UNK        -0.1800 
     77 C          -3.5426  -26.8404  -45.4050 C.2       13 UNK         0.5000 
     78 O          -4.2313  -26.5665  -44.4220 O.2       13 UNK        -0.5000 
     79 N          -3.9150  -26.5899  -46.6667 N.am      14 UNK        -0.5000 
     80 CA         -5.1458  -25.9025  -47.0639 C.3       14 UNK         0.1400 
     81 CB         -5.5598  -26.4215  -48.4514 C.3       14 UNK        -0.1800 
     82 C          -5.0124  -24.3628  -47.0708 C.2       14 UNK         0.5000 
     83 O          -5.9520  -23.6859  -47.4918 O.2       14 UNK        -0.5000 
     84 N          -3.8464  -23.8330  -46.6665 N.am      15 UNK        -0.5000 
     85 CA         -3.4567  -22.4186  -46.6778 C.3       15 UNK         0.1400 
     86 CB         -4.2818  -21.6088  -45.6570 C.3       15 UNK        -0.1800 
     87 C          -3.4905  -21.8291  -48.1002 C.2       15 UNK         0.5000 
     88 O          -4.0730  -20.7671  -48.3203 O.2       15 UNK        -0.5000 
     89 N          -2.9146  -22.5831  -49.0502 N.am      16 UNK        -0.5000 
     90 CA         -2.9381  -22.3455  -50.4993 C.3       16 UNK         0.1400 
     91 CB         -2.1160  -21.0927  -50.8647 C.3       16 UNK        -0.1800 
     92 C          -4.3771  -22.3088  -51.0592 C.2       16 UNK         0.5000 
     93 O          -4.7074  -21.4383  -51.8623 O.2       16 UNK        -0.5000 
     94 N          -5.2165  -23.2417  -50.5825 N.am      17 UNK        -0.5000 
     95 CA         -6.6532  -23.3637  -50.8590 C.3       17 UNK         0.1400 
     96 CB         -6.8927  -23.8111  -52.3156 C.3       17 UNK        -0.1800 
     97 C          -7.4264  -22.0854  -50.4723 C.2       17 UNK         0.5000 
     98 O          -8.1709  -21.5370  -51.2865 O.2       17 UNK        -0.5000 
     99 N          -7.1973  -21.6317  -49.2309 N.am      18 UNK        -0.5000 
    100 CA        -7.6879  -20.3837  -48.6376 C.3       18 UNK         0.1400 
    101 CB        -9.2173  -20.4336  -48.4387 C.3       18 UNK        -0.1800 
    102 C         -7.2100  -19.1367  -49.4141 C.2       18 UNK         0.5000 
    103 O         -8.0181  -18.2827  -49.7846 O.2       18 UNK        -0.5000 
    104 N         -5.8901  -19.0694  -49.6340 N.am      19 UNK        -0.5000 
    105 CA        -5.1441  -18.0069  -50.3111 C.3       19 UNK         0.1400 
    106 CB        -5.1404  -16.7182  -49.4632 C.3       19 UNK        -0.1800 
    107 C         -5.5686  -17.7719  -51.7763 C.2       19 UNK         0.5000 
    108 O         -5.6632  -16.6244  -52.2171 O.2       19 UNK        -0.5000 
    109 N         -5.7838  -18.8642  -52.5180 N.am      20 UNK        -0.5000 
    110 CA        -5.9346  -18.8588  -53.9718 C.3       20 UNK         0.1400 
    111 CB        -6.7268  -20.1072  -54.3892 C.3       20 UNK        -0.1800 
    112 C         -4.5476  -18.8465  -54.6424 C.2       20 UNK         0.5000 
    113 O         -3.5466  -19.1325  -53.9810 O.2       20 UNK        -0.5000 
    114 N         -4.5090  -18.5219  -55.9432 N.am      21 UNK        -0.5000 
    115 CA        -3.3197  -18.4598  -56.8056 C.3       21 UNK         0.1400 
    116 CB        -2.7645  -19.8771  -57.0707 C.3       21 UNK        -0.1800 
    117 C         -2.2556  -17.4777  -56.2701 C.2       21 UNK         0.5000 
    118 O         -2.3316  -16.2850  -56.5684 O.2       21 UNK        -0.5000 
    119 N         -1.3101  -17.9888  -55.4720 N.am      22 UNK        -0.5000 
    120 CA        -0.3521  -17.2071  -54.6760 C.3       22 UNK         0.1400 
    121 C         -0.9786  -16.4393  -53.4747 C.2       22 UNK         0.5000 
    122 N         -2.2215  -16.6992  -53.0925 N.am      22 UNK        -0.7600 
    123 O         -0.3221  -15.5894  -52.8821 O.2       22 UNK        -0.5000 
    124 C124        0.8554  -18.0690  -54.2292 C.3       23 UNK        -0.0398 
    125 S125        0.3842  -19.5345  -53.2428 S.3       23 UNK        -0.2404 
    126 C126        1.9970  -20.0721  -52.5986 C.3       23 UNK        -0.0205 
    127 H127       -1.2111  -12.7136  -53.2169 H         1 UNK         0.0600 
    128 H128       -1.5295  -11.1368  -52.4854 H         1 UNK         0.0600 
    129 H129       -2.4478  -12.5555  -51.9677 H         1 UNK         0.0600 
    130 H130        0.5626  -13.7618  -52.4002 H         1 UNK         0.3000 
    131 H131        1.9959  -12.8593  -50.0595 H         1 UNK         0.0600 
    132 H132        2.4732  -15.3563  -51.7649 H         1 UNK         0.0800 
    133 H133        3.1034  -13.7805  -52.1484 H         1 UNK         0.0800 
    134 H134        5.7620  -16.5334  -50.2402 H         1 UNK         0.0800 
    135 H135        5.1301  -16.2413  -51.8402 H         1 UNK         0.0800 
    136 H136        3.7286  -17.9633  -52.6312 H         1 UNK         0.1150 
    137 H137        1.3184  -20.3045  -49.9745 H         1 UNK         0.1150 
    138 H138        3.7591  -17.1366  -48.4254 H         1 UNK         0.1150 
    139 H139        2.0152  -18.1691  -47.0385 H         1 UNK         0.0800 
    140 H140        0.9916  -19.4426  -47.6461 H         1 UNK         0.0800 
    141 H141        2.9390  -21.8502  -48.6476 H         1 UNK         0.0800 
    142 H142        1.4656  -21.8089  -47.7122 H         1 UNK         0.0800 
    143 H143        4.0937  -23.1797  -46.9641 H         1 UNK         0.0600 
    144 H144        1.9145  -22.4810  -45.1813 H         1 UNK         0.3000 
    145 H145        2.7205  -24.7762  -42.6411 H         1 UNK         0.0600 
    146 H146        4.6874  -23.3769  -42.1992 H         1 UNK         0.0600 
    147 H147        3.8264  -21.9208  -42.6738 H         1 UNK         0.0600 
    148 H148        3.3484  -22.7970  -41.2195 H         1 UNK         0.0600 
    149 H149        1.3328  -22.2063  -42.8233 H         1 UNK         0.3000 
    150 H150       -1.6601  -23.5134  -44.0874 H         1 UNK         0.0600 
    151 H151       -2.8493  -22.8876  -42.0115 H         1 UNK         0.0600 
    152 H152       -1.3458  -22.9744  -41.0905 H         1 UNK         0.0600 
    153 H153       -2.0368  -24.4292  -41.8007 H         1 UNK         0.0600 
    154 H154       -1.1962  -21.0904  -42.6861 H         1 UNK         0.3000 
    155 H155        0.7370  -19.3456  -45.0198 H         1 UNK         0.0600 
    156 H156       -1.4671  -19.1905  -46.1899 H         1 UNK         0.0600 
    157 H157       -1.1732  -17.7761  -45.1916 H         1 UNK         0.0600 
    158 H158       -2.2866  -19.0213  -44.6397 H         1 UNK         0.0600 
    159 H159       -0.6405  -18.2840  -42.8509 H         1 UNK         0.3000 
    160 H160        0.0902  -19.0682  -40.3145 H         1 UNK         0.0600 
    161 H161        2.3278  -20.0234  -39.8584 H         1 UNK         0.0600 
    162 H162        2.1934  -18.4410  -39.1094 H         1 UNK         0.0600 
    163 H163        3.1122  -18.6336  -40.6018 H         1 UNK         0.0600 
    164 H164        1.5128  -16.8130  -41.6747 H         1 UNK         0.3000 
    165 H165       -1.1211  -14.6170  -41.1237 H         1 UNK         0.0600 
    166 H166        0.5087  -13.0923  -40.0307 H         1 UNK         0.0600 
    167 H167       -0.0495  -14.3078  -38.8930 H         1 UNK         0.0600 
    168 H168        1.5465  -14.4583  -39.6180 H         1 UNK         0.0600 
    169 H169        1.5744  -14.2702  -42.0705 H         1 UNK         0.3000 
    170 H170        2.1229  -14.2298  -44.1659 H         1 UNK         0.0600 
    171 H171        2.3666  -15.7546  -46.0754 H         1 UNK         0.0600 
    172 H172        1.9845  -16.7049  -44.6470 H         1 UNK         0.0600 
    173 H173        0.7360  -16.3809  -45.8446 H         1 UNK         0.0600 
    174 H174        0.5398  -14.0239  -46.4837 H         1 UNK         0.3000 
    175 H175       -0.9145  -10.8189  -45.9143 H         1 UNK         0.0600 
    176 H176        1.4088  -11.6667  -47.7250 H         1 UNK         0.0600 
    177 H177        0.3584  -10.2723  -47.9669 H         1 UNK         0.0600 
    178 H178        1.4436  -10.3251  -46.5859 H         1 UNK         0.0600 
    179 H179       -0.8487  -12.5161  -48.2050 H         1 UNK         0.3000 
    180 H180       -3.8345  -14.3589  -47.4485 H         1 UNK         0.0600 
    181 H181       -4.3890  -13.4458  -49.7024 H         1 UNK         0.0600 
    182 H182       -3.1917  -12.1690  -49.4931 H         1 UNK         0.0600 
    183 H183       -4.6007  -12.2363  -48.4468 H         1 UNK         0.0600 
    184 H184       -1.7863  -14.2518  -49.5496 H         1 UNK         0.3000 
    185 H185        0.1086  -16.9074  -48.3084 H         1 UNK         0.0600 
    186 H186       -1.6537  -18.3824  -49.1488 H         1 UNK         0.0600 
    187 H187       -2.0125  -17.2865  -50.4747 H         1 UNK         0.0600 
    188 H188       -0.4742  -18.1414  -50.4311 H         1 UNK         0.0600 
    189 H189       -0.0631  -15.6712  -50.9118 H         1 UNK         0.3000 
    190 H190        0.6713  -24.0793  -46.5488 H         1 UNK         0.3000 
    191 H191        1.0344  -26.7354  -47.5125 H         1 UNK         0.0600 
    192 H192       -0.7311  -24.8131  -49.1596 H         1 UNK         0.0600 
    193 H193       -0.7365  -26.5667  -49.3191 H         1 UNK         0.0600 
    194 H194        0.6980  -25.6531  -49.7536 H         1 UNK         0.0600 
    195 H195       -0.7132  -27.9869  -46.6749 H         1 UNK         0.3000 
    196 H196       -1.7513  -27.0839  -44.2718 H         1 UNK         0.0600 
    197 H197       -2.9872  -29.2631  -44.2645 H         1 UNK         0.0600 
    198 H198       -1.3282  -29.4619  -44.8026 H         1 UNK         0.0600 
    199 H199       -2.6442  -29.4687  -45.9781 H         1 UNK         0.0600 
    200 H200       -3.2824  -26.8529  -47.4080 H         1 UNK         0.3000 
    201 H201       -5.9410  -26.1529  -46.3589 H         1 UNK         0.0600 
    202 H202       -5.6657  -27.5066  -48.4492 H         1 UNK         0.0600 
    203 H203       -4.8297  -26.1586  -49.2176 H         1 UNK         0.0600 
    204 H204       -6.5230  -26.0097  -48.7538 H         1 UNK         0.0600 
    205 H205       -3.1067  -24.4649  -46.3720 H         1 UNK         0.3000 
    206 H206       -2.4152  -22.3845  -46.3618 H         1 UNK         0.0600 
    207 H207       -3.9383  -20.5753  -45.6111 H         1 UNK         0.0600 
    208 H208       -5.3412  -21.5878  -45.9133 H         1 UNK         0.0600 
    209 H209       -4.1852  -22.0277  -44.6554 H         1 UNK         0.0600 
    210 H210       -2.4708  -23.4397  -48.7535 H         1 UNK         0.3000 
    211 H211       -2.4515  -23.2041  -50.9641 H         1 UNK         0.0600 
    212 H212       -2.5736  -20.1833  -50.4792 H         1 UNK         0.0600 
    213 H213       -2.0396  -20.9788  -51.9467 H         1 UNK         0.0600 
    214 H214       -1.1014  -21.1521  -50.4714 H         1 UNK         0.0600 
    215 H215       -4.8574  -23.8760  -49.8858 H         1 UNK         0.3000 
    216 H216       -7.0315  -24.1535  -50.2094 H         1 UNK         0.0600 
    217 H217       -7.9533  -23.9837  -52.5015 H         1 UNK         0.0600 
    218 H218       -6.3698  -24.7427  -52.5313 H         1 UNK         0.0600 
    219 H219       -6.5530  -23.0638  -53.0318 H         1 UNK         0.0600 
    220 H220       -6.5878  -22.1863  -48.6361 H         1 UNK         0.3000 
    221 H221       -7.2320  -20.3198  -47.6483 H         1 UNK         0.0600 
    222 H222       -9.7517  -20.4623  -49.3886 H         1 UNK         0.0600 
    223 H223       -9.5107  -21.3108  -47.8620 H         1 UNK         0.0600 
    224 H224       -9.5672  -19.5557  -47.8944 H         1 UNK         0.0600 
    225 H225       -5.3092  -19.8173  -49.2570 H         1 UNK         0.3000 
    226 H226       -4.1162  -18.3639  -50.3607 H         1 UNK         0.0600 
    227 H227       -4.7700  -16.9105  -48.4561 H         1 UNK         0.0600 
    228 H228       -4.4911  -15.9628  -49.9058 H         1 UNK         0.0600 
    229 H229       -6.1372  -16.2848  -49.3794 H         1 UNK         0.0600 
    230 H230       -5.5754  -19.7735  -52.1116 H         1 UNK         0.3000 
    231 H231       -6.4876  -17.9694  -54.2806 H         1 UNK         0.0600 
    232 H232       -6.1725  -21.0210  -54.1745 H         1 UNK         0.0600 
    233 H233       -7.6809  -20.1644  -53.8644 H         1 UNK         0.0600 
    234 H234       -6.9421  -20.0983  -55.4580 H         1 UNK         0.0600 
    235 H235       -5.3770  -18.2715  -56.3959 H         1 UNK         0.3000 
    236 H236       -3.6528  -18.0585  -57.7639 H         1 UNK         0.0600 
    237 H237       -2.4883  -20.3973  -56.1531 H         1 UNK         0.0600 
    238 H238       -3.5030  -20.4921  -57.5850 H         1 UNK         0.0600 
    239 H239       -1.8793  -19.8373  -57.7067 H         1 UNK         0.0600 
    240 H240       -1.3808  -18.9650  -55.2202 H         1 UNK         0.3000 
    241 H241        0.0430  -16.4307  -55.3334 H         1 UNK         0.0600 
    242 H242       -2.7159  -17.4857  -53.5028 H         1 UNK         0.3800 
    243 H243       -2.6429  -16.1661  -52.3528 H         1 UNK         0.3800 
    244 H244        1.4005  -18.4151  -55.1081 H         1 UNK         0.0800 
    245 H245        1.5610  -17.4601  -53.6633 H         1 UNK         0.0800 
    246 H246        1.9129  -21.1107  -52.2756 H         1 UNK         0.0800 
    247 H247        2.7347  -20.0654  -53.4025 H         1 UNK         0.0800 
@<TRIPOS>BOND
     1    1    2 1    
     2    1  127 1    
     3    1  128 1    
     4    1  129 1    
     5    2    3 2    
     6    2    4 am   BACKBONE|DICT|INTERRES
     7    4    5 1    
     8    4  130 1    
     9    5    6 1    
    10    5   65 1    
    11    5  131 1    
    12    6    7 1    
    13    6  132 1    
    14    6  133 1    
    15    7    8 1    
    16    8    9 1    
    17    8  134 1    
    18    8  135 1    
    19    9   10 ar   
    20    9   14 ar   
    21   10   11 ar   
    22   10  136 1    
    23   11   12 ar   
    24   11  126 1    
    25   12   13 ar   
    26   12  137 1    
    27   13   14 ar   
    28   13   15 1    
    29   14  138 1    
    30   15   16 1    
    31   15  139 1    
    32   15  140 1    
    33   16   17 1    
    34   17   18 1    
    35   17  141 1    
    36   17  142 1    
    37   18   19 1    
    38   18   67 1    
    39   18  143 1    
    40   19   20 am   BACKBONE|DICT|INTERRES
    41   19  144 1    
    42   20   21 2    
    43   20   22 1    
    44   22   23 1    
    45   22   24 1    
    46   22  145 1    
    47   23  146 1    
    48   23  147 1    
    49   23  148 1    
    50   24   25 am   BACKBONE|DICT|INTERRES
    51   24  149 1    
    52   25   26 2    
    53   25   27 1    
    54   27   28 1    
    55   27   29 1    
    56   27  150 1    
    57   28  151 1    
    58   28  152 1    
    59   28  153 1    
    60   29   30 am   BACKBONE|DICT|INTERRES
    61   29  154 1    
    62   30   31 2    
    63   30   32 1    
    64   32   33 1    
    65   32   34 1    
    66   32  155 1    
    67   33  156 1    
    68   33  157 1    
    69   33  158 1    
    70   34   35 am   BACKBONE|DICT|INTERRES
    71   34  159 1    
    72   35   36 2    
    73   35   37 1    
    74   37   38 1    
    75   37   39 1    
    76   37  160 1    
    77   38  161 1    
    78   38  162 1    
    79   38  163 1    
    80   39   40 am   BACKBONE|DICT|INTERRES
    81   39  164 1    
    82   40   41 2    
    83   40   42 1    
    84   42   43 1    
    85   42   44 1    
    86   42  165 1    
    87   43  166 1    
    88   43  167 1    
    89   43  168 1    
    90   44   45 am   BACKBONE|DICT|INTERRES
    91   44  169 1    
    92   45   46 2    
    93   45   47 1    
    94   47   48 1    
    95   47   49 1    
    96   47  170 1    
    97   48  171 1    
    98   48  172 1    
    99   48  173 1    
   100   49   50 am   BACKBONE|DICT|INTERRES
   101   49  174 1    
   102   50   51 2    
   103   50   52 1    
   104   52   53 1    
   105   52   54 1    
   106   52  175 1    
   107   53  176 1    
   108   53  177 1    
   109   53  178 1    
   110   54   55 am   BACKBONE|DICT|INTERRES
   111   54  179 1    
   112   55   56 2    
   113   55   57 1    
   114   57   58 1    
   115   57   59 1    
   116   57  180 1    
   117   58  181 1    
   118   58  182 1    
   119   58  183 1    
   120   59   60 am   BACKBONE|DICT|INTERRES
   121   59  184 1    
   122   60   61 2    
   123   60   62 1    
   124   62   63 1    
   125   62   64 1    
   126   62  185 1    
   127   63  186 1    
   128   63  187 1    
   129   63  188 1    
   130   64   65 am   BACKBONE|DICT|INTERRES
   131   64  189 1    
   132   65   66 2    
   133   67   68 2    
   134   67   69 am   BACKBONE|DICT|INTERRES
   135   69   70 1    
   136   69  190 1    
   137   70   71 1    
   138   70   72 1    
   139   70  191 1    
   140   71  192 1    
   141   71  193 1    
   142   71  194 1    
   143   72   73 2    
   144   72   74 am   BACKBONE|DICT|INTERRES
   145   74   75 1    
   146   74  195 1    
   147   75   76 1    
   148   75   77 1    
   149   75  196 1    
   150   76  197 1    
   151   76  198 1    
   152   76  199 1    
   153   77   78 2    
   154   77   79 am   BACKBONE|DICT|INTERRES
   155   79   80 1    
   156   79  200 1    
   157   80   81 1    
   158   80   82 1    
   159   80  201 1    
   160   81  202 1    
   161   81  203 1    
   162   81  204 1    
   163   82   83 2    
   164   82   84 am   BACKBONE|DICT|INTERRES
   165   84   85 1    
   166   84  205 1    
   167   85   86 1    
   168   85   87 1    
   169   85  206 1    
   170   86  207 1    
   171   86  208 1    
   172   86  209 1    
   173   87   88 2    
   174   87   89 am   BACKBONE|DICT|INTERRES
   175   89   90 1    
   176   89  210 1    
   177   90   91 1    
   178   90   92 1    
   179   90  211 1    
   180   91  212 1    
   181   91  213 1    
   182   91  214 1    
   183   92   93 2    
   184   92   94 am   BACKBONE|DICT|INTERRES
   185   94   95 1    
   186   94  215 1    
   187   95   96 1    
   188   95   97 1    
   189   95  216 1    
   190   96  217 1    
   191   96  218 1    
   192   96  219 1    
   193   97   98 2    
   194   97   99 am   BACKBONE|DICT|INTERRES
   195   99  100 1    
   196   99  220 1    
   197  100  101 1    
   198  100  102 1    
   199  100  221 1    
   200  101  222 1    
   201  101  223 1    
   202  101  224 1    
   203  102  103 2    
   204  102  104 am   BACKBONE|DICT|INTERRES
   205  104  105 1    
   206  104  225 1    
   207  105  106 1    
   208  105  107 1    
   209  105  226 1    
   210  106  227 1    
   211  106  228 1    
   212  106  229 1    
   213  107  108 2    
   214  107  109 am   BACKBONE|DICT|INTERRES
   215  109  110 1    
   216  109  230 1    
   217  110  111 1    
   218  110  112 1    
   219  110  231 1    
   220  111  232 1    
   221  111  233 1    
   222  111  234 1    
   223  112  113 2    
   224  112  114 am   BACKBONE|DICT|INTERRES
   225  114  115 1    
   226  114  235 1    
   227  115  116 1    
   228  115  117 1    
   229  115  236 1    
   230  116  237 1    
   231  116  238 1    
   232  116  239 1    
   233  117  118 2    
   234  117  119 am   BACKBONE|DICT|INTERRES
   235  119  120 1    
   236  119  240 1    
   237  120  121 1    
   238  120  124 1    
   239  120  241 1    
   240  121  122 am   BACKBONE|DICT|INTERRES
   241  121  123 2    
   242  122  242 1    
   243  122  243 1    
   244  124  125 1    
   245  124  244 1    
   246  124  245 1    
   247  125  126 1    
   248  126  246 1    
   249  126  247 1    
@<TRIPOS>SUBSTRUCTURE
     1 UNK         1 GROUP             0       ****    0 ROOT    
