@<TRIPOS>MOLECULE
3R540
247   249    1
SMALL
USER_CHARGES


@<TRIPOS>ATOM
      1 CA         -2.0137  -12.1232  -49.1646 C.3       0 UNK        -0.1800 
      2 C          -1.9267  -13.0330  -47.9489 C.2       0 UNK         0.5000 
      3 O          -1.6074  -12.5664  -46.8566 O.2       0 UNK        -0.5000 
      4 N          -2.2311  -14.3248  -48.1257 N.am      1 UNK        -0.5000 
      5 CA         -2.1498  -15.3934  -47.1161 C.3       1 UNK         0.1400 
      6 C6         -2.4576  -16.7728  -47.7399 C.3       23 UNK        -0.0398 
      7 S7         -1.2507  -17.2326  -49.0264 S.3       23 UNK        -0.2404 
      8 C8         -1.1704  -19.0247  -48.7576 C.3       23 UNK        -0.0205 
      9 C9         -0.0205  -19.6553  -49.5205 C.ar      23 UNK        -0.0193 
     10 C10        -0.2469  -20.2906  -50.7439 C.ar      23 UNK        -0.1150 
     11 C11         0.8082  -20.8994  -51.4292 C.ar      23 UNK        -0.0193 
     12 C12         2.0967  -20.8592  -50.8872 C.ar      23 UNK        -0.1150 
     13 C13         2.3316  -20.2360  -49.6576 C.ar      23 UNK        -0.0193 
     14 C14         1.2685  -19.6309  -48.9829 C.ar      23 UNK        -0.1150 
     15 C15         3.7278  -20.2134  -49.0480 C.3       23 UNK        -0.0205 
     16 S16         4.4131  -21.8773  -48.7474 S.3       23 UNK        -0.2404 
     17 C17         3.0321  -22.7523  -47.9345 C.3       23 UNK        -0.0398 
     18 CA          3.5336  -23.7447  -46.8560 C.3       11 UNK         0.1400 
     19 N           3.9211  -23.0502  -45.6228 N.am      11 UNK        -0.5000 
     20 C           4.7317  -23.5572  -44.6852 C.2       10 UNK         0.5000 
     21 O           5.2916  -24.6498  -44.7827 O.2       10 UNK        -0.5000 
     22 CA          4.9218  -22.7182  -43.4076 C.3       10 UNK         0.1400 
     23 CB          5.9647  -21.6128  -43.6317 C.3       10 UNK        -0.1800 
     24 N           3.6725  -22.1298  -42.9161 N.am      10 UNK        -0.5000 
     25 C           2.6296  -22.8354  -42.4530 C.2       9 UNK         0.5000 
     26 O           2.6131  -24.0641  -42.3825 O.2       9 UNK        -0.5000 
     27 CA          1.3798  -22.0450  -42.0241 C.3       9 UNK         0.1400 
     28 CB          1.5536  -21.4777  -40.6074 C.3       9 UNK        -0.1800 
     29 N           1.0437  -20.9635  -42.9489 N.am      9 UNK        -0.5000 
     30 C           0.6650  -21.1390  -44.2223 C.2       8 UNK         0.5000 
     31 O           0.5176  -22.2411  -44.7478 O.2       8 UNK        -0.5000 
     32 CA          0.4801  -19.8713  -45.0740 C.3       8 UNK         0.1400 
     33 CB         -0.8711  -19.2011  -44.7868 C.3       8 UNK        -0.1800 
     34 N           1.5617  -18.9056  -44.8838 N.am      8 UNK        -0.5000 
     35 C           2.8553  -19.1592  -45.1302 C.2       7 UNK         0.5000 
     36 O           3.2713  -20.2226  -45.5884 O.2       7 UNK        -0.5000 
     37 CA          3.8550  -18.0594  -44.7433 C.3       7 UNK         0.1400 
     38 CB          3.9131  -16.9678  -45.8224 C.3       7 UNK        -0.1800 
     39 N           3.5217  -17.4692  -43.4464 N.am      7 UNK        -0.5000 
     40 C           3.6433  -18.1138  -42.2762 C.2       6 UNK         0.5000 
     41 O           4.0962  -19.2531  -42.1678 O.2       6 UNK        -0.5000 
     42 CA          3.1305  -17.3800  -41.0235 C.3       6 UNK         0.1400 
     43 CB          4.1877  -16.3979  -40.4976 C.3       6 UNK        -0.1800 
     44 N           1.8783  -16.6631  -41.2677 N.am      6 UNK        -0.5000 
     45 C           0.7094  -17.2551  -41.5524 C.2       5 UNK         0.5000 
     46 O           0.5552  -18.4746  -41.5874 O.2       5 UNK        -0.5000 
     47 CA         -0.4740  -16.3330  -41.8986 C.3       5 UNK         0.1400 
     48 CB         -1.2817  -15.9881  -40.6394 C.3       5 UNK        -0.1800 
     49 N          -0.0690  -15.0945  -42.5636 N.am      5 UNK        -0.5000 
     50 C           0.5296  -15.0173  -43.7583 C.2       4 UNK         0.5000 
     51 O           0.8521  -16.0069  -44.4198 O.2       4 UNK        -0.5000 
     52 CA          0.8135  -13.5943  -44.2819 C.3       4 UNK         0.1400 
     53 CB          1.4683  -13.5927  -45.6747 C.3       4 UNK        -0.1800 
     54 N          -0.4020  -12.7808  -44.3302 N.am      4 UNK        -0.5000 
     55 C          -0.9814  -12.1639  -43.2911 C.2       3 UNK         0.5000 
     56 O          -0.5464  -12.2185  -42.1400 O.2       3 UNK        -0.5000 
     57 CA         -2.2824  -11.3989  -43.5804 C.3       3 UNK         0.1400 
     58 CB         -1.9904  -10.0810  -44.3154 C.3       3 UNK        -0.1800 
     59 N          -3.1818  -12.2184  -44.3900 N.am      3 UNK        -0.5000 
     60 C          -4.1818  -12.9667  -43.9032 C.2       2 UNK         0.5000 
     61 O          -4.5196  -12.9726  -42.7190 O.2       2 UNK        -0.5000 
     62 CA         -4.9269  -13.8755  -44.9037 C.3       2 UNK         0.1400 
     63 CB         -6.1564  -13.1566  -45.4792 C.3       2 UNK        -0.1800 
     64 N          -4.0774  -14.3229  -46.0082 N.am      2 UNK        -0.5000 
     65 C          -3.0425  -15.1650  -45.8763 C.2       1 UNK         0.5000 
     66 O          -2.7684  -15.7414  -44.8244 O.2       1 UNK        -0.5000 
     67 C           2.4853  -24.8549  -46.6142 C.2       11 UNK         0.5000 
     68 O           2.2991  -25.6936  -47.4969 O.2       11 UNK        -0.5000 
     69 N           1.8119  -24.8341  -45.4529 N.am      12 UNK        -0.5000 
     70 CA          0.6582  -25.6609  -45.0756 C.3       12 UNK         0.1400 
     71 CB          1.0599  -27.1425  -44.9242 C.3       12 UNK        -0.1800 
     72 C          -0.5371  -25.4397  -46.0289 C.2       12 UNK         0.5000 
     73 O          -1.1925  -26.3927  -46.4554 O.2       12 UNK        -0.5000 
     74 N          -0.7618  -24.1672  -46.3714 N.am      13 UNK        -0.5000 
     75 CA         -1.7803  -23.6994  -47.3018 C.3       13 UNK         0.1400 
     76 CB         -1.3571  -22.3129  -47.8046 C.3       13 UNK        -0.1800 
     77 C          -3.1712  -23.6307  -46.6490 C.2       13 UNK         0.5000 
     78 O          -3.2839  -23.5343  -45.4240 O.2       13 UNK        -0.5000 
     79 N          -4.2002  -23.6437  -47.4994 N.am      14 UNK        -0.5000 
     80 CA         -5.6079  -23.4939  -47.1349 C.3       14 UNK         0.1400 
     81 CB         -6.3516  -24.7929  -47.4835 C.3       14 UNK        -0.1800 
     82 C          -6.2599  -22.2948  -47.8475 C.2       14 UNK         0.5000 
     83 O          -7.2394  -21.7552  -47.3305 O.2       14 UNK        -0.5000 
     84 N          -5.7310  -21.8975  -49.0141 N.am      15 UNK        -0.5000 
     85 CA         -6.2168  -20.7638  -49.7984 C.3       15 UNK         0.1400 
     86 CB         -5.6429  -20.8572  -51.2220 C.3       15 UNK        -0.1800 
     87 C          -5.8222  -19.4208  -49.1618 C.2       15 UNK         0.5000 
     88 O          -4.7143  -19.2886  -48.6387 O.2       15 UNK        -0.5000 
     89 N          -6.6984  -18.4187  -49.2940 N.am      16 UNK        -0.5000 
     90 CA         -6.4542  -17.0274  -48.9026 C.3       16 UNK         0.1400 
     91 CB         -7.7856  -16.3942  -48.4596 C.3       16 UNK        -0.1800 
     92 C          -5.7737  -16.2473  -50.0501 C.2       16 UNK         0.5000 
     93 O          -6.2133  -15.1504  -50.3981 O.2       16 UNK        -0.5000 
     94 N          -4.7295  -16.8542  -50.6349 N.am      17 UNK        -0.5000 
     95 CA         -4.0471  -16.4630  -51.8722 C.3       17 UNK         0.1400 
     96 CB         -3.2918  -15.1267  -51.6939 C.3       17 UNK        -0.1800 
     97 C          -5.0058  -16.4917  -53.0852 C.2       17 UNK         0.5000 
     98 O          -5.9298  -17.3095  -53.1041 O.2       17 UNK        -0.5000 
     99 N          -4.7547  -15.6293  -54.0815 N.am      18 UNK        -0.5000 
    100 CA        -5.4901  -15.4163  -55.3382 C.3       18 UNK         0.1400 
    101 CB        -6.9424  -14.9749  -55.0726 C.3       18 UNK        -0.1800 
    102 C         -5.4375  -16.5966  -56.3302 C.2       18 UNK         0.5000 
    103 O         -5.1540  -16.3827  -57.5099 O.2       18 UNK        -0.5000 
    104 N         -5.7018  -17.8129  -55.8441 N.am      19 UNK        -0.5000 
    105 CA        -5.5906  -19.0672  -56.5829 C.3       19 UNK         0.1400 
    106 CB        -6.3075  -20.1691  -55.7868 C.3       19 UNK        -0.1800 
    107 C         -4.1201  -19.4520  -56.8294 C.2       19 UNK         0.5000 
    108 O         -3.2474  -19.1092  -56.0270 O.2       19 UNK        -0.5000 
    109 N         -3.8785  -20.1831  -57.9254 N.am      20 UNK        -0.5000 
    110 CA        -2.5645  -20.7315  -58.2722 C.3       20 UNK         0.1400 
    111 CB        -2.5607  -21.1418  -59.7530 C.3       20 UNK        -0.1800 
    112 C         -2.1720  -21.9230  -57.3773 C.2       20 UNK         0.5000 
    113 O         -0.9905  -22.0947  -57.0746 O.2       20 UNK        -0.5000 
    114 N         -3.1715  -22.7131  -56.9644 N.am      21 UNK        -0.5000 
    115 CA        -3.0326  -23.7852  -55.9832 C.3       21 UNK         0.1400 
    116 CB        -4.1575  -24.8089  -56.2007 C.3       21 UNK        -0.1800 
    117 C         -3.0976  -23.2080  -54.5598 C.2       21 UNK         0.5000 
    118 O         -3.8475  -22.2596  -54.3183 O.2       21 UNK        -0.5000 
    119 N         -2.3338  -23.8057  -53.6401 N.am      22 UNK        -0.5000 
    120 CA        -2.2485  -23.3764  -52.2334 C.3       22 UNK         0.1400 
    121 C         -3.4424  -23.8350  -51.3456 C.2       22 UNK         0.5000 
    122 N         -4.3491  -24.6781  -51.8221 N.am      22 UNK        -0.7600 
    123 O         -3.5566  -23.4087  -50.2007 O.2       22 UNK        -0.5000 
    124 C124       -0.8942  -23.7602  -51.5774 C.3       23 UNK        -0.0398 
    125 S125        0.5844  -23.4120  -52.5980 S.3       23 UNK        -0.2404 
    126 C126        0.5600  -21.5969  -52.7572 C.3       23 UNK        -0.0205 
    127 H127       -2.3309  -12.6638  -50.0562 H         1 UNK         0.0600 
    128 H128       -1.0405  -11.6758  -49.3656 H         1 UNK         0.0600 
    129 H129       -2.7276  -11.3206  -48.9808 H         1 UNK         0.0600 
    130 H130       -2.4737  -14.6402  -49.0531 H         1 UNK         0.3000 
    131 H131       -1.1218  -15.4122  -46.7489 H         1 UNK         0.0600 
    132 H132       -2.4698  -17.5465  -46.9712 H         1 UNK         0.0800 
    133 H133       -3.4517  -16.7806  -48.1812 H         1 UNK         0.0800 
    134 H134       -2.1176  -19.4756  -49.0550 H         1 UNK         0.0800 
    135 H135       -1.0505  -19.2316  -47.6954 H         1 UNK         0.0800 
    136 H136       -1.2452  -20.3149  -51.1570 H         1 UNK         0.1150 
    137 H137        2.9147  -21.3311  -51.4133 H         1 UNK         0.1150 
    138 H138        1.4422  -19.1397  -48.0361 H         1 UNK         0.1150 
    139 H139        4.3974  -19.6741  -49.7189 H         1 UNK         0.0800 
    140 H140        3.7309  -19.6598  -48.1094 H         1 UNK         0.0800 
    141 H141        2.3331  -22.0378  -47.4963 H         1 UNK         0.0800 
    142 H142        2.4828  -23.2636  -48.7280 H         1 UNK         0.0800 
    143 H143        4.4163  -24.2540  -47.2493 H         1 UNK         0.0600 
    144 H144        3.5562  -22.1084  -45.4990 H         1 UNK         0.3000 
    145 H145        5.3013  -23.3842  -42.6299 H         1 UNK         0.0600 
    146 H146        6.1666  -21.0684  -42.7092 H         1 UNK         0.0600 
    147 H147        5.6350  -20.8926  -44.3804 H         1 UNK         0.0600 
    148 H148        6.9110  -22.0326  -43.9749 H         1 UNK         0.0600 
    149 H149        3.6241  -21.1165  -42.9019 H         1 UNK         0.3000 
    150 H150        0.5381  -22.7407  -42.0085 H         1 UNK         0.0600 
    151 H151        1.7940  -22.2685  -39.8956 H         1 UNK         0.0600 
    152 H152        0.6388  -20.9961  -40.2617 H         1 UNK         0.0600 
    153 H153        2.3556  -20.7403  -40.5639 H         1 UNK         0.0600 
    154 H154        1.0834  -20.0191  -42.5751 H         1 UNK         0.3000 
    155 H155        0.4986  -20.1753  -46.1211 H         1 UNK         0.0600 
    156 H156       -1.6970  -19.8404  -45.1009 H         1 UNK         0.0600 
    157 H157       -0.9643  -18.2542  -45.3178 H         1 UNK         0.0600 
    158 H158       -1.0044  -18.9972  -43.7250 H         1 UNK         0.0600 
    159 H159        1.3045  -17.9860  -44.5397 H         1 UNK         0.3000 
    160 H160        4.8452  -18.5135  -44.6680 H         1 UNK         0.0600 
    161 H161        2.9395  -16.5067  -45.9881 H         1 UNK         0.0600 
    162 H162        4.2403  -17.3844  -46.7758 H         1 UNK         0.0600 
    163 H163        4.6174  -16.1809  -45.5526 H         1 UNK         0.0600 
    164 H164        3.0828  -16.5605  -43.4601 H         1 UNK         0.3000 
    165 H165        2.9467  -18.1297  -40.2510 H         1 UNK         0.0600 
    166 H166        3.8637  -15.9312  -39.5672 H         1 UNK         0.0600 
    167 H167        5.1281  -16.9111  -40.2921 H         1 UNK         0.0600 
    168 H168        4.3967  -15.6047  -41.2166 H         1 UNK         0.0600 
    169 H169        1.9151  -15.6546  -41.2546 H         1 UNK         0.3000 
    170 H170       -1.1275  -16.8752  -42.5846 H         1 UNK         0.0600 
    171 H171       -0.6901  -15.4126  -39.9264 H         1 UNK         0.0600 
    172 H172       -2.1682  -15.4045  -40.8891 H         1 UNK         0.0600 
    173 H173       -1.6205  -16.8928  -40.1328 H         1 UNK         0.0600 
    174 H174       -0.3044  -14.2230  -42.1007 H         1 UNK         0.3000 
    175 H175        1.5171  -13.1306  -43.5875 H         1 UNK         0.0600 
    176 H176        0.8373  -14.0761  -46.4205 H         1 UNK         0.0600 
    177 H177        1.6665  -12.5763  -46.0153 H         1 UNK         0.0600 
    178 H178        2.4228  -14.1193  -45.6586 H         1 UNK         0.0600 
    179 H179       -0.8377  -12.6950  -45.2465 H         1 UNK         0.3000 
    180 H180       -2.7504  -11.1531  -42.6248 H         1 UNK         0.0600 
    181 H181       -2.9064   -9.5139  -44.4812 H         1 UNK         0.0600 
    182 H182       -1.5227  -10.2500  -45.2861 H         1 UNK         0.0600 
    183 H183       -1.3184   -9.4502  -43.7321 H         1 UNK         0.0600 
    184 H184       -2.9340  -12.3131  -45.3686 H         1 UNK         0.3000 
    185 H185       -5.2702  -14.7572  -44.3583 H         1 UNK         0.0600 
    186 H186       -5.8746  -12.2732  -46.0535 H         1 UNK         0.0600 
    187 H187       -6.7285  -13.8150  -46.1331 H         1 UNK         0.0600 
    188 H188       -6.8258  -12.8303  -44.6821 H         1 UNK         0.0600 
    189 H189       -4.2312  -13.8887  -46.9063 H         1 UNK         0.3000 
    190 H190        2.0279  -24.0857  -44.8077 H         1 UNK         0.3000 
    191 H191        0.3373  -25.3045  -44.0956 H         1 UNK         0.0600 
    192 H192        0.2348  -27.7292  -44.5189 H         1 UNK         0.0600 
    193 H193        1.9026  -27.2527  -44.2415 H         1 UNK         0.0600 
    194 H194        1.3396  -27.5896  -45.8783 H         1 UNK         0.0600 
    195 H195       -0.2283  -23.4469  -45.8889 H         1 UNK         0.3000 
    196 H196       -1.8211  -24.3851  -48.1511 H         1 UNK         0.0600 
    197 H197       -2.0516  -21.9360  -48.5554 H         1 UNK         0.0600 
    198 H198       -0.3676  -22.3424  -48.2613 H         1 UNK         0.0600 
    199 H199       -1.3305  -21.5884  -46.9912 H         1 UNK         0.0600 
    200 H200       -3.9938  -23.6860  -48.4960 H         1 UNK         0.3000 
    201 H201       -5.7081  -23.3192  -46.0617 H         1 UNK         0.0600 
    202 H202       -5.9382  -25.6406  -46.9368 H         1 UNK         0.0600 
    203 H203       -6.2888  -25.0183  -48.5488 H         1 UNK         0.0600 
    204 H204       -7.4083  -24.7217  -47.2228 H         1 UNK         0.0600 
    205 H205       -4.9130  -22.3724  -49.3807 H         1 UNK         0.3000 
    206 H206       -7.3055  -20.8241  -49.8586 H         1 UNK         0.0600 
    207 H207       -5.9321  -21.7902  -51.7061 H         1 UNK         0.0600 
    208 H208       -6.0073  -20.0412  -51.8480 H         1 UNK         0.0600 
    209 H209       -4.5532  -20.8061  -51.2215 H         1 UNK         0.0600 
    210 H210       -7.5656  -18.5924  -49.7819 H         1 UNK         0.3000 
    211 H211       -5.7822  -17.0017  -48.0431 H         1 UNK         0.0600 
    212 H212       -8.5078  -16.3612  -49.2763 H         1 UNK         0.0600 
    213 H213       -7.6363  -15.3720  -48.1095 H         1 UNK         0.0600 
    214 H214       -8.2333  -16.9537  -47.6381 H         1 UNK         0.0600 
    215 H215       -4.4663  -17.7588  -50.2660 H         1 UNK         0.3000 
    216 H216       -3.3027  -17.2380  -52.0604 H         1 UNK         0.0600 
    217 H217       -2.6433  -14.9180  -52.5451 H         1 UNK         0.0600 
    218 H218       -2.6481  -15.1607  -50.8172 H         1 UNK         0.0600 
    219 H219       -3.9720  -14.2822  -51.5785 H         1 UNK         0.0600 
    220 H220       -3.9489  -15.0305  -53.9683 H         1 UNK         0.3000 
    221 H221       -4.9869  -14.5812  -55.8283 H         1 UNK         0.0600 
    222 H222       -7.5281  -15.7594  -54.5928 H         1 UNK         0.0600 
    223 H223       -6.9750  -14.0937  -54.4318 H         1 UNK         0.0600 
    224 H224       -7.4466  -14.7182  -56.0050 H         1 UNK         0.0600 
    225 H225       -5.8850  -17.8803  -54.8460 H         1 UNK         0.3000 
    226 H226       -6.0909  -18.9467  -57.5461 H         1 UNK         0.0600 
    227 H227       -7.3610  -19.9295  -55.6415 H         1 UNK         0.0600 
    228 H228       -6.2600  -21.1267  -56.3067 H         1 UNK         0.0600 
    229 H229       -5.8574  -20.3090  -54.8027 H         1 UNK         0.0600 
    230 H230       -4.6426  -20.4131  -58.5445 H         1 UNK         0.3000 
    231 H231       -1.8140  -19.9499  -58.1349 H         1 UNK         0.0600 
    232 H232       -1.5862  -21.5350  -60.0457 H         1 UNK         0.0600 
    233 H233       -2.7733  -20.2897  -60.3989 H         1 UNK         0.0600 
    234 H234       -3.3019  -21.9146  -59.9604 H         1 UNK         0.0600 
    235 H235       -4.1142  -22.4620  -57.2200 H         1 UNK         0.3000 
    236 H236       -2.0725  -24.2861  -56.1264 H         1 UNK         0.0600 
    237 H237       -5.1426  -24.3632  -56.0559 H         1 UNK         0.0600 
    238 H238       -4.1224  -25.2248  -57.2079 H         1 UNK         0.0600 
    239 H239       -4.0680  -25.6423  -55.5029 H         1 UNK         0.0600 
    240 H240       -1.7440  -24.5812  -53.9049 H         1 UNK         0.3000 
    241 H241       -2.3025  -22.2868  -52.2254 H         1 UNK         0.0600 
    242 H242       -5.1185  -24.9650  -51.2398 H         1 UNK         0.3800 
    243 H243       -4.2748  -25.0314  -52.7617 H         1 UNK         0.3800 
    244 H244       -0.8795  -24.8274  -51.3497 H         1 UNK         0.0800 
    245 H245       -0.7780  -23.2506  -50.6199 H         1 UNK         0.0800 
    246 H246        1.3358  -21.3004  -53.4644 H         1 UNK         0.0800 
    247 H247       -0.3841  -21.2762  -53.1996 H         1 UNK         0.0800 
@<TRIPOS>BOND
     1    1    2 1    
     2    1  127 1    
     3    1  128 1    
     4    1  129 1    
     5    2    3 2    
     6    2    4 am   BACKBONE|DICT|INTERRES
     7    4    5 1    
     8    4  130 1    
     9    5    6 1    
    10    5   65 1    
    11    5  131 1    
    12    6    7 1    
    13    6  132 1    
    14    6  133 1    
    15    7    8 1    
    16    8    9 1    
    17    8  134 1    
    18    8  135 1    
    19    9   10 ar   
    20    9   14 ar   
    21   10   11 ar   
    22   10  136 1    
    23   11   12 ar   
    24   11  126 1    
    25   12   13 ar   
    26   12  137 1    
    27   13   14 ar   
    28   13   15 1    
    29   14  138 1    
    30   15   16 1    
    31   15  139 1    
    32   15  140 1    
    33   16   17 1    
    34   17   18 1    
    35   17  141 1    
    36   17  142 1    
    37   18   19 1    
    38   18   67 1    
    39   18  143 1    
    40   19   20 am   BACKBONE|DICT|INTERRES
    41   19  144 1    
    42   20   21 2    
    43   20   22 1    
    44   22   23 1    
    45   22   24 1    
    46   22  145 1    
    47   23  146 1    
    48   23  147 1    
    49   23  148 1    
    50   24   25 am   BACKBONE|DICT|INTERRES
    51   24  149 1    
    52   25   26 2    
    53   25   27 1    
    54   27   28 1    
    55   27   29 1    
    56   27  150 1    
    57   28  151 1    
    58   28  152 1    
    59   28  153 1    
    60   29   30 am   BACKBONE|DICT|INTERRES
    61   29  154 1    
    62   30   31 2    
    63   30   32 1    
    64   32   33 1    
    65   32   34 1    
    66   32  155 1    
    67   33  156 1    
    68   33  157 1    
    69   33  158 1    
    70   34   35 am   BACKBONE|DICT|INTERRES
    71   34  159 1    
    72   35   36 2    
    73   35   37 1    
    74   37   38 1    
    75   37   39 1    
    76   37  160 1    
    77   38  161 1    
    78   38  162 1    
    79   38  163 1    
    80   39   40 am   BACKBONE|DICT|INTERRES
    81   39  164 1    
    82   40   41 2    
    83   40   42 1    
    84   42   43 1    
    85   42   44 1    
    86   42  165 1    
    87   43  166 1    
    88   43  167 1    
    89   43  168 1    
    90   44   45 am   BACKBONE|DICT|INTERRES
    91   44  169 1    
    92   45   46 2    
    93   45   47 1    
    94   47   48 1    
    95   47   49 1    
    96   47  170 1    
    97   48  171 1    
    98   48  172 1    
    99   48  173 1    
   100   49   50 am   BACKBONE|DICT|INTERRES
   101   49  174 1    
   102   50   51 2    
   103   50   52 1    
   104   52   53 1    
   105   52   54 1    
   106   52  175 1    
   107   53  176 1    
   108   53  177 1    
   109   53  178 1    
   110   54   55 am   BACKBONE|DICT|INTERRES
   111   54  179 1    
   112   55   56 2    
   113   55   57 1    
   114   57   58 1    
   115   57   59 1    
   116   57  180 1    
   117   58  181 1    
   118   58  182 1    
   119   58  183 1    
   120   59   60 am   BACKBONE|DICT|INTERRES
   121   59  184 1    
   122   60   61 2    
   123   60   62 1    
   124   62   63 1    
   125   62   64 1    
   126   62  185 1    
   127   63  186 1    
   128   63  187 1    
   129   63  188 1    
   130   64   65 am   BACKBONE|DICT|INTERRES
   131   64  189 1    
   132   65   66 2    
   133   67   68 2    
   134   67   69 am   BACKBONE|DICT|INTERRES
   135   69   70 1    
   136   69  190 1    
   137   70   71 1    
   138   70   72 1    
   139   70  191 1    
   140   71  192 1    
   141   71  193 1    
   142   71  194 1    
   143   72   73 2    
   144   72   74 am   BACKBONE|DICT|INTERRES
   145   74   75 1    
   146   74  195 1    
   147   75   76 1    
   148   75   77 1    
   149   75  196 1    
   150   76  197 1    
   151   76  198 1    
   152   76  199 1    
   153   77   78 2    
   154   77   79 am   BACKBONE|DICT|INTERRES
   155   79   80 1    
   156   79  200 1    
   157   80   81 1    
   158   80   82 1    
   159   80  201 1    
   160   81  202 1    
   161   81  203 1    
   162   81  204 1    
   163   82   83 2    
   164   82   84 am   BACKBONE|DICT|INTERRES
   165   84   85 1    
   166   84  205 1    
   167   85   86 1    
   168   85   87 1    
   169   85  206 1    
   170   86  207 1    
   171   86  208 1    
   172   86  209 1    
   173   87   88 2    
   174   87   89 am   BACKBONE|DICT|INTERRES
   175   89   90 1    
   176   89  210 1    
   177   90   91 1    
   178   90   92 1    
   179   90  211 1    
   180   91  212 1    
   181   91  213 1    
   182   91  214 1    
   183   92   93 2    
   184   92   94 am   BACKBONE|DICT|INTERRES
   185   94   95 1    
   186   94  215 1    
   187   95   96 1    
   188   95   97 1    
   189   95  216 1    
   190   96  217 1    
   191   96  218 1    
   192   96  219 1    
   193   97   98 2    
   194   97   99 am   BACKBONE|DICT|INTERRES
   195   99  100 1    
   196   99  220 1    
   197  100  101 1    
   198  100  102 1    
   199  100  221 1    
   200  101  222 1    
   201  101  223 1    
   202  101  224 1    
   203  102  103 2    
   204  102  104 am   BACKBONE|DICT|INTERRES
   205  104  105 1    
   206  104  225 1    
   207  105  106 1    
   208  105  107 1    
   209  105  226 1    
   210  106  227 1    
   211  106  228 1    
   212  106  229 1    
   213  107  108 2    
   214  107  109 am   BACKBONE|DICT|INTERRES
   215  109  110 1    
   216  109  230 1    
   217  110  111 1    
   218  110  112 1    
   219  110  231 1    
   220  111  232 1    
   221  111  233 1    
   222  111  234 1    
   223  112  113 2    
   224  112  114 am   BACKBONE|DICT|INTERRES
   225  114  115 1    
   226  114  235 1    
   227  115  116 1    
   228  115  117 1    
   229  115  236 1    
   230  116  237 1    
   231  116  238 1    
   232  116  239 1    
   233  117  118 2    
   234  117  119 am   BACKBONE|DICT|INTERRES
   235  119  120 1    
   236  119  240 1    
   237  120  121 1    
   238  120  124 1    
   239  120  241 1    
   240  121  122 am   BACKBONE|DICT|INTERRES
   241  121  123 2    
   242  122  242 1    
   243  122  243 1    
   244  124  125 1    
   245  124  244 1    
   246  124  245 1    
   247  125  126 1    
   248  126  246 1    
   249  126  247 1    
@<TRIPOS>SUBSTRUCTURE
     1 UNK         1 GROUP             0       ****    0 ROOT    
