@<TRIPOS>MOLECULE
3R540
247   249    1
SMALL
USER_CHARGES


@<TRIPOS>ATOM
      1 CA         -5.5604  -12.6530  -47.4362 C.3       0 UNK        -0.1800 
      2 C          -4.1886  -13.3090  -47.5007 C.2       0 UNK         0.5000 
      3 O          -3.1815  -12.6482  -47.2474 O.2       0 UNK        -0.5000 
      4 N          -4.1470  -14.6044  -47.8390 N.am      1 UNK        -0.5000 
      5 CA         -2.9229  -15.4086  -47.9505 C.3       1 UNK         0.1400 
      6 C6         -3.1924  -16.7748  -48.6278 C.3       23 UNK        -0.0398 
      7 S7         -3.6742  -16.6105  -50.3797 S.3       23 UNK        -0.2404 
      8 C8         -2.0565  -16.4480  -51.2075 C.3       23 UNK        -0.0205 
      9 C9         -1.2554  -17.7417  -51.1802 C.ar      23 UNK        -0.0193 
     10 C10        -1.4527  -18.7143  -52.1625 C.ar      23 UNK        -0.1150 
     11 C11        -0.7160  -19.9015  -52.1427 C.ar      23 UNK        -0.0193 
     12 C12         0.2099  -20.1198  -51.1173 C.ar      23 UNK        -0.1150 
     13 C13         0.4193  -19.1547  -50.1222 C.ar      23 UNK        -0.0193 
     14 C14        -0.3073  -17.9625  -50.1781 C.ar      23 UNK        -0.1150 
     15 C15         1.3936  -19.3362  -48.9572 C.3       23 UNK        -0.0205 
     16 S16         2.2114  -20.9679  -48.8337 S.3       23 UNK        -0.2404 
     17 C17         2.3297  -21.1474  -47.0184 C.3       23 UNK        -0.0398 
     18 CA          1.3152  -22.1339  -46.3820 C.3       11 UNK         0.1400 
     19 N           1.4211  -22.1268  -44.9212 N.am      11 UNK        -0.5000 
     20 C           0.7840  -22.9673  -44.0939 C.2       10 UNK         0.5000 
     21 O           0.0721  -23.8967  -44.4740 O.2       10 UNK        -0.5000 
     22 CA          0.9308  -22.6936  -42.5867 C.3       10 UNK         0.1400 
     23 CB          2.2744  -23.2255  -42.0665 C.3       10 UNK        -0.1800 
     24 N           0.7976  -21.2730  -42.2554 N.am      10 UNK        -0.5000 
     25 C          -0.3193  -20.5529  -42.4387 C.2       9 UNK         0.5000 
     26 O          -1.3696  -21.0226  -42.8753 O.2       9 UNK        -0.5000 
     27 CA         -0.2400  -19.0454  -42.1335 C.3       9 UNK         0.1400 
     28 CB         -0.3215  -18.7779  -40.6240 C.3       9 UNK        -0.1800 
     29 N           0.9669  -18.4232  -42.6749 N.am      9 UNK        -0.5000 
     30 C           1.2745  -18.3661  -43.9779 C.2       8 UNK         0.5000 
     31 O           0.5540  -18.7995  -44.8753 O.2       8 UNK        -0.5000 
     32 CA          2.6472  -17.7774  -44.3340 C.3       8 UNK         0.1400 
     33 CB          2.6118  -16.2437  -44.2889 C.3       8 UNK        -0.1800 
     34 N           3.7002  -18.2864  -43.4548 N.am      8 UNK        -0.5000 
     35 C           4.1264  -19.5583  -43.4496 C.2       7 UNK         0.5000 
     36 O           3.6931  -20.4285  -44.2041 O.2       7 UNK        -0.5000 
     37 CA          5.1868  -19.9303  -42.3985 C.3       7 UNK         0.1400 
     38 CB          6.5920  -19.5488  -42.8869 C.3       7 UNK        -0.1800 
     39 N           4.9355  -19.3030  -41.1013 N.am      7 UNK        -0.5000 
     40 C           3.8834  -19.5782  -40.3176 C.2       6 UNK         0.5000 
     41 O           3.0224  -20.4128  -40.5924 O.2       6 UNK        -0.5000 
     42 CA          3.7453  -18.7387  -39.0351 C.3       6 UNK         0.1400 
     43 CB          4.5771  -19.3475  -37.8964 C.3       6 UNK        -0.1800 
     44 N           4.1242  -17.3346  -39.2219 N.am      6 UNK        -0.5000 
     45 C           3.5027  -16.4913  -40.0557 C.2       5 UNK         0.5000 
     46 O           2.5705  -16.8213  -40.7933 O.2       5 UNK        -0.5000 
     47 CA          4.0258  -15.0518  -40.0994 C.3       5 UNK         0.1400 
     48 CB          5.0092  -14.8567  -41.2659 C.3       5 UNK        -0.1800 
     49 N           2.8802  -14.1672  -40.2553 N.am      5 UNK        -0.5000 
     50 C           2.7938  -12.9005  -39.8439 C.2       4 UNK         0.5000 
     51 O           3.7412  -12.2842  -39.3514 O.2       4 UNK        -0.5000 
     52 CA          1.4147  -12.2175  -40.0035 C.3       4 UNK         0.1400 
     53 CB          1.4123  -10.7624  -39.4997 C.3       4 UNK        -0.1800 
     54 N           0.9075  -12.2334  -41.3792 N.am      4 UNK        -0.5000 
     55 C           0.4141  -13.2981  -42.0233 C.2       3 UNK         0.5000 
     56 O           0.3762  -14.4297  -41.5326 O.2       3 UNK        -0.5000 
     57 CA         -0.1023  -13.0479  -43.4559 C.3       3 UNK         0.1400 
     58 CB          1.0576  -12.7249  -44.4123 C.3       3 UNK        -0.1800 
     59 N          -0.8424  -14.1939  -43.9845 N.am      3 UNK        -0.5000 
     60 C          -2.0290  -14.6186  -43.5352 C.2       2 UNK         0.5000 
     61 O          -2.7075  -14.0071  -42.7070 O.2       2 UNK        -0.5000 
     62 CA         -2.5462  -15.9340  -44.1466 C.3       2 UNK         0.1400 
     63 CB         -3.6815  -16.5661  -43.3218 C.3       2 UNK        -0.1800 
     64 N          -3.0149  -15.7226  -45.5139 N.am      2 UNK        -0.5000 
     65 C          -2.2252  -15.6246  -46.5918 C.2       1 UNK         0.5000 
     66 O          -0.9968  -15.7102  -46.5468 O.2       1 UNK        -0.5000 
     67 C          -0.1426  -21.8982  -46.8353 C.2       11 UNK         0.5000 
     68 O          -0.6575  -22.6758  -47.6379 O.2       11 UNK        -0.5000 
     69 N          -0.7957  -20.8691  -46.2783 N.am      12 UNK        -0.5000 
     70 CA         -2.1904  -20.5274  -46.5525 C.3       12 UNK         0.1400 
     71 CB         -2.5395  -19.2136  -45.8456 C.3       12 UNK        -0.1800 
     72 C          -3.1740  -21.6386  -46.1492 C.2       12 UNK         0.5000 
     73 O          -4.0967  -21.9281  -46.9093 O.2       12 UNK        -0.5000 
     74 N          -2.9430  -22.2644  -44.9868 N.am      13 UNK        -0.5000 
     75 CA         -3.7163  -23.4047  -44.4940 C.3       13 UNK         0.1400 
     76 CB         -3.3114  -23.7154  -43.0451 C.3       13 UNK        -0.1800 
     77 C          -3.5719  -24.6542  -45.3826 C.2       13 UNK         0.5000 
     78 O          -4.5657  -25.3402  -45.6240 O.2       13 UNK        -0.5000 
     79 N          -2.3496  -24.9148  -45.8673 N.am      14 UNK        -0.5000 
     80 CA         -2.0425  -26.0046  -46.7936 C.3       14 UNK         0.1400 
     81 CB         -0.5208  -26.2047  -46.8659 C.3       14 UNK        -0.1800 
     82 C          -2.6339  -25.7727  -48.1966 C.2       14 UNK         0.5000 
     83 O          -3.1787  -26.7070  -48.7861 O.2       14 UNK        -0.5000 
     84 N          -2.5225  -24.5362  -48.7010 N.am      15 UNK        -0.5000 
     85 CA         -3.0549  -24.1111  -49.9958 C.3       15 UNK         0.1400 
     86 CB         -2.4762  -22.7334  -50.3539 C.3       15 UNK        -0.1800 
     87 C          -4.5920  -24.0608  -50.0289 C.2       15 UNK         0.5000 
     88 O          -5.1866  -24.3916  -51.0545 O.2       15 UNK        -0.5000 
     89 N          -5.1975  -23.6163  -48.9188 N.am      16 UNK        -0.5000 
     90 CA         -6.6226  -23.3693  -48.6659 C.3       16 UNK         0.1400 
     91 CB         -7.4780  -24.6277  -48.9065 C.3       16 UNK        -0.1800 
     92 C          -7.1919  -22.1433  -49.4094 C.2       16 UNK         0.5000 
     93 O          -8.0270  -21.4352  -48.8450 O.2       16 UNK        -0.5000 
     94 N          -6.7243  -21.8907  -50.6350 N.am      17 UNK        -0.5000 
     95 CA         -7.0503  -20.7416  -51.4693 C.3       17 UNK         0.1400 
     96 CB         -8.4113  -20.9608  -52.1556 C.3       17 UNK        -0.1800 
     97 C          -5.9368  -20.5583  -52.5097 C.2       17 UNK         0.5000 
     98 O          -5.1818  -21.4969  -52.7801 O.2       17 UNK        -0.5000 
     99 N          -5.8758  -19.3665  -53.1142 N.am      18 UNK        -0.5000 
    100 CA        -4.9591  -19.0277  -54.2035 C.3       18 UNK         0.1400 
    101 CB        -4.7367  -17.5051  -54.2185 C.3       18 UNK        -0.1800 
    102 C         -5.4736  -19.5659  -55.5536 C.2       18 UNK         0.5000 
    103 O         -5.7810  -18.7868  -56.4586 O.2       18 UNK        -0.5000 
    104 N         -5.5744  -20.8972  -55.6590 N.am      19 UNK        -0.5000 
    105 CA        -5.9674  -21.6286  -56.8638 C.3       19 UNK         0.1400 
    106 CB        -6.0232  -23.1304  -56.5464 C.3       19 UNK        -0.1800 
    107 C         -4.9920  -21.3420  -58.0186 C.2       19 UNK         0.5000 
    108 O         -3.7860  -21.5354  -57.8500 O.2       19 UNK        -0.5000 
    109 N         -5.5221  -20.8160  -59.1328 N.am      20 UNK        -0.5000 
    110 CA        -4.7840  -20.3132  -60.3015 C.3       20 UNK         0.1400 
    111 CB        -4.1459  -21.4823  -61.0807 C.3       20 UNK        -0.1800 
    112 C         -3.7634  -19.2082  -59.9392 C.2       20 UNK         0.5000 
    113 O         -2.6769  -19.1531  -60.5189 O.2       20 UNK        -0.5000 
    114 N         -4.1090  -18.3888  -58.9320 N.am      21 UNK        -0.5000 
    115 CA        -3.2812  -17.3561  -58.2943 C.3       21 UNK         0.1400 
    116 CB        -2.9920  -16.2041  -59.2788 C.3       21 UNK        -0.1800 
    117 C         -1.9965  -17.9121  -57.6367 C.2       21 UNK         0.5000 
    118 O         -1.0409  -17.1619  -57.4336 O.2       21 UNK        -0.5000 
    119 N         -1.9902  -19.2172  -57.3275 N.am      22 UNK        -0.5000 
    120 CA        -0.8241  -20.0022  -56.8978 C.3       22 UNK         0.1400 
    121 C          0.2395  -20.2307  -58.0203 C.2       22 UNK         0.5000 
    122 N         -0.0778  -20.0193  -59.2938 N.am      22 UNK        -0.7600 
    123 O          1.3680  -20.6292  -57.7460 O.2       22 UNK        -0.5000 
    124 C124       -0.2225  -19.5025  -55.5513 C.3       23 UNK        -0.0398 
    125 S125        0.3662  -20.8759  -54.5011 S.3       23 UNK        -0.2404 
    126 C126       -0.9219  -20.9587  -53.2178 C.3       23 UNK        -0.0205 
    127 H127       -5.7480  -12.2749  -46.4313 H         1 UNK         0.0600 
    128 H128       -6.3572  -13.3522  -47.6909 H         1 UNK         0.0600 
    129 H129       -5.6086  -11.8151  -48.1317 H         1 UNK         0.0600 
    130 H130       -5.0072  -15.0832  -48.0653 H         1 UNK         0.3000 
    131 H131       -2.2189  -14.8512  -48.5716 H         1 UNK         0.0600 
    132 H132       -2.3296  -17.4350  -48.5552 H         1 UNK         0.0800 
    133 H133       -3.9961  -17.2996  -48.1087 H         1 UNK         0.0800 
    134 H134       -1.4875  -15.6381  -50.7494 H         1 UNK         0.0800 
    135 H135       -2.2229  -16.1465  -52.2426 H         1 UNK         0.0800 
    136 H136       -2.1778  -18.5407  -52.9427 H         1 UNK         0.1150 
    137 H137        0.7617  -21.0479  -51.1102 H         1 UNK         0.1150 
    138 H138       -0.1461  -17.2069  -49.4213 H         1 UNK         0.1150 
    139 H139        2.1662  -18.5685  -49.0171 H         1 UNK         0.0800 
    140 H140        0.8382  -19.1416  -48.0383 H         1 UNK         0.0800 
    141 H141        2.2429  -20.1650  -46.5544 H         1 UNK         0.0800 
    142 H142        3.3423  -21.4825  -46.7901 H         1 UNK         0.0800 
    143 H143        1.5872  -23.1379  -46.7145 H         1 UNK         0.0600 
    144 H144        2.0252  -21.4149  -44.5218 H         1 UNK         0.3000 
    145 H145        0.1315  -23.2318  -42.0732 H         1 UNK         0.0600 
    146 H146        2.3449  -23.1229  -40.9836 H         1 UNK         0.0600 
    147 H147        2.3937  -24.2840  -42.3012 H         1 UNK         0.0600 
    148 H148        3.1171  -22.6926  -42.5081 H         1 UNK         0.0600 
    149 H149        1.6117  -20.8252  -41.8435 H         1 UNK         0.3000 
    150 H150       -1.0992  -18.5673  -42.6077 H         1 UNK         0.0600 
    151 H151       -1.2315  -19.2042  -40.2002 H         1 UNK         0.0600 
    152 H152       -0.3336  -17.7075  -40.4156 H         1 UNK         0.0600 
    153 H153        0.5254  -19.2113  -40.0915 H         1 UNK         0.0600 
    154 H154        1.6045  -18.0026  -42.0042 H         1 UNK         0.3000 
    155 H155        2.8861  -18.0770  -45.3565 H         1 UNK         0.0600 
    156 H156        2.3523  -15.8692  -43.2982 H         1 UNK         0.0600 
    157 H157        1.8678  -15.8602  -44.9883 H         1 UNK         0.0600 
    158 H158        3.5739  -15.8161  -44.5707 H         1 UNK         0.0600 
    159 H159        4.0643  -17.6490  -42.7631 H         1 UNK         0.3000 
    160 H160        5.1548  -21.0135  -42.2629 H         1 UNK         0.0600 
    161 H161        6.6972  -18.4707  -43.0150 H         1 UNK         0.0600 
    162 H162        6.8110  -20.0167  -43.8478 H         1 UNK         0.0600 
    163 H163        7.3568  -19.8798  -42.1841 H         1 UNK         0.0600 
    164 H164        5.5917  -18.5994  -40.7968 H         1 UNK         0.3000 
    165 H165        2.6945  -18.7630  -38.7391 H         1 UNK         0.0600 
    166 H166        4.4146  -18.8133  -36.9601 H         1 UNK         0.0600 
    167 H167        4.3017  -20.3893  -37.7263 H         1 UNK         0.0600 
    168 H168        5.6448  -19.3219  -38.1175 H         1 UNK         0.0600 
    169 H169        4.8874  -16.9943  -38.6545 H         1 UNK         0.3000 
    170 H170        4.5291  -14.8310  -39.1557 H         1 UNK         0.0600 
    171 H171        5.8595  -15.5342  -41.1799 H         1 UNK         0.0600 
    172 H172        4.5333  -15.0435  -42.2288 H         1 UNK         0.0600 
    173 H173        5.4043  -13.8409  -41.2820 H         1 UNK         0.0600 
    174 H174        2.0508  -14.6055  -40.6547 H         1 UNK         0.3000 
    175 H175        0.7161  -12.7786  -39.3792 H         1 UNK         0.0600 
    176 H176        2.0856  -10.1332  -40.0831 H         1 UNK         0.0600 
    177 H177        0.4142  -10.3274  -39.5544 H         1 UNK         0.0600 
    178 H178        1.7295  -10.7070  -38.4575 H         1 UNK         0.0600 
    179 H179        0.9384  -11.3490  -41.8654 H         1 UNK         0.3000 
    180 H180       -0.7801  -12.1923  -43.4277 H         1 UNK         0.0600 
    181 H181        1.8087  -13.5139  -44.4194 H         1 UNK         0.0600 
    182 H182        1.5608  -11.8014  -44.1242 H         1 UNK         0.0600 
    183 H183        0.7018  -12.5907  -45.4342 H         1 UNK         0.0600 
    184 H184       -0.3936  -14.7332  -44.7144 H         1 UNK         0.3000 
    185 H185       -1.7150  -16.6430  -44.1592 H         1 UNK         0.0600 
    186 H186       -3.9862  -17.5259  -43.7386 H         1 UNK         0.0600 
    187 H187       -3.3613  -16.7467  -42.2948 H         1 UNK         0.0600 
    188 H188       -4.5621  -15.9237  -43.2846 H         1 UNK         0.0600 
    189 H189       -4.0085  -15.5918  -45.6338 H         1 UNK         0.3000 
    190 H190       -0.2980  -20.2519  -45.6400 H         1 UNK         0.3000 
    191 H191       -2.2848  -20.3706  -47.6291 H         1 UNK         0.0600 
    192 H192       -3.5553  -18.8950  -46.0815 H         1 UNK         0.0600 
    193 H193       -1.8617  -18.4213  -46.1575 H         1 UNK         0.0600 
    194 H194       -2.4637  -19.3059  -44.7620 H         1 UNK         0.0600 
    195 H195       -2.1946  -21.9277  -44.3874 H         1 UNK         0.3000 
    196 H196       -4.7698  -23.1175  -44.4962 H         1 UNK         0.0600 
    197 H197       -2.2551  -23.9743  -42.9685 H         1 UNK         0.0600 
    198 H198       -3.4934  -22.8604  -42.3938 H         1 UNK         0.0600 
    199 H199       -3.8857  -24.5540  -42.6496 H         1 UNK         0.0600 
    200 H200       -1.5725  -24.3282  -45.5798 H         1 UNK         0.3000 
    201 H201       -2.4827  -26.9209  -46.3948 H         1 UNK         0.0600 
    202 H202       -0.1091  -26.4463  -45.8858 H         1 UNK         0.0600 
    203 H203       -0.0122  -25.3113  -47.2293 H         1 UNK         0.0600 
    204 H204       -0.2658  -27.0250  -47.5380 H         1 UNK         0.0600 
    205 H205       -1.9938  -23.8408  -48.1782 H         1 UNK         0.3000 
    206 H206       -2.7266  -24.8273  -50.7518 H         1 UNK         0.0600 
    207 H207       -1.3888  -22.7679  -50.4218 H         1 UNK         0.0600 
    208 H208       -2.8558  -22.3878  -51.3162 H         1 UNK         0.0600 
    209 H209       -2.7384  -21.9796  -49.6106 H         1 UNK         0.0600 
    210 H210       -4.5955  -23.2841  -48.1699 H         1 UNK         0.3000 
    211 H211       -6.6828  -23.1375  -47.6014 H         1 UNK         0.0600 
    212 H212       -8.5038  -24.4661  -48.5733 H         1 UNK         0.0600 
    213 H213       -7.0862  -25.4814  -48.3534 H         1 UNK         0.0600 
    214 H214       -7.5208  -24.8994  -49.9613 H         1 UNK         0.0600 
    215 H215       -6.0428  -22.5264  -51.0408 H         1 UNK         0.3000 
    216 H216       -7.0890  -19.8457  -50.8460 H         1 UNK         0.0600 
    217 H217       -8.4042  -21.8555  -52.7796 H         1 UNK         0.0600 
    218 H218       -8.6719  -20.1164  -52.7946 H         1 UNK         0.0600 
    219 H219       -9.2125  -21.0699  -51.4246 H         1 UNK         0.0600 
    220 H220       -6.5493  -18.6566  -52.8649 H         1 UNK         0.3000 
    221 H221       -3.9938  -19.5014  -54.0181 H         1 UNK         0.0600 
    222 H222       -4.3525  -17.1543  -53.2619 H         1 UNK         0.0600 
    223 H223       -5.6599  -16.9625  -54.4254 H         1 UNK         0.0600 
    224 H224       -4.0091  -17.2238  -54.9803 H         1 UNK         0.0600 
    225 H225       -5.3134  -21.4530  -54.8520 H         1 UNK         0.3000 
    226 H226       -6.9690  -21.2980  -57.1461 H         1 UNK         0.0600 
    227 H227       -5.0520  -23.5104  -56.2263 H         1 UNK         0.0600 
    228 H228       -6.7420  -23.3396  -55.7539 H         1 UNK         0.0600 
    229 H229       -6.3282  -23.7033  -57.4229 H         1 UNK         0.0600 
    230 H230       -6.5222  -20.6717  -59.1619 H         1 UNK         0.3000 
    231 H231       -5.5200  -19.8426  -60.9547 H         1 UNK         0.0600 
    232 H232       -3.3519  -21.9647  -60.5097 H         1 UNK         0.0600 
    233 H233       -3.7095  -21.1361  -62.0184 H         1 UNK         0.0600 
    234 H234       -4.8875  -22.2409  -61.3305 H         1 UNK         0.0600 
    235 H235       -4.9960  -18.5559  -58.4698 H         1 UNK         0.3000 
    236 H236       -3.8822  -16.9480  -57.4809 H         1 UNK         0.0600 
    237 H237       -2.5165  -15.3644  -58.7706 H         1 UNK         0.0600 
    238 H238       -2.3269  -16.5159  -60.0845 H         1 UNK         0.0600 
    239 H239       -3.9116  -15.8294  -59.7282 H         1 UNK         0.0600 
    240 H240       -2.8043  -19.7755  -57.5603 H         1 UNK         0.3000 
    241 H241       -1.2419  -20.9942  -56.7225 H         1 UNK         0.0600 
    242 H242        0.6182  -20.1799  -60.0044 H         1 UNK         0.3800 
    243 H243       -1.0012  -19.6997  -59.5671 H         1 UNK         0.3800 
    244 H244       -0.9665  -18.9368  -54.9914 H         1 UNK         0.0800 
    245 H245        0.5991  -18.8051  -55.7224 H         1 UNK         0.0800 
    246 H246       -1.9104  -20.8716  -53.6714 H         1 UNK         0.0800 
    247 H247       -0.8854  -21.9486  -52.7621 H         1 UNK         0.0800 
@<TRIPOS>BOND
     1    1    2 1    
     2    1  127 1    
     3    1  128 1    
     4    1  129 1    
     5    2    3 2    
     6    2    4 am   BACKBONE|DICT|INTERRES
     7    4    5 1    
     8    4  130 1    
     9    5    6 1    
    10    5   65 1    
    11    5  131 1    
    12    6    7 1    
    13    6  132 1    
    14    6  133 1    
    15    7    8 1    
    16    8    9 1    
    17    8  134 1    
    18    8  135 1    
    19    9   10 ar   
    20    9   14 ar   
    21   10   11 ar   
    22   10  136 1    
    23   11   12 ar   
    24   11  126 1    
    25   12   13 ar   
    26   12  137 1    
    27   13   14 ar   
    28   13   15 1    
    29   14  138 1    
    30   15   16 1    
    31   15  139 1    
    32   15  140 1    
    33   16   17 1    
    34   17   18 1    
    35   17  141 1    
    36   17  142 1    
    37   18   19 1    
    38   18   67 1    
    39   18  143 1    
    40   19   20 am   BACKBONE|DICT|INTERRES
    41   19  144 1    
    42   20   21 2    
    43   20   22 1    
    44   22   23 1    
    45   22   24 1    
    46   22  145 1    
    47   23  146 1    
    48   23  147 1    
    49   23  148 1    
    50   24   25 am   BACKBONE|DICT|INTERRES
    51   24  149 1    
    52   25   26 2    
    53   25   27 1    
    54   27   28 1    
    55   27   29 1    
    56   27  150 1    
    57   28  151 1    
    58   28  152 1    
    59   28  153 1    
    60   29   30 am   BACKBONE|DICT|INTERRES
    61   29  154 1    
    62   30   31 2    
    63   30   32 1    
    64   32   33 1    
    65   32   34 1    
    66   32  155 1    
    67   33  156 1    
    68   33  157 1    
    69   33  158 1    
    70   34   35 am   BACKBONE|DICT|INTERRES
    71   34  159 1    
    72   35   36 2    
    73   35   37 1    
    74   37   38 1    
    75   37   39 1    
    76   37  160 1    
    77   38  161 1    
    78   38  162 1    
    79   38  163 1    
    80   39   40 am   BACKBONE|DICT|INTERRES
    81   39  164 1    
    82   40   41 2    
    83   40   42 1    
    84   42   43 1    
    85   42   44 1    
    86   42  165 1    
    87   43  166 1    
    88   43  167 1    
    89   43  168 1    
    90   44   45 am   BACKBONE|DICT|INTERRES
    91   44  169 1    
    92   45   46 2    
    93   45   47 1    
    94   47   48 1    
    95   47   49 1    
    96   47  170 1    
    97   48  171 1    
    98   48  172 1    
    99   48  173 1    
   100   49   50 am   BACKBONE|DICT|INTERRES
   101   49  174 1    
   102   50   51 2    
   103   50   52 1    
   104   52   53 1    
   105   52   54 1    
   106   52  175 1    
   107   53  176 1    
   108   53  177 1    
   109   53  178 1    
   110   54   55 am   BACKBONE|DICT|INTERRES
   111   54  179 1    
   112   55   56 2    
   113   55   57 1    
   114   57   58 1    
   115   57   59 1    
   116   57  180 1    
   117   58  181 1    
   118   58  182 1    
   119   58  183 1    
   120   59   60 am   BACKBONE|DICT|INTERRES
   121   59  184 1    
   122   60   61 2    
   123   60   62 1    
   124   62   63 1    
   125   62   64 1    
   126   62  185 1    
   127   63  186 1    
   128   63  187 1    
   129   63  188 1    
   130   64   65 am   BACKBONE|DICT|INTERRES
   131   64  189 1    
   132   65   66 2    
   133   67   68 2    
   134   67   69 am   BACKBONE|DICT|INTERRES
   135   69   70 1    
   136   69  190 1    
   137   70   71 1    
   138   70   72 1    
   139   70  191 1    
   140   71  192 1    
   141   71  193 1    
   142   71  194 1    
   143   72   73 2    
   144   72   74 am   BACKBONE|DICT|INTERRES
   145   74   75 1    
   146   74  195 1    
   147   75   76 1    
   148   75   77 1    
   149   75  196 1    
   150   76  197 1    
   151   76  198 1    
   152   76  199 1    
   153   77   78 2    
   154   77   79 am   BACKBONE|DICT|INTERRES
   155   79   80 1    
   156   79  200 1    
   157   80   81 1    
   158   80   82 1    
   159   80  201 1    
   160   81  202 1    
   161   81  203 1    
   162   81  204 1    
   163   82   83 2    
   164   82   84 am   BACKBONE|DICT|INTERRES
   165   84   85 1    
   166   84  205 1    
   167   85   86 1    
   168   85   87 1    
   169   85  206 1    
   170   86  207 1    
   171   86  208 1    
   172   86  209 1    
   173   87   88 2    
   174   87   89 am   BACKBONE|DICT|INTERRES
   175   89   90 1    
   176   89  210 1    
   177   90   91 1    
   178   90   92 1    
   179   90  211 1    
   180   91  212 1    
   181   91  213 1    
   182   91  214 1    
   183   92   93 2    
   184   92   94 am   BACKBONE|DICT|INTERRES
   185   94   95 1    
   186   94  215 1    
   187   95   96 1    
   188   95   97 1    
   189   95  216 1    
   190   96  217 1    
   191   96  218 1    
   192   96  219 1    
   193   97   98 2    
   194   97   99 am   BACKBONE|DICT|INTERRES
   195   99  100 1    
   196   99  220 1    
   197  100  101 1    
   198  100  102 1    
   199  100  221 1    
   200  101  222 1    
   201  101  223 1    
   202  101  224 1    
   203  102  103 2    
   204  102  104 am   BACKBONE|DICT|INTERRES
   205  104  105 1    
   206  104  225 1    
   207  105  106 1    
   208  105  107 1    
   209  105  226 1    
   210  106  227 1    
   211  106  228 1    
   212  106  229 1    
   213  107  108 2    
   214  107  109 am   BACKBONE|DICT|INTERRES
   215  109  110 1    
   216  109  230 1    
   217  110  111 1    
   218  110  112 1    
   219  110  231 1    
   220  111  232 1    
   221  111  233 1    
   222  111  234 1    
   223  112  113 2    
   224  112  114 am   BACKBONE|DICT|INTERRES
   225  114  115 1    
   226  114  235 1    
   227  115  116 1    
   228  115  117 1    
   229  115  236 1    
   230  116  237 1    
   231  116  238 1    
   232  116  239 1    
   233  117  118 2    
   234  117  119 am   BACKBONE|DICT|INTERRES
   235  119  120 1    
   236  119  240 1    
   237  120  121 1    
   238  120  124 1    
   239  120  241 1    
   240  121  122 am   BACKBONE|DICT|INTERRES
   241  121  123 2    
   242  122  242 1    
   243  122  243 1    
   244  124  125 1    
   245  124  244 1    
   246  124  245 1    
   247  125  126 1    
   248  126  246 1    
   249  126  247 1    
@<TRIPOS>SUBSTRUCTURE
     1 UNK         1 GROUP             0       ****    0 ROOT    
