@<TRIPOS>MOLECULE
3R540
247   249    1
SMALL
USER_CHARGES


@<TRIPOS>ATOM
      1 CA         -6.1778  -14.2753  -46.9037 C.3       0 UNK        -0.1800 
      2 C          -4.6852  -14.5706  -46.9128 C.2       0 UNK         0.5000 
      3 O          -3.9027  -13.7923  -46.3669 O.2       0 UNK        -0.5000 
      4 N          -4.2906  -15.7025  -47.5123 N.am      1 UNK        -0.5000 
      5 CA         -2.8986  -16.1465  -47.6835 C.3       1 UNK         0.1400 
      6 C6         -2.7973  -17.3807  -48.6087 C.3       23 UNK        -0.0398 
      7 S7         -3.2667  -17.0302  -50.3331 S.3       23 UNK        -0.2404 
      8 C8         -1.7489  -16.2669  -50.9935 C.3       23 UNK        -0.0205 
      9 C9         -0.5681  -17.2275  -51.0218 C.ar      23 UNK        -0.0193 
     10 C10        -0.4003  -18.1039  -52.0964 C.ar      23 UNK        -0.1150 
     11 C11         0.6943  -18.9774  -52.1456 C.ar      23 UNK        -0.0193 
     12 C12         1.6236  -18.9585  -51.0977 C.ar      23 UNK        -0.1150 
     13 C13         1.4751  -18.0769  -50.0213 C.ar      23 UNK        -0.0193 
     14 C14         0.3783  -17.2122  -49.9935 C.ar      23 UNK        -0.1150 
     15 C15         2.5290  -18.0076  -48.9209 C.3       23 UNK        -0.0205 
     16 S16         2.4518  -19.4034  -47.7521 S.3       23 UNK        -0.2404 
     17 C17         0.8987  -19.0714  -46.8548 C.3       23 UNK        -0.0398 
     18 CA          0.2484  -20.3746  -46.3433 C.3       11 UNK         0.1400 
     19 N           1.0766  -21.0942  -45.3646 N.am      11 UNK        -0.5000 
     20 C           0.9470  -22.4027  -45.0949 C.2       10 UNK         0.5000 
     21 O           0.0578  -23.0940  -45.5944 O.2       10 UNK        -0.5000 
     22 CA          1.8937  -23.0341  -44.0557 C.3       10 UNK         0.1400 
     23 CB          2.3315  -24.4613  -44.4449 C.3       10 UNK        -0.1800 
     24 N           3.0373  -22.1914  -43.6948 N.am      10 UNK        -0.5000 
     25 C           4.1175  -21.8845  -44.4313 C.2       9 UNK         0.5000 
     26 O           4.3111  -22.3090  -45.5704 O.2       9 UNK        -0.5000 
     27 CA          5.1544  -20.9351  -43.7906 C.3       9 UNK         0.1400 
     28 CB          5.5734  -19.8200  -44.7655 C.3       9 UNK        -0.1800 
     29 N           4.6424  -20.3211  -42.5631 N.am      9 UNK        -0.5000 
     30 C           4.8393  -20.7817  -41.3195 C.2       8 UNK         0.5000 
     31 O           5.5708  -21.7356  -41.0542 O.2       8 UNK        -0.5000 
     32 CA          4.0611  -20.0878  -40.1811 C.3       8 UNK         0.1400 
     33 CB          4.9668  -19.0918  -39.4417 C.3       8 UNK        -0.1800 
     34 N           2.8527  -19.3953  -40.6414 N.am      8 UNK        -0.5000 
     35 C           1.7509  -20.0104  -41.1021 C.2       7 UNK         0.5000 
     36 O           1.6257  -21.2338  -41.1408 O.2       7 UNK        -0.5000 
     37 CA          0.6279  -19.1253  -41.6848 C.3       7 UNK         0.1400 
     38 CB         -0.4104  -18.7965  -40.6039 C.3       7 UNK        -0.1800 
     39 N           1.1105  -17.8770  -42.2754 N.am      7 UNK        -0.5000 
     40 C           2.0337  -17.7754  -43.2412 C.2       6 UNK         0.5000 
     41 O           2.4733  -18.7487  -43.8537 O.2       6 UNK        -0.5000 
     42 CA          2.6226  -16.3741  -43.5046 C.3       6 UNK         0.1400 
     43 CB          2.1462  -15.8064  -44.8474 C.3       6 UNK        -0.1800 
     44 N           2.3400  -15.4162  -42.4251 N.am      6 UNK        -0.5000 
     45 C           2.9055  -15.4745  -41.2087 C.2       5 UNK         0.5000 
     46 O           3.7087  -16.3538  -40.8955 O.2       5 UNK        -0.5000 
     47 CA          2.5036  -14.4198  -40.1595 C.3       5 UNK         0.1400 
     48 CB          3.7295  -13.8970  -39.3828 C.3       5 UNK        -0.1800 
     49 N           1.7629  -13.2940  -40.7343 N.am      5 UNK        -0.5000 
     50 C           0.9235  -12.5076  -40.0444 C.2       4 UNK         0.5000 
     51 O           0.6371  -12.6821  -38.8592 O.2       4 UNK        -0.5000 
     52 CA          0.3016  -11.3213  -40.8041 C.3       4 UNK         0.1400 
     53 CB          1.2852  -10.1422  -40.8676 C.3       4 UNK        -0.1800 
     54 N          -0.0978  -11.6934  -42.1603 N.am      4 UNK        -0.5000 
     55 C          -1.2020  -12.3927  -42.4539 C.2       3 UNK         0.5000 
     56 O          -2.0640  -12.6821  -41.6205 O.2       3 UNK        -0.5000 
     57 CA         -1.3830  -12.8344  -43.9240 C.3       3 UNK         0.1400 
     58 CB         -0.0880  -12.7549  -44.7624 C.3       3 UNK        -0.1800 
     59 N          -1.9692  -14.1710  -44.0548 N.am      3 UNK        -0.5000 
     60 C          -1.5515  -15.3132  -43.4832 C.2       2 UNK         0.5000 
     61 O          -0.6058  -15.3911  -42.6969 O.2       2 UNK        -0.5000 
     62 CA         -2.2982  -16.6028  -43.8870 C.3       2 UNK         0.1400 
     63 CB         -3.4271  -16.8969  -42.8875 C.3       2 UNK        -0.1800 
     64 N          -2.8615  -16.5453  -45.2388 N.am      2 UNK        -0.5000 
     65 C          -2.1409  -16.4051  -46.3622 C.2       1 UNK         0.5000 
     66 O          -0.9118  -16.4406  -46.3847 O.2       1 UNK        -0.5000 
     67 C          -1.2089  -20.1557  -45.8756 C.2       11 UNK         0.5000 
     68 O          -2.0373  -19.7176  -46.6703 O.2       11 UNK        -0.5000 
     69 N          -1.5444  -20.5551  -44.6416 N.am      12 UNK        -0.5000 
     70 CA         -2.9280  -20.7282  -44.1965 C.3       12 UNK         0.1400 
     71 CB         -2.9443  -21.0163  -42.6889 C.3       12 UNK        -0.1800 
     72 C          -3.6711  -21.8330  -44.9809 C.2       12 UNK         0.5000 
     73 O          -4.8798  -21.7172  -45.1803 O.2       12 UNK        -0.5000 
     74 N          -2.9375  -22.8562  -45.4493 N.am      13 UNK        -0.5000 
     75 CA         -3.4568  -23.9014  -46.3338 C.3       13 UNK         0.1400 
     76 CB         -2.5941  -25.1646  -46.1936 C.3       13 UNK        -0.1800 
     77 C          -3.5097  -23.4451  -47.8043 C.2       13 UNK         0.5000 
     78 O          -4.3774  -23.9049  -48.5468 O.2       13 UNK        -0.5000 
     79 N          -2.6073  -22.5304  -48.1973 N.am      14 UNK        -0.5000 
     80 CA         -2.5273  -21.9510  -49.5441 C.3       14 UNK         0.1400 
     81 CB         -1.2738  -21.0722  -49.6777 C.3       14 UNK        -0.1800 
     82 C          -3.7740  -21.1451  -49.9428 C.2       14 UNK         0.5000 
     83 O          -4.0772  -21.0652  -51.1309 O.2       14 UNK        -0.5000 
     84 N          -4.4990  -20.6117  -48.9485 N.am      15 UNK        -0.5000 
     85 CA         -5.7471  -19.8597  -49.1029 C.3       15 UNK         0.1400 
     86 CB         -6.2265  -19.4056  -47.7150 C.3       15 UNK        -0.1800 
     87 C          -6.8687  -20.6276  -49.8335 C.2       15 UNK         0.5000 
     88 O          -7.7402  -19.9963  -50.4314 O.2       15 UNK        -0.5000 
     89 N          -6.8162  -21.9670  -49.7990 N.am      16 UNK        -0.5000 
     90 CA         -7.7379  -22.8601  -50.5011 C.3       16 UNK         0.1400 
     91 CB         -7.5797  -24.2777  -49.9300 C.3       16 UNK        -0.1800 
     92 C          -7.5504  -22.8750  -52.0333 C.2       16 UNK         0.5000 
     93 O          -8.4636  -23.3066  -52.7384 O.2       16 UNK        -0.5000 
     94 N          -6.3908  -22.4205  -52.5275 N.am      17 UNK        -0.5000 
     95 CA         -6.0401  -22.3917  -53.9472 C.3       17 UNK         0.1400 
     96 CB         -5.3979  -23.7310  -54.3508 C.3       17 UNK        -0.1800 
     97 C          -5.1408  -21.1807  -54.2440 C.2       17 UNK         0.5000 
     98 O          -4.1509  -21.3131  -54.9701 O.2       17 UNK        -0.5000 
     99 N          -5.5033  -20.0353  -53.6478 N.am      18 UNK        -0.5000 
    100 CA        -4.7702  -18.7687  -53.6134 C.3       18 UNK         0.1400 
    101 CB        -5.6444  -17.7222  -52.9026 C.3       18 UNK        -0.1800 
    102 C         -4.3383  -18.2726  -55.0051 C.2       18 UNK         0.5000 
    103 O         -5.1669  -17.7508  -55.7534 O.2       18 UNK        -0.5000 
    104 N         -3.0550  -18.4889  -55.3269 N.am      19 UNK        -0.5000 
    105 CA        -2.3858  -18.1975  -56.6011 C.3       19 UNK         0.1400 
    106 CB        -2.3672  -16.6798  -56.8782 C.3       19 UNK        -0.1800 
    107 C         -2.9229  -19.0138  -57.7994 C.2       19 UNK         0.5000 
    108 O         -2.6293  -18.6694  -58.9456 O.2       19 UNK        -0.5000 
    109 N         -3.6827  -20.0814  -57.5228 N.am      20 UNK        -0.5000 
    110 CA        -4.2883  -20.9657  -58.5141 C.3       20 UNK         0.1400 
    111 CB        -5.7709  -21.1802  -58.1665 C.3       20 UNK        -0.1800 
    112 C         -3.5458  -22.3075  -58.5717 C.2       20 UNK         0.5000 
    113 O         -3.2233  -22.7696  -59.6670 O.2       20 UNK        -0.5000 
    114 N         -3.2805  -22.9065  -57.4022 N.am      21 UNK        -0.5000 
    115 CA        -2.6286  -24.2137  -57.2758 C.3       21 UNK         0.1400 
    116 CB        -3.6252  -25.3494  -57.5933 C.3       21 UNK        -0.1800 
    117 C         -1.9450  -24.3902  -55.9070 C.2       21 UNK         0.5000 
    118 O         -1.7512  -25.5229  -55.4631 O.2       21 UNK        -0.5000 
    119 N         -1.5853  -23.2766  -55.2565 N.am      22 UNK        -0.5000 
    120 CA        -0.8736  -23.2512  -53.9677 C.3       22 UNK         0.1400 
    121 C          0.6277  -23.6676  -54.0261 C.2       22 UNK         0.5000 
    122 N          1.2446  -23.7847  -55.1959 N.am      22 UNK        -0.7600 
    123 O          1.2409  -23.8979  -52.9878 O.2       22 UNK        -0.5000 
    124 C124       -1.0638  -21.8988  -53.2366 C.3       23 UNK        -0.0398 
    125 S125       -0.5574  -20.4502  -54.2260 S.3       23 UNK        -0.2404 
    126 C126        0.9445  -19.8891  -53.3485 C.3       23 UNK        -0.0205 
    127 H127       -6.7493  -15.0559  -47.4063 H         1 UNK         0.0600 
    128 H128       -6.5382  -14.1963  -45.8781 H         1 UNK         0.0600 
    129 H129       -6.3752  -13.3301  -47.4093 H         1 UNK         0.0600 
    130 H130       -4.9854  -16.2875  -47.9529 H         1 UNK         0.3000 
    131 H131       -2.3654  -15.3232  -48.1624 H         1 UNK         0.0600 
    132 H132       -1.7977  -17.8105  -48.6016 H         1 UNK         0.0800 
    133 H133       -3.4459  -18.1716  -48.2382 H         1 UNK         0.0800 
    134 H134       -1.5027  -15.3781  -50.4114 H         1 UNK         0.0800 
    135 H135       -1.9517  -15.9133  -52.0055 H         1 UNK         0.0800 
    136 H136       -1.1194  -18.0848  -52.9016 H         1 UNK         0.1150 
    137 H137        2.4833  -19.6132  -51.1301 H         1 UNK         0.1150 
    138 H138        0.2635  -16.5199  -49.1707 H         1 UNK         0.1150 
    139 H139        3.5184  -17.9951  -49.3801 H         1 UNK         0.0800 
    140 H140        2.4447  -17.0731  -48.3638 H         1 UNK         0.0800 
    141 H141        0.2209  -18.5586  -47.5357 H         1 UNK         0.0800 
    142 H142        1.0860  -18.3792  -46.0362 H         1 UNK         0.0800 
    143 H143        0.1654  -21.0320  -47.2099 H         1 UNK         0.0600 
    144 H144        1.8083  -20.5575  -44.9131 H         1 UNK         0.3000 
    145 H145        1.3020  -23.1227  -43.1439 H         1 UNK         0.0600 
    146 H146        2.9999  -24.8876  -43.6969 H         1 UNK         0.0600 
    147 H147        1.4699  -25.1253  -44.5236 H         1 UNK         0.0600 
    148 H148        2.8434  -24.4833  -45.4071 H         1 UNK         0.0600 
    149 H149        2.9722  -21.7783  -42.7729 H         1 UNK         0.3000 
    150 H150        6.0401  -21.5316  -43.5639 H         1 UNK         0.0600 
    151 H151        6.0610  -20.2353  -45.6482 H         1 UNK         0.0600 
    152 H152        6.2800  -19.1329  -44.2999 H         1 UNK         0.0600 
    153 H153        4.7183  -19.2391  -45.1116 H         1 UNK         0.0600 
    154 H154        3.9884  -19.5601  -42.7045 H         1 UNK         0.3000 
    155 H155        3.7568  -20.8605  -39.4720 H         1 UNK         0.0600 
    156 H156        5.3476  -18.3204  -40.1118 H         1 UNK         0.0600 
    157 H157        5.8284  -19.5989  -39.0057 H         1 UNK         0.0600 
    158 H158        4.4340  -18.5983  -38.6287 H         1 UNK         0.0600 
    159 H159        2.9028  -18.3836  -40.6701 H         1 UNK         0.3000 
    160 H160        0.1371  -19.6943  -42.4751 H         1 UNK         0.0600 
    161 H161       -1.2459  -18.2339  -41.0184 H         1 UNK         0.0600 
    162 H162        0.0233  -18.2050  -39.7966 H         1 UNK         0.0600 
    163 H163       -0.8185  -19.7068  -40.1626 H         1 UNK         0.0600 
    164 H164        0.7533  -17.0164  -41.8807 H         1 UNK         0.3000 
    165 H165        3.7060  -16.4970  -43.5684 H         1 UNK         0.0600 
    166 H166        2.4235  -16.4651  -45.6708 H         1 UNK         0.0600 
    167 H167        1.0648  -15.6867  -44.8721 H         1 UNK         0.0600 
    168 H168        2.5982  -14.8354  -45.0486 H         1 UNK         0.0600 
    169 H169        1.5608  -14.7903  -42.5766 H         1 UNK         0.3000 
    170 H170        1.8507  -14.9422  -39.4573 H         1 UNK         0.0600 
    171 H171        4.2807  -14.7129  -38.9136 H         1 UNK         0.0600 
    172 H172        4.4203  -13.3673  -40.0395 H         1 UNK         0.0600 
    173 H173        3.4360  -13.2140  -38.5857 H         1 UNK         0.0600 
    174 H174        1.9661  -13.0672  -41.6962 H         1 UNK         0.3000 
    175 H175       -0.5815  -10.9928  -40.2516 H         1 UNK         0.0600 
    176 H176        0.8302   -9.2757  -41.3478 H         1 UNK         0.0600 
    177 H177        1.5895   -9.8349  -39.8661 H         1 UNK         0.0600 
    178 H178        2.1897  -10.3965  -41.4214 H         1 UNK         0.0600 
    179 H179        0.5420  -11.4604  -42.9055 H         1 UNK         0.3000 
    180 H180       -2.1061  -12.1456  -44.3629 H         1 UNK         0.0600 
    181 H181        0.7218  -13.3268  -44.3109 H         1 UNK         0.0600 
    182 H182        0.2509  -11.7247  -44.8760 H         1 UNK         0.0600 
    183 H183       -0.2480  -13.1477  -45.7670 H         1 UNK         0.0600 
    184 H184       -2.7520  -14.2236  -44.6975 H         1 UNK         0.3000 
    185 H185       -1.5807  -17.4256  -43.8539 H         1 UNK         0.0600 
    186 H186       -4.1973  -16.1252  -42.9154 H         1 UNK         0.0600 
    187 H187       -3.9050  -17.8537  -43.0938 H         1 UNK         0.0600 
    188 H188       -3.0472  -16.9376  -41.8663 H         1 UNK         0.0600 
    189 H189       -3.8670  -16.5037  -45.3120 H         1 UNK         0.3000 
    190 H190       -0.8214  -20.9354  -44.0512 H         1 UNK         0.3000 
    191 H191       -3.4600  -19.7918  -44.3743 H         1 UNK         0.0600 
    192 H192       -2.3778  -21.9152  -42.4426 H         1 UNK         0.0600 
    193 H193       -3.9642  -21.1612  -42.3302 H         1 UNK         0.0600 
    194 H194       -2.5211  -20.1849  -42.1265 H         1 UNK         0.0600 
    195 H195       -1.9404  -22.8851  -45.2645 H         1 UNK         0.3000 
    196 H196       -4.4738  -24.1544  -46.0262 H         1 UNK         0.0600 
    197 H197       -3.0022  -25.9815  -46.7902 H         1 UNK         0.0600 
    198 H198       -2.5567  -25.5049  -45.1587 H         1 UNK         0.0600 
    199 H199       -1.5703  -24.9961  -46.5290 H         1 UNK         0.0600 
    200 H200       -1.9413  -22.1974  -47.5182 H         1 UNK         0.3000 
    201 H201       -2.4388  -22.7760  -50.2540 H         1 UNK         0.0600 
    202 H202       -0.3590  -21.6513  -49.5533 H         1 UNK         0.0600 
    203 H203       -1.2643  -20.2547  -48.9627 H         1 UNK         0.0600 
    204 H204       -1.2343  -20.5986  -50.6573 H         1 UNK         0.0600 
    205 H205       -4.1587  -20.7317  -48.0048 H         1 UNK         0.3000 
    206 H206       -5.5222  -18.9729  -49.6965 H         1 UNK         0.0600 
    207 H207       -5.4714  -18.8111  -47.2016 H         1 UNK         0.0600 
    208 H208       -7.1246  -18.7915  -47.7933 H         1 UNK         0.0600 
    209 H209       -6.4667  -20.2579  -47.0779 H         1 UNK         0.0600 
    210 H210       -6.0539  -22.4091  -49.3012 H         1 UNK         0.3000 
    211 H211       -8.7571  -22.5236  -50.2999 H         1 UNK         0.0600 
    212 H212       -6.5788  -24.6724  -50.1090 H         1 UNK         0.0600 
    213 H213       -8.2907  -24.9664  -50.3881 H         1 UNK         0.0600 
    214 H214       -7.7591  -24.2937  -48.8548 H         1 UNK         0.0600 
    215 H215       -5.6872  -22.0467  -51.8964 H         1 UNK         0.3000 
    216 H216       -6.9434  -22.2504  -54.5441 H         1 UNK         0.0600 
    217 H217       -5.2049  -23.7547  -55.4219 H         1 UNK         0.0600 
    218 H218       -6.0533  -24.5718  -54.1240 H         1 UNK         0.0600 
    219 H219       -4.4504  -23.8938  -53.8354 H         1 UNK         0.0600 
    220 H220       -6.3413  -20.0594  -53.0859 H         1 UNK         0.3000 
    221 H221       -3.8760  -18.9260  -53.0063 H         1 UNK         0.0600 
    222 H222       -6.5923  -17.5681  -53.4196 H         1 UNK         0.0600 
    223 H223       -5.8686  -18.0239  -51.8801 H         1 UNK         0.0600 
    224 H224       -5.1367  -16.7581  -52.8524 H         1 UNK         0.0600 
    225 H225       -2.4846  -18.9984  -54.6644 H         1 UNK         0.3000 
    226 H226       -1.3501  -18.5139  -56.4724 H         1 UNK         0.0600 
    227 H227       -3.3627  -16.2951  -57.1006 H         1 UNK         0.0600 
    228 H228       -1.7300  -16.4450  -57.7315 H         1 UNK         0.0600 
    229 H229       -1.9765  -16.1280  -56.0232 H         1 UNK         0.0600 
    230 H230       -3.8469  -20.3152  -56.5480 H         1 UNK         0.3000 
    231 H231       -4.2422  -20.5137  -59.5070 H         1 UNK         0.0600 
    232 H232       -5.8992  -21.6602  -57.1964 H         1 UNK         0.0600 
    233 H233       -6.2572  -21.8119  -58.9109 H         1 UNK         0.0600 
    234 H234       -6.3085  -20.2321  -58.1426 H         1 UNK         0.0600 
    235 H235       -3.5790  -22.4647  -56.5383 H         1 UNK         0.3000 
    236 H236       -1.8204  -24.2637  -58.0084 H         1 UNK         0.0600 
    237 H237       -4.0619  -25.2341  -58.5851 H         1 UNK         0.0600 
    238 H238       -3.1313  -26.3216  -57.5771 H         1 UNK         0.0600 
    239 H239       -4.4408  -25.3860  -56.8721 H         1 UNK         0.0600 
    240 H240       -1.7563  -22.3751  -55.6769 H         1 UNK         0.3000 
    241 H241       -1.3473  -24.0056  -53.3363 H         1 UNK         0.0600 
    242 H242        2.2137  -24.0600  -55.2201 H         1 UNK         0.3800 
    243 H243        0.7573  -23.5900  -56.0551 H         1 UNK         0.3800 
    244 H244       -2.1157  -21.7702  -52.9780 H         1 UNK         0.0800 
    245 H245       -0.5226  -21.9081  -52.2913 H         1 UNK         0.0800 
    246 H246        1.5618  -19.3377  -54.0586 H         1 UNK         0.0800 
    247 H247        1.5294  -20.7610  -53.0512 H         1 UNK         0.0800 
@<TRIPOS>BOND
     1    1    2 1    
     2    1  127 1    
     3    1  128 1    
     4    1  129 1    
     5    2    3 2    
     6    2    4 am   BACKBONE|DICT|INTERRES
     7    4    5 1    
     8    4  130 1    
     9    5    6 1    
    10    5   65 1    
    11    5  131 1    
    12    6    7 1    
    13    6  132 1    
    14    6  133 1    
    15    7    8 1    
    16    8    9 1    
    17    8  134 1    
    18    8  135 1    
    19    9   10 ar   
    20    9   14 ar   
    21   10   11 ar   
    22   10  136 1    
    23   11   12 ar   
    24   11  126 1    
    25   12   13 ar   
    26   12  137 1    
    27   13   14 ar   
    28   13   15 1    
    29   14  138 1    
    30   15   16 1    
    31   15  139 1    
    32   15  140 1    
    33   16   17 1    
    34   17   18 1    
    35   17  141 1    
    36   17  142 1    
    37   18   19 1    
    38   18   67 1    
    39   18  143 1    
    40   19   20 am   BACKBONE|DICT|INTERRES
    41   19  144 1    
    42   20   21 2    
    43   20   22 1    
    44   22   23 1    
    45   22   24 1    
    46   22  145 1    
    47   23  146 1    
    48   23  147 1    
    49   23  148 1    
    50   24   25 am   BACKBONE|DICT|INTERRES
    51   24  149 1    
    52   25   26 2    
    53   25   27 1    
    54   27   28 1    
    55   27   29 1    
    56   27  150 1    
    57   28  151 1    
    58   28  152 1    
    59   28  153 1    
    60   29   30 am   BACKBONE|DICT|INTERRES
    61   29  154 1    
    62   30   31 2    
    63   30   32 1    
    64   32   33 1    
    65   32   34 1    
    66   32  155 1    
    67   33  156 1    
    68   33  157 1    
    69   33  158 1    
    70   34   35 am   BACKBONE|DICT|INTERRES
    71   34  159 1    
    72   35   36 2    
    73   35   37 1    
    74   37   38 1    
    75   37   39 1    
    76   37  160 1    
    77   38  161 1    
    78   38  162 1    
    79   38  163 1    
    80   39   40 am   BACKBONE|DICT|INTERRES
    81   39  164 1    
    82   40   41 2    
    83   40   42 1    
    84   42   43 1    
    85   42   44 1    
    86   42  165 1    
    87   43  166 1    
    88   43  167 1    
    89   43  168 1    
    90   44   45 am   BACKBONE|DICT|INTERRES
    91   44  169 1    
    92   45   46 2    
    93   45   47 1    
    94   47   48 1    
    95   47   49 1    
    96   47  170 1    
    97   48  171 1    
    98   48  172 1    
    99   48  173 1    
   100   49   50 am   BACKBONE|DICT|INTERRES
   101   49  174 1    
   102   50   51 2    
   103   50   52 1    
   104   52   53 1    
   105   52   54 1    
   106   52  175 1    
   107   53  176 1    
   108   53  177 1    
   109   53  178 1    
   110   54   55 am   BACKBONE|DICT|INTERRES
   111   54  179 1    
   112   55   56 2    
   113   55   57 1    
   114   57   58 1    
   115   57   59 1    
   116   57  180 1    
   117   58  181 1    
   118   58  182 1    
   119   58  183 1    
   120   59   60 am   BACKBONE|DICT|INTERRES
   121   59  184 1    
   122   60   61 2    
   123   60   62 1    
   124   62   63 1    
   125   62   64 1    
   126   62  185 1    
   127   63  186 1    
   128   63  187 1    
   129   63  188 1    
   130   64   65 am   BACKBONE|DICT|INTERRES
   131   64  189 1    
   132   65   66 2    
   133   67   68 2    
   134   67   69 am   BACKBONE|DICT|INTERRES
   135   69   70 1    
   136   69  190 1    
   137   70   71 1    
   138   70   72 1    
   139   70  191 1    
   140   71  192 1    
   141   71  193 1    
   142   71  194 1    
   143   72   73 2    
   144   72   74 am   BACKBONE|DICT|INTERRES
   145   74   75 1    
   146   74  195 1    
   147   75   76 1    
   148   75   77 1    
   149   75  196 1    
   150   76  197 1    
   151   76  198 1    
   152   76  199 1    
   153   77   78 2    
   154   77   79 am   BACKBONE|DICT|INTERRES
   155   79   80 1    
   156   79  200 1    
   157   80   81 1    
   158   80   82 1    
   159   80  201 1    
   160   81  202 1    
   161   81  203 1    
   162   81  204 1    
   163   82   83 2    
   164   82   84 am   BACKBONE|DICT|INTERRES
   165   84   85 1    
   166   84  205 1    
   167   85   86 1    
   168   85   87 1    
   169   85  206 1    
   170   86  207 1    
   171   86  208 1    
   172   86  209 1    
   173   87   88 2    
   174   87   89 am   BACKBONE|DICT|INTERRES
   175   89   90 1    
   176   89  210 1    
   177   90   91 1    
   178   90   92 1    
   179   90  211 1    
   180   91  212 1    
   181   91  213 1    
   182   91  214 1    
   183   92   93 2    
   184   92   94 am   BACKBONE|DICT|INTERRES
   185   94   95 1    
   186   94  215 1    
   187   95   96 1    
   188   95   97 1    
   189   95  216 1    
   190   96  217 1    
   191   96  218 1    
   192   96  219 1    
   193   97   98 2    
   194   97   99 am   BACKBONE|DICT|INTERRES
   195   99  100 1    
   196   99  220 1    
   197  100  101 1    
   198  100  102 1    
   199  100  221 1    
   200  101  222 1    
   201  101  223 1    
   202  101  224 1    
   203  102  103 2    
   204  102  104 am   BACKBONE|DICT|INTERRES
   205  104  105 1    
   206  104  225 1    
   207  105  106 1    
   208  105  107 1    
   209  105  226 1    
   210  106  227 1    
   211  106  228 1    
   212  106  229 1    
   213  107  108 2    
   214  107  109 am   BACKBONE|DICT|INTERRES
   215  109  110 1    
   216  109  230 1    
   217  110  111 1    
   218  110  112 1    
   219  110  231 1    
   220  111  232 1    
   221  111  233 1    
   222  111  234 1    
   223  112  113 2    
   224  112  114 am   BACKBONE|DICT|INTERRES
   225  114  115 1    
   226  114  235 1    
   227  115  116 1    
   228  115  117 1    
   229  115  236 1    
   230  116  237 1    
   231  116  238 1    
   232  116  239 1    
   233  117  118 2    
   234  117  119 am   BACKBONE|DICT|INTERRES
   235  119  120 1    
   236  119  240 1    
   237  120  121 1    
   238  120  124 1    
   239  120  241 1    
   240  121  122 am   BACKBONE|DICT|INTERRES
   241  121  123 2    
   242  122  242 1    
   243  122  243 1    
   244  124  125 1    
   245  124  244 1    
   246  124  245 1    
   247  125  126 1    
   248  126  246 1    
   249  126  247 1    
@<TRIPOS>SUBSTRUCTURE
     1 UNK         1 GROUP             0       ****    0 ROOT    
