@<TRIPOS>MOLECULE
3R540
247   249    1
SMALL
USER_CHARGES


@<TRIPOS>ATOM
      1 CA          4.7282  -14.1297  -47.1301 C.3       0 UNK        -0.1800 
      2 C           3.6803  -14.4811  -48.1757 C.2       0 UNK         0.5000 
      3 O           4.0064  -15.1222  -49.1746 O.2       0 UNK        -0.5000 
      4 N           2.4230  -14.0768  -47.9458 N.am      1 UNK        -0.5000 
      5 CA          1.2871  -14.2427  -48.8674 C.3       1 UNK         0.1400 
      6 C6          0.0380  -13.4851  -48.3525 C.3       23 UNK        -0.0398 
      7 S7         -1.1064  -12.9860  -49.6811 S.3       23 UNK        -0.2404 
      8 C8         -2.5703  -12.5135  -48.7080 C.3       23 UNK        -0.0205 
      9 C9         -3.6140  -13.6210  -48.6575 C.ar      23 UNK        -0.0193 
     10 C10        -4.7299  -13.5633  -49.4981 C.ar      23 UNK        -0.1150 
     11 C11        -5.7300  -14.5365  -49.4236 C.ar      23 UNK        -0.0193 
     12 C12        -5.6024  -15.5812  -48.5038 C.ar      23 UNK        -0.1150 
     13 C13        -4.4797  -15.6672  -47.6746 C.ar      23 UNK        -0.0193 
     14 C14        -3.4922  -14.6795  -47.7509 C.ar      23 UNK        -0.1150 
     15 C15        -4.3514  -16.8098  -46.6776 C.3       23 UNK        -0.0205 
     16 S16        -4.2118  -18.4230  -47.5098 S.3       23 UNK        -0.2404 
     17 C17        -4.0310  -19.5413  -46.0818 C.3       23 UNK        -0.0398 
     18 CA         -2.9063  -20.5914  -46.3049 C.3       11 UNK         0.1400 
     19 N          -1.9703  -20.6539  -45.1758 N.am      11 UNK        -0.5000 
     20 C          -0.9310  -21.4904  -45.0366 C.2       10 UNK         0.5000 
     21 O          -0.6549  -22.3771  -45.8436 O.2       10 UNK        -0.5000 
     22 CA         -0.0544  -21.3360  -43.7806 C.3       10 UNK         0.1400 
     23 CB          1.2527  -20.6080  -44.1191 C.3       10 UNK        -0.1800 
     24 N          -0.7139  -20.6450  -42.6722 N.am      10 UNK        -0.5000 
     25 C          -1.7383  -21.1383  -41.9622 C.2       9 UNK         0.5000 
     26 O          -2.2638  -22.2301  -42.1835 O.2       9 UNK        -0.5000 
     27 CA         -2.2763  -20.2464  -40.8320 C.3       9 UNK         0.1400 
     28 CB         -1.3724  -20.3303  -39.5919 C.3       9 UNK        -0.1800 
     29 N          -2.3812  -18.8538  -41.2649 N.am      9 UNK        -0.5000 
     30 C          -3.4166  -18.3548  -41.9541 C.2       8 UNK         0.5000 
     31 O          -4.4195  -19.0048  -42.2497 O.2       8 UNK        -0.5000 
     32 CA         -3.3080  -16.8861  -42.4093 C.3       8 UNK         0.1400 
     33 CB         -3.8756  -15.9449  -41.3366 C.3       8 UNK        -0.1800 
     34 N          -1.9394  -16.4777  -42.7323 N.am      8 UNK        -0.5000 
     35 C          -1.2234  -16.9769  -43.7483 C.2       7 UNK         0.5000 
     36 O          -1.6419  -17.8341  -44.5210 O.2       7 UNK        -0.5000 
     37 CA          0.2170  -16.4669  -43.9059 C.3       7 UNK         0.1400 
     38 CB          0.2458  -15.1987  -44.7694 C.3       7 UNK        -0.1800 
     39 N           0.9114  -16.2221  -42.6426 N.am      7 UNK        -0.5000 
     40 C           1.1287  -17.1316  -41.6829 C.2       6 UNK         0.5000 
     41 O           0.6256  -18.2573  -41.6856 O.2       6 UNK        -0.5000 
     42 CA          2.1070  -16.7155  -40.5652 C.3       6 UNK         0.1400 
     43 CB          2.3738  -17.8518  -39.5618 C.3       6 UNK        -0.1800 
     44 N           3.3825  -16.2814  -41.1392 N.am      6 UNK        -0.5000 
     45 C           3.6379  -15.0638  -41.6380 C.2       5 UNK         0.5000 
     46 O           2.8395  -14.1275  -41.5880 O.2       5 UNK        -0.5000 
     47 CA          4.9785  -14.8862  -42.3748 C.3       5 UNK         0.1400 
     48 CB          6.0885  -14.4854  -41.3915 C.3       5 UNK        -0.1800 
     49 N           5.3887  -16.0876  -43.1088 N.am      5 UNK        -0.5000 
     50 C           4.7478  -16.5803  -44.1770 C.2       4 UNK         0.5000 
     51 O           3.7386  -16.0729  -44.6751 O.2       4 UNK        -0.5000 
     52 CA          5.3188  -17.8689  -44.7795 C.3       4 UNK         0.1400 
     53 CB          4.7892  -19.1000  -44.0248 C.3       4 UNK        -0.1800 
     54 N           4.9149  -17.9316  -46.1778 N.am      4 UNK        -0.5000 
     55 C           5.5227  -18.6211  -47.1485 C.2       3 UNK         0.5000 
     56 O           6.5205  -19.3191  -46.9588 O.2       3 UNK        -0.5000 
     57 CA          4.9378  -18.4828  -48.5726 C.3       3 UNK         0.1400 
     58 CB          5.1490  -19.7479  -49.4320 C.3       3 UNK        -0.1800 
     59 N           3.5327  -18.0548  -48.6074 N.am      3 UNK        -0.5000 
     60 C           2.4654  -18.7315  -48.1536 C.2       2 UNK         0.5000 
     61 O           2.5376  -19.8248  -47.5950 O.2       2 UNK        -0.5000 
     62 CA          1.0930  -18.0596  -48.3486 C.3       2 UNK         0.1400 
     63 CB          0.0319  -18.5846  -47.3706 C.3       2 UNK        -0.1800 
     64 N           1.2057  -16.6082  -48.2093 N.am      2 UNK        -0.5000 
     65 C           0.9641  -15.7217  -49.1838 C.2       1 UNK         0.5000 
     66 O           0.5515  -16.0287  -50.3016 O.2       1 UNK        -0.5000 
     67 C          -3.5032  -21.9563  -46.7001 C.2       11 UNK         0.5000 
     68 O          -3.5596  -22.2687  -47.8886 O.2       11 UNK        -0.5000 
     69 N          -3.9013  -22.7523  -45.6994 N.am      12 UNK        -0.5000 
     70 CA         -4.4802  -24.0822  -45.8909 C.3       12 UNK         0.1400 
     71 CB         -5.2258  -24.4867  -44.6101 C.3       12 UNK        -0.1800 
     72 C          -3.4390  -25.1545  -46.2661 C.2       12 UNK         0.5000 
     73 O          -3.7896  -26.1230  -46.9403 O.2       12 UNK        -0.5000 
     74 N          -2.1896  -24.9756  -45.8181 N.am      13 UNK        -0.5000 
     75 CA         -1.0893  -25.9141  -46.0368 C.3       13 UNK         0.1400 
     76 CB         -0.0767  -25.7837  -44.8875 C.3       13 UNK        -0.1800 
     77 C          -0.4059  -25.6828  -47.3937 C.2       13 UNK         0.5000 
     78 O          -0.1563  -26.6410  -48.1254 O.2       13 UNK        -0.5000 
     79 N          -0.1252  -24.4118  -47.7050 N.am      14 UNK        -0.5000 
     80 CA          0.5471  -23.9759  -48.9292 C.3       14 UNK         0.1400 
     81 CB          1.3098  -22.6771  -48.6236 C.3       14 UNK        -0.1800 
     82 C          -0.4225  -23.7534  -50.1039 C.2       14 UNK         0.5000 
     83 O           0.0354  -23.4522  -51.2073 O.2       14 UNK        -0.5000 
     84 N          -1.7362  -23.8371  -49.8438 N.am      15 UNK        -0.5000 
     85 CA         -2.8393  -23.5337  -50.7620 C.3       15 UNK         0.1400 
     86 CB         -2.9154  -24.5764  -51.8963 C.3       15 UNK        -0.1800 
     87 C          -2.7644  -22.0845  -51.2830 C.2       15 UNK         0.5000 
     88 O          -2.9539  -21.8494  -52.4762 O.2       15 UNK        -0.5000 
     89 N          -2.4748  -21.1444  -50.3717 N.am      16 UNK        -0.5000 
     90 CA         -2.2195  -19.7182  -50.6168 C.3       16 UNK         0.1400 
     91 CB         -3.5027  -19.0049  -51.0882 C.3       16 UNK        -0.1800 
     92 C          -1.0180  -19.4828  -51.5592 C.2       16 UNK         0.5000 
     93 O          -1.0709  -18.6063  -52.4207 O.2       16 UNK        -0.5000 
     94 N           0.0336  -20.2984  -51.3789 N.am      17 UNK        -0.5000 
     95 CA          1.2318  -20.3996  -52.2202 C.3       17 UNK         0.1400 
     96 CB          2.0669  -19.1018  -52.1790 C.3       17 UNK        -0.1800 
     97 C           0.8805  -20.8623  -53.6494 C.2       17 UNK         0.5000 
     98 O           1.2530  -20.2101  -54.6266 O.2       17 UNK        -0.5000 
     99 N           0.1567  -21.9896  -53.7231 N.am      18 UNK        -0.5000 
    100 CA        -0.3487  -22.6473  -54.9325 C.3       18 UNK         0.1400 
    101 CB         0.8150  -23.2344  -55.7582 C.3       18 UNK        -0.1800 
    102 C         -1.2907  -21.7461  -55.7610 C.2       18 UNK         0.5000 
    103 O         -1.1238  -21.6163  -56.9755 O.2       18 UNK        -0.5000 
    104 N         -2.2740  -21.1491  -55.0794 N.am      19 UNK        -0.5000 
    105 CA        -3.3096  -20.2841  -55.6432 C.3       19 UNK         0.1400 
    106 CB        -3.0166  -18.8201  -55.2715 C.3       19 UNK        -0.1800 
    107 C         -4.7025  -20.7525  -55.1810 C.2       19 UNK         0.5000 
    108 O         -5.5733  -19.9273  -54.8993 O.2       19 UNK        -0.5000 
    109 N         -4.8800  -22.0808  -55.0965 N.am      20 UNK        -0.5000 
    110 CA        -6.1249  -22.8034  -54.7984 C.3       20 UNK         0.1400 
    111 CB        -7.1074  -22.6667  -55.9802 C.3       20 UNK        -0.1800 
    112 C         -6.7752  -22.4354  -53.4455 C.2       20 UNK         0.5000 
    113 O         -7.9969  -22.5174  -53.3124 O.2       20 UNK        -0.5000 
    114 N         -5.9445  -22.0348  -52.4715 N.am      21 UNK        -0.5000 
    115 CA        -6.3180  -21.5458  -51.1375 C.3       21 UNK         0.1400 
    116 CB        -7.0354  -22.6345  -50.3122 C.3       21 UNK        -0.1800 
    117 C         -7.0664  -20.1951  -51.1595 C.2       21 UNK         0.5000 
    118 O         -7.7785  -19.8793  -50.2049 O.2       21 UNK        -0.5000 
    119 N         -6.8469  -19.4011  -52.2183 N.am      22 UNK        -0.5000 
    120 CA        -7.3963  -18.0528  -52.4195 C.3       22 UNK         0.1400 
    121 C         -8.9372  -18.0328  -52.6743 C.2       22 UNK         0.5000 
    122 N         -9.5730  -16.8696  -52.6343 N.am      22 UNK        -0.7600 
    123 O         -9.5653  -19.0516  -52.9544 O.2       22 UNK        -0.5000 
    124 C124       -6.9213  -17.0708  -51.3071 C.3       23 UNK        -0.0398 
    125 S125       -6.7344  -15.3491  -51.8809 S.3       23 UNK        -0.2404 
    126 C126       -6.9570  -14.4399  -50.3194 C.3       23 UNK        -0.0205 
    127 H127        4.2747  -13.7526  -46.2130 H         1 UNK         0.0600 
    128 H128        5.4023  -13.3664  -47.5183 H         1 UNK         0.0600 
    129 H129        5.3197  -15.0096  -46.8787 H         1 UNK         0.0600 
    130 H130        2.2298  -13.5592  -47.1003 H         1 UNK         0.3000 
    131 H131        1.5994  -13.7812  -49.8069 H         1 UNK         0.0600 
    132 H132        0.3406  -12.5654  -47.8494 H         1 UNK         0.0800 
    133 H133       -0.4962  -14.0704  -47.6055 H         1 UNK         0.0800 
    134 H134       -3.0024  -11.6164  -49.1542 H         1 UNK         0.0800 
    135 H135       -2.2798  -12.2287  -47.6956 H         1 UNK         0.0800 
    136 H136       -4.8293  -12.7492  -50.2025 H         1 UNK         0.1150 
    137 H137       -6.3733  -16.3357  -48.4346 H         1 UNK         0.1150 
    138 H138       -2.6358  -14.7289  -47.0947 H         1 UNK         0.1150 
    139 H139       -3.4796  -16.6608  -46.0398 H         1 UNK         0.0800 
    140 H140       -5.2227  -16.8143  -46.0213 H         1 UNK         0.0800 
    141 H141       -5.0013  -20.0006  -45.8817 H         1 UNK         0.0800 
    142 H142       -3.8300  -18.9411  -45.1952 H         1 UNK         0.0800 
    143 H143       -2.2975  -20.2800  -47.1535 H         1 UNK         0.0600 
    144 H144       -2.0421  -19.8945  -44.5091 H         1 UNK         0.3000 
    145 H145        0.1992  -22.3433  -43.4442 H         1 UNK         0.0600 
    146 H146        1.9310  -20.6099  -43.2659 H         1 UNK         0.0600 
    147 H147        1.7710  -21.0882  -44.9508 H         1 UNK         0.0600 
    148 H148        1.0729  -19.5715  -44.3998 H         1 UNK         0.0600 
    149 H149       -0.3180  -19.7497  -42.3974 H         1 UNK         0.3000 
    150 H150       -3.2661  -20.6136  -40.5520 H         1 UNK         0.0600 
    151 H151       -1.2979  -21.3579  -39.2339 H         1 UNK         0.0600 
    152 H152       -1.7699  -19.7293  -38.7740 H         1 UNK         0.0600 
    153 H153       -0.3602  -19.9826  -39.8012 H         1 UNK         0.0600 
    154 H154       -1.5653  -18.2735  -41.1229 H         1 UNK         0.3000 
    155 H155       -3.9121  -16.7770  -43.3126 H         1 UNK         0.0600 
    156 H156       -3.2953  -15.9887  -40.4141 H         1 UNK         0.0600 
    157 H157       -4.9049  -16.2094  -41.0902 H         1 UNK         0.0600 
    158 H158       -3.8813  -14.9109  -41.6820 H         1 UNK         0.0600 
    159 H159       -1.5128  -15.7834  -42.1366 H         1 UNK         0.3000 
    160 H160        0.7842  -17.2378  -44.4276 H         1 UNK         0.0600 
    161 H161       -0.2611  -14.3658  -44.2809 H         1 UNK         0.0600 
    162 H162       -0.2525  -15.3762  -45.7222 H         1 UNK         0.0600 
    163 H163        1.2684  -14.8901  -44.9865 H         1 UNK         0.0600 
    164 H164        1.3809  -15.3289  -42.5502 H         1 UNK         0.3000 
    165 H165        1.6508  -15.8863  -40.0205 H         1 UNK         0.0600 
    166 H166        3.0520  -17.5287  -38.7719 H         1 UNK         0.0600 
    167 H167        1.4492  -18.1750  -39.0819 H         1 UNK         0.0600 
    168 H168        2.8147  -18.7236  -40.0471 H         1 UNK         0.0600 
    169 H169        4.0822  -16.9981  -41.2623 H         1 UNK         0.3000 
    170 H170        4.8532  -14.0763  -43.0969 H         1 UNK         0.0600 
    171 H171        5.8181  -13.5803  -40.8458 H         1 UNK         0.0600 
    172 H172        6.2785  -15.2679  -40.6558 H         1 UNK         0.0600 
    173 H173        7.0231  -14.2807  -41.9140 H         1 UNK         0.0600 
    174 H174        6.2113  -16.5634  -42.7667 H         1 UNK         0.3000 
    175 H175        6.4085  -17.8338  -44.7177 H         1 UNK         0.0600 
    176 H176        3.7007  -19.1412  -44.0556 H         1 UNK         0.0600 
    177 H177        5.1709  -20.0262  -44.4547 H         1 UNK         0.0600 
    178 H178        5.0892  -19.0803  -42.9766 H         1 UNK         0.0600 
    179 H179        4.1191  -17.3499  -46.4019 H         1 UNK         0.3000 
    180 H180        5.5017  -17.6757  -49.0422 H         1 UNK         0.0600 
    181 H181        4.6715  -20.6233  -48.9910 H         1 UNK         0.0600 
    182 H182        6.2099  -19.9761  -49.5398 H         1 UNK         0.0600 
    183 H183        4.7455  -19.6152  -50.4357 H         1 UNK         0.0600 
    184 H184        3.3818  -17.1391  -49.0173 H         1 UNK         0.3000 
    185 H185        0.7678  -18.3227  -49.3556 H         1 UNK         0.0600 
    186 H186       -0.1164  -19.6559  -47.5023 H         1 UNK         0.0600 
    187 H187        0.3276  -18.4232  -46.3367 H         1 UNK         0.0600 
    188 H188       -0.9307  -18.0962  -47.5239 H         1 UNK         0.0600 
    189 H189        1.5822  -16.2677  -47.3363 H         1 UNK         0.3000 
    190 H190       -3.7884  -22.4338  -44.7469 H         1 UNK         0.3000 
    191 H191       -5.2071  -24.0299  -46.7046 H         1 UNK         0.0600 
    192 H192       -4.5542  -24.5351  -43.7518 H         1 UNK         0.0600 
    193 H193       -5.6899  -25.4677  -44.7205 H         1 UNK         0.0600 
    194 H194       -6.0199  -23.7775  -44.3755 H         1 UNK         0.0600 
    195 H195       -1.9640  -24.1159  -45.3366 H         1 UNK         0.3000 
    196 H196       -1.4788  -26.9345  -46.0246 H         1 UNK         0.0600 
    197 H197        0.7487  -26.4854  -45.0141 H         1 UNK         0.0600 
    198 H198       -0.5431  -26.0010  -43.9264 H         1 UNK         0.0600 
    199 H199        0.3505  -24.7817  -44.8324 H         1 UNK         0.0600 
    200 H200       -0.3512  -23.6808  -47.0311 H         1 UNK         0.3000 
    201 H201        1.2703  -24.7337  -49.2372 H         1 UNK         0.0600 
    202 H202        2.0123  -22.8152  -47.8014 H         1 UNK         0.0600 
    203 H203        0.6328  -21.8689  -48.3451 H         1 UNK         0.0600 
    204 H204        1.8876  -22.3418  -49.4855 H         1 UNK         0.0600 
    205 H205       -2.0074  -24.0453  -48.8929 H         1 UNK         0.3000 
    206 H206       -3.7618  -23.6093  -50.1852 H         1 UNK         0.0600 
    207 H207       -3.7992  -24.4173  -52.5153 H         1 UNK         0.0600 
    208 H208       -2.9797  -25.5877  -51.4952 H         1 UNK         0.0600 
    209 H209       -2.0451  -24.5315  -52.5510 H         1 UNK         0.0600 
    210 H210       -2.4446  -21.4484  -49.4049 H         1 UNK         0.3000 
    211 H211       -1.9400  -19.2838  -49.6562 H         1 UNK         0.0600 
    212 H212       -3.3450  -17.9291  -51.1744 H         1 UNK         0.0600 
    213 H213       -4.3134  -19.1519  -50.3771 H         1 UNK         0.0600 
    214 H214       -3.8394  -19.3663  -52.0593 H         1 UNK         0.0600 
    215 H215       -0.0601  -21.0244  -50.6845 H         1 UNK         0.3000 
    216 H216        1.8455  -21.1910  -51.7874 H         1 UNK         0.0600 
    217 H217        2.9958  -19.2205  -52.7377 H         1 UNK         0.0600 
    218 H218        2.3387  -18.8383  -51.1590 H         1 UNK         0.0600 
    219 H219        1.5338  -18.2551  -52.6119 H         1 UNK         0.0600 
    220 H220       -0.0649  -22.4602  -52.8491 H         1 UNK         0.3000 
    221 H221       -0.9576  -23.4844  -54.5887 H         1 UNK         0.0600 
    222 H222        1.4568  -22.4543  -56.1686 H         1 UNK         0.0600 
    223 H223        1.4351  -23.8934  -55.1505 H         1 UNK         0.0600 
    224 H224        0.4408  -23.8239  -56.5959 H         1 UNK         0.0600 
    225 H225       -2.3675  -21.3426  -54.0823 H         1 UNK         0.3000 
    226 H226       -3.3115  -20.3612  -56.7321 H         1 UNK         0.0600 
    227 H227       -2.0137  -18.5273  -55.5827 H         1 UNK         0.0600 
    228 H228       -3.7199  -18.1430  -55.7574 H         1 UNK         0.0600 
    229 H229       -3.0926  -18.6567  -54.1972 H         1 UNK         0.0600 
    230 H230       -4.0818  -22.6629  -55.3069 H         1 UNK         0.3000 
    231 H231       -5.8517  -23.8565  -54.7186 H         1 UNK         0.0600 
    232 H232       -6.6364  -22.9536  -56.9203 H         1 UNK         0.0600 
    233 H233       -7.4703  -21.6436  -56.0852 H         1 UNK         0.0600 
    234 H234       -7.9772  -23.3111  -55.8471 H         1 UNK         0.0600 
    235 H235       -4.9567  -21.9768  -52.6976 H         1 UNK         0.3000 
    236 H236       -5.3846  -21.3360  -50.6187 H         1 UNK         0.0600 
    237 H237       -7.1369  -22.3286  -49.2703 H         1 UNK         0.0600 
    238 H238       -8.0375  -22.8383  -50.6896 H         1 UNK         0.0600 
    239 H239       -6.4748  -23.5692  -50.3196 H         1 UNK         0.0600 
    240 H240       -6.3062  -19.7619  -52.9972 H         1 UNK         0.3000 
    241 H241       -6.9524  -17.7335  -53.3631 H         1 UNK         0.0600 
    242 H242      -10.5646  -16.8406  -52.8147 H         1 UNK         0.3800 
    243 H243       -9.0726  -16.0150  -52.4387 H         1 UNK         0.3800 
    244 H244       -7.5936  -17.1140  -50.4488 H         1 UNK         0.0800 
    245 H245       -5.9432  -17.3710  -50.9303 H         1 UNK         0.0800 
    246 H246       -7.8411  -14.8060  -49.7950 H         1 UNK         0.0800 
    247 H247       -7.1600  -13.3935  -50.5525 H         1 UNK         0.0800 
@<TRIPOS>BOND
     1    1    2 1    
     2    1  127 1    
     3    1  128 1    
     4    1  129 1    
     5    2    3 2    
     6    2    4 am   BACKBONE|DICT|INTERRES
     7    4    5 1    
     8    4  130 1    
     9    5    6 1    
    10    5   65 1    
    11    5  131 1    
    12    6    7 1    
    13    6  132 1    
    14    6  133 1    
    15    7    8 1    
    16    8    9 1    
    17    8  134 1    
    18    8  135 1    
    19    9   10 ar   
    20    9   14 ar   
    21   10   11 ar   
    22   10  136 1    
    23   11   12 ar   
    24   11  126 1    
    25   12   13 ar   
    26   12  137 1    
    27   13   14 ar   
    28   13   15 1    
    29   14  138 1    
    30   15   16 1    
    31   15  139 1    
    32   15  140 1    
    33   16   17 1    
    34   17   18 1    
    35   17  141 1    
    36   17  142 1    
    37   18   19 1    
    38   18   67 1    
    39   18  143 1    
    40   19   20 am   BACKBONE|DICT|INTERRES
    41   19  144 1    
    42   20   21 2    
    43   20   22 1    
    44   22   23 1    
    45   22   24 1    
    46   22  145 1    
    47   23  146 1    
    48   23  147 1    
    49   23  148 1    
    50   24   25 am   BACKBONE|DICT|INTERRES
    51   24  149 1    
    52   25   26 2    
    53   25   27 1    
    54   27   28 1    
    55   27   29 1    
    56   27  150 1    
    57   28  151 1    
    58   28  152 1    
    59   28  153 1    
    60   29   30 am   BACKBONE|DICT|INTERRES
    61   29  154 1    
    62   30   31 2    
    63   30   32 1    
    64   32   33 1    
    65   32   34 1    
    66   32  155 1    
    67   33  156 1    
    68   33  157 1    
    69   33  158 1    
    70   34   35 am   BACKBONE|DICT|INTERRES
    71   34  159 1    
    72   35   36 2    
    73   35   37 1    
    74   37   38 1    
    75   37   39 1    
    76   37  160 1    
    77   38  161 1    
    78   38  162 1    
    79   38  163 1    
    80   39   40 am   BACKBONE|DICT|INTERRES
    81   39  164 1    
    82   40   41 2    
    83   40   42 1    
    84   42   43 1    
    85   42   44 1    
    86   42  165 1    
    87   43  166 1    
    88   43  167 1    
    89   43  168 1    
    90   44   45 am   BACKBONE|DICT|INTERRES
    91   44  169 1    
    92   45   46 2    
    93   45   47 1    
    94   47   48 1    
    95   47   49 1    
    96   47  170 1    
    97   48  171 1    
    98   48  172 1    
    99   48  173 1    
   100   49   50 am   BACKBONE|DICT|INTERRES
   101   49  174 1    
   102   50   51 2    
   103   50   52 1    
   104   52   53 1    
   105   52   54 1    
   106   52  175 1    
   107   53  176 1    
   108   53  177 1    
   109   53  178 1    
   110   54   55 am   BACKBONE|DICT|INTERRES
   111   54  179 1    
   112   55   56 2    
   113   55   57 1    
   114   57   58 1    
   115   57   59 1    
   116   57  180 1    
   117   58  181 1    
   118   58  182 1    
   119   58  183 1    
   120   59   60 am   BACKBONE|DICT|INTERRES
   121   59  184 1    
   122   60   61 2    
   123   60   62 1    
   124   62   63 1    
   125   62   64 1    
   126   62  185 1    
   127   63  186 1    
   128   63  187 1    
   129   63  188 1    
   130   64   65 am   BACKBONE|DICT|INTERRES
   131   64  189 1    
   132   65   66 2    
   133   67   68 2    
   134   67   69 am   BACKBONE|DICT|INTERRES
   135   69   70 1    
   136   69  190 1    
   137   70   71 1    
   138   70   72 1    
   139   70  191 1    
   140   71  192 1    
   141   71  193 1    
   142   71  194 1    
   143   72   73 2    
   144   72   74 am   BACKBONE|DICT|INTERRES
   145   74   75 1    
   146   74  195 1    
   147   75   76 1    
   148   75   77 1    
   149   75  196 1    
   150   76  197 1    
   151   76  198 1    
   152   76  199 1    
   153   77   78 2    
   154   77   79 am   BACKBONE|DICT|INTERRES
   155   79   80 1    
   156   79  200 1    
   157   80   81 1    
   158   80   82 1    
   159   80  201 1    
   160   81  202 1    
   161   81  203 1    
   162   81  204 1    
   163   82   83 2    
   164   82   84 am   BACKBONE|DICT|INTERRES
   165   84   85 1    
   166   84  205 1    
   167   85   86 1    
   168   85   87 1    
   169   85  206 1    
   170   86  207 1    
   171   86  208 1    
   172   86  209 1    
   173   87   88 2    
   174   87   89 am   BACKBONE|DICT|INTERRES
   175   89   90 1    
   176   89  210 1    
   177   90   91 1    
   178   90   92 1    
   179   90  211 1    
   180   91  212 1    
   181   91  213 1    
   182   91  214 1    
   183   92   93 2    
   184   92   94 am   BACKBONE|DICT|INTERRES
   185   94   95 1    
   186   94  215 1    
   187   95   96 1    
   188   95   97 1    
   189   95  216 1    
   190   96  217 1    
   191   96  218 1    
   192   96  219 1    
   193   97   98 2    
   194   97   99 am   BACKBONE|DICT|INTERRES
   195   99  100 1    
   196   99  220 1    
   197  100  101 1    
   198  100  102 1    
   199  100  221 1    
   200  101  222 1    
   201  101  223 1    
   202  101  224 1    
   203  102  103 2    
   204  102  104 am   BACKBONE|DICT|INTERRES
   205  104  105 1    
   206  104  225 1    
   207  105  106 1    
   208  105  107 1    
   209  105  226 1    
   210  106  227 1    
   211  106  228 1    
   212  106  229 1    
   213  107  108 2    
   214  107  109 am   BACKBONE|DICT|INTERRES
   215  109  110 1    
   216  109  230 1    
   217  110  111 1    
   218  110  112 1    
   219  110  231 1    
   220  111  232 1    
   221  111  233 1    
   222  111  234 1    
   223  112  113 2    
   224  112  114 am   BACKBONE|DICT|INTERRES
   225  114  115 1    
   226  114  235 1    
   227  115  116 1    
   228  115  117 1    
   229  115  236 1    
   230  116  237 1    
   231  116  238 1    
   232  116  239 1    
   233  117  118 2    
   234  117  119 am   BACKBONE|DICT|INTERRES
   235  119  120 1    
   236  119  240 1    
   237  120  121 1    
   238  120  124 1    
   239  120  241 1    
   240  121  122 am   BACKBONE|DICT|INTERRES
   241  121  123 2    
   242  122  242 1    
   243  122  243 1    
   244  124  125 1    
   245  124  244 1    
   246  124  245 1    
   247  125  126 1    
   248  126  246 1    
   249  126  247 1    
@<TRIPOS>SUBSTRUCTURE
     1 UNK         1 GROUP             0       ****    0 ROOT    
