@<TRIPOS>MOLECULE
3R540
247   249    1
SMALL
USER_CHARGES


@<TRIPOS>ATOM
      1 CA          6.2821  -13.0273  -50.8478 C.3       0 UNK        -0.1800 
      2 C           5.3306  -12.5563  -49.7571 C.2       0 UNK         0.5000 
      3 O           5.1030  -11.3537  -49.6255 O.2       0 UNK        -0.5000 
      4 N           4.7827  -13.5013  -48.9796 N.am      1 UNK        -0.5000 
      5 CA          3.8344  -13.2871  -47.8755 C.3       1 UNK         0.1400 
      6 C6          2.4544  -12.7298  -48.3229 C.3       23 UNK        -0.0398 
      7 S7          1.6304  -13.7954  -49.5504 S.3       23 UNK        -0.2404 
      8 C8          0.6209  -14.8400  -48.4584 C.3       23 UNK        -0.0205 
      9 C9         -0.1056  -15.9123  -49.2509 C.ar      23 UNK        -0.0193 
     10 C10        -1.4557  -15.7575  -49.5801 C.ar      23 UNK        -0.1150 
     11 C11        -2.1292  -16.7576  -50.2868 C.ar      23 UNK        -0.0193 
     12 C12        -1.4364  -17.9035  -50.6803 C.ar      23 UNK        -0.1150 
     13 C13        -0.0864  -18.0695  -50.3641 C.ar      23 UNK        -0.0193 
     14 C14         0.5728  -17.0708  -49.6422 C.ar      23 UNK        -0.1150 
     15 C15         0.6552  -19.3320  -50.7888 C.3       23 UNK        -0.0205 
     16 S16        -0.1774  -20.8575  -50.2345 S.3       23 UNK        -0.2404 
     17 C17        -0.3513  -20.5112  -48.4545 C.3       23 UNK        -0.0398 
     18 CA         -0.3474  -21.7806  -47.5769 C.3       11 UNK         0.1400 
     19 N          -0.0147  -21.4603  -46.1882 N.am      11 UNK        -0.5000 
     20 C           0.2454  -22.3567  -45.2281 C.2       10 UNK         0.5000 
     21 O           0.3000  -23.5701  -45.4218 O.2       10 UNK        -0.5000 
     22 CA          0.4206  -21.8061  -43.8006 C.3       10 UNK         0.1400 
     23 CB          1.8581  -21.3152  -43.5751 C.3       10 UNK        -0.1800 
     24 N          -0.5252  -20.7294  -43.4965 N.am      10 UNK        -0.5000 
     25 C          -1.8563  -20.8882  -43.4497 C.2       9 UNK         0.5000 
     26 O          -2.4170  -21.9737  -43.5954 O.2       9 UNK        -0.5000 
     27 CA         -2.7086  -19.6213  -43.2556 C.3       9 UNK         0.1400 
     28 CB         -2.7647  -19.2266  -41.7729 C.3       9 UNK        -0.1800 
     29 N          -2.2361  -18.4900  -44.0565 N.am      9 UNK        -0.5000 
     30 C          -2.2222  -18.4606  -45.3973 C.2       8 UNK         0.5000 
     31 O          -2.6472  -19.3759  -46.1010 O.2       8 UNK        -0.5000 
     32 CA         -1.5765  -17.2316  -46.0663 C.3       8 UNK         0.1400 
     33 CB         -2.5530  -16.0476  -46.1110 C.3       8 UNK        -0.1800 
     34 N          -0.3336  -16.8234  -45.4094 N.am      8 UNK        -0.5000 
     35 C           0.7665  -17.5869  -45.3409 C.2       7 UNK         0.5000 
     36 O           0.8683  -18.6898  -45.8760 O.2       7 UNK        -0.5000 
     37 CA          1.9223  -17.0587  -44.4754 C.3       7 UNK         0.1400 
     38 CB          2.7848  -16.0490  -45.2502 C.3       7 UNK        -0.1800 
     39 N           1.4299  -16.4672  -43.2299 N.am      7 UNK        -0.5000 
     40 C           0.8942  -17.1823  -42.2284 C.2       6 UNK         0.5000 
     41 O           0.8364  -18.4117  -42.2259 O.2       6 UNK        -0.5000 
     42 CA          0.2663  -16.3988  -41.0619 C.3       6 UNK         0.1400 
     43 CB          1.2919  -16.1355  -39.9519 C.3       6 UNK        -0.1800 
     44 N          -0.3319  -15.1373  -41.5012 N.am      6 UNK        -0.5000 
     45 C          -1.4762  -15.0703  -42.1976 C.2       5 UNK         0.5000 
     46 O          -2.1396  -16.0594  -42.5044 O.2       5 UNK        -0.5000 
     47 CA         -1.9445  -13.6821  -42.6698 C.3       5 UNK         0.1400 
     48 CB         -2.8700  -13.0429  -41.6244 C.3       5 UNK        -0.1800 
     49 N          -0.8479  -12.7621  -42.9684 N.am      5 UNK        -0.5000 
     50 C           0.0876  -12.9523  -43.9078 C.2       4 UNK         0.5000 
     51 O           0.1284  -13.9462  -44.6358 O.2       4 UNK        -0.5000 
     52 CA          1.1775  -11.8693  -44.0436 C.3       4 UNK         0.1400 
     53 CB          0.8759  -10.5682  -43.2668 C.3       4 UNK        -0.1800 
     54 N           2.5092  -12.3652  -43.6843 N.am      4 UNK        -0.5000 
     55 C           2.8858  -12.9513  -42.5358 C.2       3 UNK         0.5000 
     56 O           2.1023  -13.2167  -41.6230 O.2       3 UNK        -0.5000 
     57 CA          4.3805  -13.3074  -42.3719 C.3       3 UNK         0.1400 
     58 CB          4.5743  -14.7388  -41.8430 C.3       3 UNK        -0.1800 
     59 N           5.1322  -13.1578  -43.6211 N.am      3 UNK        -0.5000 
     60 C           5.8867  -12.0979  -43.9416 C.2       2 UNK         0.5000 
     61 O           6.0799  -11.1398  -43.1926 O.2       2 UNK        -0.5000 
     62 CA          6.5086  -12.0923  -45.3534 C.3       2 UNK         0.1400 
     63 CB          7.9194  -12.6993  -45.3215 C.3       2 UNK        -0.1800 
     64 N           5.7108  -12.7891  -46.3699 N.am      2 UNK        -0.5000 
     65 C           4.4607  -12.4610  -46.7298 C.2       1 UNK         0.5000 
     66 O           3.8169  -11.5615  -46.1881 O.2       1 UNK        -0.5000 
     67 C          -1.6772  -22.5571  -47.6818 C.2       11 UNK         0.5000 
     68 O          -1.7344  -23.5679  -48.3763 O.2       11 UNK        -0.5000 
     69 N          -2.7079  -22.1172  -46.9476 N.am      12 UNK        -0.5000 
     70 CA         -4.0090  -22.7859  -46.8687 C.3       12 UNK         0.1400 
     71 CB         -5.0092  -21.8642  -46.1560 C.3       12 UNK        -0.1800 
     72 C          -3.9592  -24.1710  -46.1928 C.2       12 UNK         0.5000 
     73 O          -4.7955  -25.0202  -46.4997 O.2       12 UNK        -0.5000 
     74 N          -2.9790  -24.3867  -45.3066 N.am      13 UNK        -0.5000 
     75 CA         -2.7130  -25.6668  -44.6491 C.3       13 UNK         0.1400 
     76 CB         -2.0108  -25.3960  -43.3093 C.3       13 UNK        -0.1800 
     77 C          -1.8751  -26.6348  -45.5114 C.2       13 UNK         0.5000 
     78 O          -1.8535  -27.8298  -45.2144 O.2       13 UNK        -0.5000 
     79 N          -1.1912  -26.1172  -46.5422 N.am      14 UNK        -0.5000 
     80 CA         -0.3001  -26.8633  -47.4306 C.3       14 UNK         0.1400 
     81 CB          0.4925  -25.9007  -48.3276 C.3       14 UNK        -0.1800 
     82 C          -0.9241  -28.0131  -48.2611 C.2       14 UNK         0.5000 
     83 O          -0.2612  -29.0425  -48.3762 O.2       14 UNK        -0.5000 
     84 N          -2.1289  -27.9370  -48.8552 N.am      15 UNK        -0.5000 
     85 CA         -3.1097  -26.8490  -48.9502 C.3       15 UNK         0.1400 
     86 CB         -4.5134  -27.4756  -48.8977 C.3       15 UNK        -0.1800 
     87 C          -2.9574  -25.9798  -50.2117 C.2       15 UNK         0.5000 
     88 O          -3.8040  -25.1136  -50.4364 O.2       15 UNK        -0.5000 
     89 N          -1.9120  -26.2280  -51.0191 N.am      16 UNK        -0.5000 
     90 CA         -1.5457  -25.4849  -52.2342 C.3       16 UNK         0.1400 
     91 CB         -1.0098  -24.0855  -51.8657 C.3       16 UNK        -0.1800 
     92 C          -2.6984  -25.4334  -53.2578 C.2       16 UNK         0.5000 
     93 O          -3.0717  -24.3540  -53.7252 O.2       16 UNK        -0.5000 
     94 N          -3.2860  -26.6111  -53.5163 N.am      17 UNK        -0.5000 
     95 CA         -4.4927  -26.8903  -54.3058 C.3       17 UNK         0.1400 
     96 CB         -4.3361  -26.4412  -55.7722 C.3       17 UNK        -0.1800 
     97 C          -5.7801  -26.3268  -53.6722 C.2       17 UNK         0.5000 
     98 O          -6.7103  -27.0883  -53.4049 O.2       17 UNK        -0.5000 
     99 N          -5.7975  -25.0145  -53.4297 N.am      18 UNK        -0.5000 
    100 CA        -6.8776  -24.2542  -52.8132 C.3       18 UNK         0.1400 
    101 CB        -8.0597  -24.1036  -53.7945 C.3       18 UNK        -0.1800 
    102 C         -6.3112  -22.9039  -52.3476 C.2       18 UNK         0.5000 
    103 O         -6.7736  -21.8547  -52.7995 O.2       18 UNK        -0.5000 
    104 N         -5.2705  -22.9546  -51.5011 N.am      19 UNK        -0.5000 
    105 CA        -4.5247  -21.8165  -50.9488 C.3       19 UNK         0.1400 
    106 CB        -5.3981  -21.0397  -49.9407 C.3       19 UNK        -0.1800 
    107 C         -3.9454  -20.9097  -52.0534 C.2       19 UNK         0.5000 
    108 O         -4.1339  -19.6949  -52.0147 O.2       19 UNK        -0.5000 
    109 N         -3.3284  -21.5352  -53.0677 N.am      20 UNK        -0.5000 
    110 CA        -2.7689  -20.9266  -54.2815 C.3       20 UNK         0.1400 
    111 CB        -1.5478  -20.0507  -53.9409 C.3       20 UNK        -0.1800 
    112 C         -3.8016  -20.1795  -55.1571 C.2       20 UNK         0.5000 
    113 O         -3.4089  -19.3757  -56.0044 O.2       20 UNK        -0.5000 
    114 N         -5.0953  -20.4730  -54.9540 N.am      21 UNK        -0.5000 
    115 CA        -6.2586  -19.8982  -55.6300 C.3       21 UNK         0.1400 
    116 CB        -6.2710  -20.2749  -57.1269 C.3       21 UNK        -0.1800 
    117 C         -6.4310  -18.3850  -55.3748 C.2       21 UNK         0.5000 
    118 O         -6.8354  -17.6540  -56.2816 O.2       21 UNK        -0.5000 
    119 N         -6.1530  -17.9398  -54.1394 N.am      22 UNK        -0.5000 
    120 CA        -6.4167  -16.5609  -53.6806 C.3       22 UNK         0.1400 
    121 C         -7.9269  -16.1762  -53.6150 C.2       22 UNK         0.5000 
    122 N         -8.8573  -17.1228  -53.5682 N.am      22 UNK        -0.7600 
    123 O         -8.2592  -14.9940  -53.6078 O.2       22 UNK        -0.5000 
    124 C124       -5.7488  -16.2506  -52.3169 C.3       23 UNK        -0.0398 
    125 S125       -3.9279  -16.3080  -52.3550 S.3       23 UNK        -0.2404 
    126 C126       -3.6124  -16.6304  -50.5913 C.3       23 UNK        -0.0205 
    127 H127        6.3901  -14.1122  -50.8524 H         1 UNK         0.0600 
    128 H128        7.2688  -12.5881  -50.7004 H         1 UNK         0.0600 
    129 H129        5.9130  -12.7189  -51.8259 H         1 UNK         0.0600 
    130 H130        5.0147  -14.4677  -49.1617 H         1 UNK         0.3000 
    131 H131        3.6560  -14.2744  -47.4489 H         1 UNK         0.0600 
    132 H132        2.5639  -11.7338  -48.7542 H         1 UNK         0.0800 
    133 H133        1.7873  -12.6131  -47.4668 H         1 UNK         0.0800 
    134 H134        1.2581  -15.3130  -47.7114 H         1 UNK         0.0800 
    135 H135       -0.0899  -14.2197  -47.9099 H         1 UNK         0.0800 
    136 H136       -1.9849  -14.8668  -49.2721 H         1 UNK         0.1150 
    137 H137       -1.9564  -18.6798  -51.2194 H         1 UNK         0.1150 
    138 H138        1.6157  -17.1900  -49.3844 H         1 UNK         0.1150 
    139 H139        0.7396  -19.3448  -51.8757 H         1 UNK         0.0800 
    140 H140        1.6748  -19.3303  -50.4006 H         1 UNK         0.0800 
    141 H141        0.4874  -19.8762  -48.1678 H         1 UNK         0.0800 
    142 H142       -1.2489  -19.9125  -48.2937 H         1 UNK         0.0800 
    143 H143        0.4441  -22.4400  -47.9401 H         1 UNK         0.0600 
    144 H144        0.0213  -20.4739  -45.9495 H         1 UNK         0.3000 
    145 H145        0.2293  -22.6248  -43.1039 H         1 UNK         0.0600 
    146 H146        2.0070  -20.9939  -42.5442 H         1 UNK         0.0600 
    147 H147        2.5777  -22.1099  -43.7756 H         1 UNK         0.0600 
    148 H148        2.1054  -20.4761  -44.2254 H         1 UNK         0.0600 
    149 H149       -0.1296  -19.8136  -43.3099 H         1 UNK         0.3000 
    150 H150       -3.7247  -19.8536  -43.5805 H         1 UNK         0.0600 
    151 H151       -3.1461  -20.0480  -41.1651 H         1 UNK         0.0600 
    152 H152       -3.4246  -18.3733  -41.6161 H         1 UNK         0.0600 
    153 H153       -1.7793  -18.9646  -41.3884 H         1 UNK         0.0600 
    154 H154       -1.9383  -17.6646  -43.5444 H         1 UNK         0.3000 
    155 H155       -1.3317  -17.5078  -47.0939 H         1 UNK         0.0600 
    156 H156       -3.4456  -16.3041  -46.6828 H         1 UNK         0.0600 
    157 H157       -2.0997  -15.1783  -46.5872 H         1 UNK         0.0600 
    158 H158       -2.8761  -15.7514  -45.1135 H         1 UNK         0.0600 
    159 H159       -0.3191  -15.9076  -44.9731 H         1 UNK         0.3000 
    160 H160        2.5573  -17.9105  -44.2220 H         1 UNK         0.0600 
    161 H161        2.2502  -15.1231  -45.4561 H         1 UNK         0.0600 
    162 H162        3.1003  -16.4658  -46.2076 H         1 UNK         0.0600 
    163 H163        3.6897  -15.7980  -44.7001 H         1 UNK         0.0600 
    164 H164        1.3737  -15.4597  -43.1885 H         1 UNK         0.3000 
    165 H165       -0.5231  -17.0211  -40.6356 H         1 UNK         0.0600 
    166 H166        0.8279  -15.6471  -39.0950 H         1 UNK         0.0600 
    167 H167        1.7312  -17.0687  -39.5969 H         1 UNK         0.0600 
    168 H168        2.1052  -15.5013  -40.2972 H         1 UNK         0.0600 
    169 H169        0.1996  -14.2912  -41.3305 H         1 UNK         0.3000 
    170 H170       -2.5155  -13.8237  -43.5894 H         1 UNK         0.0600 
    171 H171       -3.7133  -13.6969  -41.3977 H         1 UNK         0.0600 
    172 H172       -2.3453  -12.8472  -40.6883 H         1 UNK         0.0600 
    173 H173       -3.2803  -12.0992  -41.9842 H         1 UNK         0.0600 
    174 H174       -0.7884  -11.9315  -42.3976 H         1 UNK         0.3000 
    175 H175        1.2165  -11.6162  -45.1038 H         1 UNK         0.0600 
    176 H176        0.8648  -10.7237  -42.1873 H         1 UNK         0.0600 
    177 H177        1.6300   -9.8101  -43.4790 H         1 UNK         0.0600 
    178 H178       -0.0876  -10.1470  -43.5572 H         1 UNK         0.0600 
    179 H179        3.2208  -12.1838  -44.3836 H         1 UNK         0.3000 
    180 H180        4.7813  -12.6269  -41.6182 H         1 UNK         0.0600 
    181 H181        4.0337  -15.4753  -42.4356 H         1 UNK         0.0600 
    182 H182        4.2224  -14.8197  -40.8150 H         1 UNK         0.0600 
    183 H183        5.6276  -15.0196  -41.8379 H         1 UNK         0.0600 
    184 H184        5.0383  -13.8988  -44.2996 H         1 UNK         0.3000 
    185 H185        6.5942  -11.0491  -45.6648 H         1 UNK         0.0600 
    186 H186        8.5495  -12.1865  -44.5934 H         1 UNK         0.0600 
    187 H187        7.8971  -13.7555  -45.0502 H         1 UNK         0.0600 
    188 H188        8.4095  -12.6109  -46.2913 H         1 UNK         0.0600 
    189 H189        6.1753  -13.5310  -46.8736 H         1 UNK         0.3000 
    190 H190       -2.6108  -21.2443  -46.4349 H         1 UNK         0.3000 
    191 H191       -4.3578  -22.9476  -47.8899 H         1 UNK         0.0600 
    192 H192       -5.0999  -20.9073  -46.6704 H         1 UNK         0.0600 
    193 H193       -6.0025  -22.3138  -46.1264 H         1 UNK         0.0600 
    194 H194       -4.7075  -21.6640  -45.1278 H         1 UNK         0.0600 
    195 H195       -2.3816  -23.6097  -45.0501 H         1 UNK         0.3000 
    196 H196       -3.6641  -26.1591  -44.4357 H         1 UNK         0.0600 
    197 H197       -1.8368  -26.3240  -42.7633 H         1 UNK         0.0600 
    198 H198       -2.6152  -24.7516  -42.6706 H         1 UNK         0.0600 
    199 H199       -1.0440  -24.9129  -43.4517 H         1 UNK         0.0600 
    200 H200       -1.2600  -25.1222  -46.7128 H         1 UNK         0.3000 
    201 H201        0.4312  -27.3345  -46.7704 H         1 UNK         0.0600 
    202 H202        0.9932  -25.1314  -47.7394 H         1 UNK         0.0600 
    203 H203       -0.1443  -25.4040  -49.0556 H         1 UNK         0.0600 
    204 H204        1.2626  -26.4347  -48.8854 H         1 UNK         0.0600 
    205 H205       -2.4159  -28.7674  -49.3517 H         1 UNK         0.3000 
    206 H206       -3.0371  -26.1662  -48.1144 H         1 UNK         0.0600 
    207 H207       -4.6504  -28.0533  -47.9833 H         1 UNK         0.0600 
    208 H208       -5.2888  -26.7082  -48.9073 H         1 UNK         0.0600 
    209 H209       -4.6941  -28.1368  -49.7461 H         1 UNK         0.0600 
    210 H210       -1.2964  -26.9869  -50.7647 H         1 UNK         0.3000 
    211 H211       -0.7337  -26.0349  -52.7118 H         1 UNK         0.0600 
    212 H212       -1.7631  -23.4822  -51.3596 H         1 UNK         0.0600 
    213 H213       -0.6914  -23.5361  -52.7525 H         1 UNK         0.0600 
    214 H214       -0.1473  -24.1555  -51.2034 H         1 UNK         0.0600 
    215 H215       -2.9116  -27.4151  -53.0324 H         1 UNK         0.3000 
    216 H216       -4.5961  -27.9766  -54.3113 H         1 UNK         0.0600 
    217 H217       -5.2009  -26.7444  -56.3633 H         1 UNK         0.0600 
    218 H218       -3.4558  -26.8928  -56.2293 H         1 UNK         0.0600 
    219 H219       -4.2439  -25.3591  -55.8671 H         1 UNK         0.0600 
    220 H220       -4.9453  -24.4982  -53.6340 H         1 UNK         0.3000 
    221 H221       -7.2226  -24.7851  -51.9237 H         1 UNK         0.0600 
    222 H222       -7.7532  -23.6095  -54.7173 H         1 UNK         0.0600 
    223 H223       -8.4865  -25.0708  -54.0594 H         1 UNK         0.0600 
    224 H224       -8.8613  -23.5105  -53.3527 H         1 UNK         0.0600 
    225 H225       -4.9153  -23.8648  -51.2099 H         1 UNK         0.3000 
    226 H226       -3.6755  -22.2322  -50.4042 H         1 UNK         0.0600 
    227 H227       -5.8475  -21.7062  -49.2057 H         1 UNK         0.0600 
    228 H228       -4.8025  -20.3051  -49.3971 H         1 UNK         0.0600 
    229 H229       -6.2083  -20.5036  -50.4362 H         1 UNK         0.0600 
    230 H230       -3.2717  -22.5496  -53.0473 H         1 UNK         0.3000 
    231 H231       -2.4129  -21.7606  -54.8879 H         1 UNK         0.0600 
    232 H232       -1.8428  -19.1259  -53.4460 H         1 UNK         0.0600 
    233 H233       -1.0012  -19.7740  -54.8429 H         1 UNK         0.0600 
    234 H234       -0.8524  -20.5808  -53.2911 H         1 UNK         0.0600 
    235 H235       -5.3202  -21.1057  -54.1954 H         1 UNK         0.3000 
    236 H236       -7.1284  -20.3730  -55.1741 H         1 UNK         0.0600 
    237 H237       -6.1657  -21.3512  -57.2631 H         1 UNK         0.0600 
    238 H238       -7.2109  -19.9810  -57.5956 H         1 UNK         0.0600 
    239 H239       -5.4664  -19.7860  -57.6767 H         1 UNK         0.0600 
    240 H240       -5.7656  -18.5790  -53.4568 H         1 UNK         0.3000 
    241 H241       -5.9728  -15.8912  -54.4196 H         1 UNK         0.0600 
    242 H242       -9.8298  -16.8601  -53.5295 H         1 UNK         0.3800 
    243 H243       -8.6016  -18.0971  -53.5618 H         1 UNK         0.3800 
    244 H244       -6.0234  -15.2528  -51.9690 H         1 UNK         0.0800 
    245 H245       -6.1164  -16.9479  -51.5619 H         1 UNK         0.0800 
    246 H246       -4.1133  -17.5539  -50.2963 H         1 UNK         0.0800 
    247 H247       -4.0578  -15.8329  -49.9946 H         1 UNK         0.0800 
@<TRIPOS>BOND
     1    1    2 1    
     2    1  127 1    
     3    1  128 1    
     4    1  129 1    
     5    2    3 2    
     6    2    4 am   BACKBONE|DICT|INTERRES
     7    4    5 1    
     8    4  130 1    
     9    5    6 1    
    10    5   65 1    
    11    5  131 1    
    12    6    7 1    
    13    6  132 1    
    14    6  133 1    
    15    7    8 1    
    16    8    9 1    
    17    8  134 1    
    18    8  135 1    
    19    9   10 ar   
    20    9   14 ar   
    21   10   11 ar   
    22   10  136 1    
    23   11   12 ar   
    24   11  126 1    
    25   12   13 ar   
    26   12  137 1    
    27   13   14 ar   
    28   13   15 1    
    29   14  138 1    
    30   15   16 1    
    31   15  139 1    
    32   15  140 1    
    33   16   17 1    
    34   17   18 1    
    35   17  141 1    
    36   17  142 1    
    37   18   19 1    
    38   18   67 1    
    39   18  143 1    
    40   19   20 am   BACKBONE|DICT|INTERRES
    41   19  144 1    
    42   20   21 2    
    43   20   22 1    
    44   22   23 1    
    45   22   24 1    
    46   22  145 1    
    47   23  146 1    
    48   23  147 1    
    49   23  148 1    
    50   24   25 am   BACKBONE|DICT|INTERRES
    51   24  149 1    
    52   25   26 2    
    53   25   27 1    
    54   27   28 1    
    55   27   29 1    
    56   27  150 1    
    57   28  151 1    
    58   28  152 1    
    59   28  153 1    
    60   29   30 am   BACKBONE|DICT|INTERRES
    61   29  154 1    
    62   30   31 2    
    63   30   32 1    
    64   32   33 1    
    65   32   34 1    
    66   32  155 1    
    67   33  156 1    
    68   33  157 1    
    69   33  158 1    
    70   34   35 am   BACKBONE|DICT|INTERRES
    71   34  159 1    
    72   35   36 2    
    73   35   37 1    
    74   37   38 1    
    75   37   39 1    
    76   37  160 1    
    77   38  161 1    
    78   38  162 1    
    79   38  163 1    
    80   39   40 am   BACKBONE|DICT|INTERRES
    81   39  164 1    
    82   40   41 2    
    83   40   42 1    
    84   42   43 1    
    85   42   44 1    
    86   42  165 1    
    87   43  166 1    
    88   43  167 1    
    89   43  168 1    
    90   44   45 am   BACKBONE|DICT|INTERRES
    91   44  169 1    
    92   45   46 2    
    93   45   47 1    
    94   47   48 1    
    95   47   49 1    
    96   47  170 1    
    97   48  171 1    
    98   48  172 1    
    99   48  173 1    
   100   49   50 am   BACKBONE|DICT|INTERRES
   101   49  174 1    
   102   50   51 2    
   103   50   52 1    
   104   52   53 1    
   105   52   54 1    
   106   52  175 1    
   107   53  176 1    
   108   53  177 1    
   109   53  178 1    
   110   54   55 am   BACKBONE|DICT|INTERRES
   111   54  179 1    
   112   55   56 2    
   113   55   57 1    
   114   57   58 1    
   115   57   59 1    
   116   57  180 1    
   117   58  181 1    
   118   58  182 1    
   119   58  183 1    
   120   59   60 am   BACKBONE|DICT|INTERRES
   121   59  184 1    
   122   60   61 2    
   123   60   62 1    
   124   62   63 1    
   125   62   64 1    
   126   62  185 1    
   127   63  186 1    
   128   63  187 1    
   129   63  188 1    
   130   64   65 am   BACKBONE|DICT|INTERRES
   131   64  189 1    
   132   65   66 2    
   133   67   68 2    
   134   67   69 am   BACKBONE|DICT|INTERRES
   135   69   70 1    
   136   69  190 1    
   137   70   71 1    
   138   70   72 1    
   139   70  191 1    
   140   71  192 1    
   141   71  193 1    
   142   71  194 1    
   143   72   73 2    
   144   72   74 am   BACKBONE|DICT|INTERRES
   145   74   75 1    
   146   74  195 1    
   147   75   76 1    
   148   75   77 1    
   149   75  196 1    
   150   76  197 1    
   151   76  198 1    
   152   76  199 1    
   153   77   78 2    
   154   77   79 am   BACKBONE|DICT|INTERRES
   155   79   80 1    
   156   79  200 1    
   157   80   81 1    
   158   80   82 1    
   159   80  201 1    
   160   81  202 1    
   161   81  203 1    
   162   81  204 1    
   163   82   83 2    
   164   82   84 am   BACKBONE|DICT|INTERRES
   165   84   85 1    
   166   84  205 1    
   167   85   86 1    
   168   85   87 1    
   169   85  206 1    
   170   86  207 1    
   171   86  208 1    
   172   86  209 1    
   173   87   88 2    
   174   87   89 am   BACKBONE|DICT|INTERRES
   175   89   90 1    
   176   89  210 1    
   177   90   91 1    
   178   90   92 1    
   179   90  211 1    
   180   91  212 1    
   181   91  213 1    
   182   91  214 1    
   183   92   93 2    
   184   92   94 am   BACKBONE|DICT|INTERRES
   185   94   95 1    
   186   94  215 1    
   187   95   96 1    
   188   95   97 1    
   189   95  216 1    
   190   96  217 1    
   191   96  218 1    
   192   96  219 1    
   193   97   98 2    
   194   97   99 am   BACKBONE|DICT|INTERRES
   195   99  100 1    
   196   99  220 1    
   197  100  101 1    
   198  100  102 1    
   199  100  221 1    
   200  101  222 1    
   201  101  223 1    
   202  101  224 1    
   203  102  103 2    
   204  102  104 am   BACKBONE|DICT|INTERRES
   205  104  105 1    
   206  104  225 1    
   207  105  106 1    
   208  105  107 1    
   209  105  226 1    
   210  106  227 1    
   211  106  228 1    
   212  106  229 1    
   213  107  108 2    
   214  107  109 am   BACKBONE|DICT|INTERRES
   215  109  110 1    
   216  109  230 1    
   217  110  111 1    
   218  110  112 1    
   219  110  231 1    
   220  111  232 1    
   221  111  233 1    
   222  111  234 1    
   223  112  113 2    
   224  112  114 am   BACKBONE|DICT|INTERRES
   225  114  115 1    
   226  114  235 1    
   227  115  116 1    
   228  115  117 1    
   229  115  236 1    
   230  116  237 1    
   231  116  238 1    
   232  116  239 1    
   233  117  118 2    
   234  117  119 am   BACKBONE|DICT|INTERRES
   235  119  120 1    
   236  119  240 1    
   237  120  121 1    
   238  120  124 1    
   239  120  241 1    
   240  121  122 am   BACKBONE|DICT|INTERRES
   241  121  123 2    
   242  122  242 1    
   243  122  243 1    
   244  124  125 1    
   245  124  244 1    
   246  124  245 1    
   247  125  126 1    
   248  126  246 1    
   249  126  247 1    
@<TRIPOS>SUBSTRUCTURE
     1 UNK         1 GROUP             0       ****    0 ROOT    
