@<TRIPOS>MOLECULE
3R540
247   249    1
SMALL
USER_CHARGES


@<TRIPOS>ATOM
      1 CA         -0.1505  -12.7787  -52.6945 C.3       0 UNK        -0.1800 
      2 C           0.6302  -12.8350  -51.3889 C.2       0 UNK         0.5000 
      3 O           1.2149  -11.8319  -50.9803 O.2       0 UNK        -0.5000 
      4 N           0.6319  -13.9981  -50.7275 N.am      1 UNK        -0.5000 
      5 CA          1.3363  -14.2444  -49.4602 C.3       1 UNK         0.1400 
      6 C6          1.7455  -15.7352  -49.3197 C.3       23 UNK        -0.0398 
      7 S7          3.2793  -16.0924  -50.2376 S.3       23 UNK        -0.2404 
      8 C8          2.6606  -16.9470  -51.7210 C.3       23 UNK        -0.0205 
      9 C9          2.1335  -18.3505  -51.4430 C.ar      23 UNK        -0.0193 
     10 C10         0.8933  -18.7348  -51.9565 C.ar      23 UNK        -0.1150 
     11 C11         0.4167  -20.0372  -51.7837 C.ar      23 UNK        -0.0193 
     12 C12         1.1704  -20.9442  -51.0371 C.ar      23 UNK        -0.1150 
     13 C13         2.4032  -20.5711  -50.4963 C.ar      23 UNK        -0.0193 
     14 C14         2.8909  -19.2802  -50.7224 C.ar      23 UNK        -0.1150 
     15 C15         3.1987  -21.5675  -49.6652 C.3       23 UNK        -0.0205 
     16 S16         3.4369  -21.0209  -47.9422 S.3       23 UNK        -0.2404 
     17 C17         1.7268  -20.7248  -47.3802 C.3       23 UNK        -0.0398 
     18 CA          1.0295  -22.0121  -46.8578 C.3       11 UNK         0.1400 
     19 N           0.6321  -21.8985  -45.4501 N.am      11 UNK        -0.5000 
     20 C           0.1428  -22.9015  -44.7062 C.2       10 UNK         0.5000 
     21 O           0.0239  -24.0590  -45.1103 O.2       10 UNK        -0.5000 
     22 CA         -0.3466  -22.5357  -43.2911 C.3       10 UNK         0.1400 
     23 CB          0.8303  -22.4245  -42.3109 C.3       10 UNK        -0.1800 
     24 N          -1.1243  -21.2944  -43.2737 N.am      10 UNK        -0.5000 
     25 C          -2.3032  -21.1380  -43.8938 C.2       9 UNK         0.5000 
     26 O          -2.8885  -22.0474  -44.4808 O.2       9 UNK        -0.5000 
     27 CA         -2.9032  -19.7196  -43.9119 C.3       9 UNK         0.1400 
     28 CB         -3.6741  -19.4286  -42.6161 C.3       9 UNK        -0.1800 
     29 N          -1.8951  -18.6820  -44.1275 N.am      9 UNK        -0.5000 
     30 C          -1.1373  -18.5641  -45.2275 C.2       8 UNK         0.5000 
     31 O          -1.2309  -19.2937  -46.2116 O.2       8 UNK        -0.5000 
     32 CA         -0.0539  -17.4770  -45.1977 C.3       8 UNK         0.1400 
     33 CB         -0.6744  -16.1071  -45.5123 C.3       8 UNK        -0.1800 
     34 N           0.6361  -17.4543  -43.9050 N.am      8 UNK        -0.5000 
     35 C           1.4375  -18.4384  -43.4657 C.2       7 UNK         0.5000 
     36 O           1.7304  -19.4257  -44.1382 O.2       7 UNK        -0.5000 
     37 CA          1.9470  -18.3477  -42.0159 C.3       7 UNK         0.1400 
     38 CB          3.3236  -17.6747  -41.9406 C.3       7 UNK        -0.1800 
     39 N           1.0040  -17.6502  -41.1435 N.am      7 UNK        -0.5000 
     40 C          -0.1397  -18.1982  -40.7093 C.2       6 UNK         0.5000 
     41 O          -0.4737  -19.3574  -40.9574 O.2       6 UNK        -0.5000 
     42 CA         -1.0921  -17.2864  -39.9123 C.3       6 UNK         0.1400 
     43 CB         -0.7582  -17.3347  -38.4143 C.3       6 UNK        -0.1800 
     44 N          -1.0773  -15.8933  -40.3670 N.am      6 UNK        -0.5000 
     45 C          -1.4308  -15.4863  -41.5939 C.2       5 UNK         0.5000 
     46 O          -1.8228  -16.2579  -42.4689 O.2       5 UNK        -0.5000 
     47 CA         -1.3119  -13.9819  -41.9146 C.3       5 UNK         0.1400 
     48 CB         -1.2361  -13.0838  -40.6602 C.3       5 UNK        -0.1800 
     49 N          -0.1969  -13.6741  -42.8178 N.am      5 UNK        -0.5000 
     50 C           1.1049  -13.9573  -42.6404 C.2       4 UNK         0.5000 
     51 O           1.5261  -14.6553  -41.7169 O.2       4 UNK        -0.5000 
     52 CA          2.1179  -13.3583  -43.6442 C.3       4 UNK         0.1400 
     53 CB          2.8864  -14.4506  -44.4060 C.3       4 UNK        -0.1800 
     54 N           1.5117  -12.4422  -44.6126 N.am      4 UNK        -0.5000 
     55 C           1.1853  -11.1660  -44.3567 C.2       3 UNK         0.5000 
     56 O           1.4052  -10.6140  -43.2781 O.2       3 UNK        -0.5000 
     57 CA          0.4787  -10.3695  -45.4757 C.3       3 UNK         0.1400 
     58 CB          1.4808   -9.4543  -46.1957 C.3       3 UNK        -0.1800 
     59 N          -0.1997  -11.2003  -46.4734 N.am      3 UNK        -0.5000 
     60 C          -1.2031  -12.0527  -46.2256 C.2       2 UNK         0.5000 
     61 O          -1.7084  -12.2064  -45.1127 O.2       2 UNK        -0.5000 
     62 CA         -1.6901  -12.9186  -47.4047 C.3       2 UNK         0.1400 
     63 CB         -2.8920  -12.2532  -48.0913 C.3       2 UNK        -0.1800 
     64 N          -0.6834  -13.2445  -48.4257 N.am      2 UNK        -0.5000 
     65 C           0.5373  -13.7683  -48.2263 C.2       1 UNK         0.5000 
     66 O           1.0459  -13.8910  -47.1129 O.2       1 UNK        -0.5000 
     67 C          -0.1631  -22.4028  -47.7560 C.2       11 UNK         0.5000 
     68 O          -0.0310  -23.2941  -48.5936 O.2       11 UNK        -0.5000 
     69 N          -1.3140  -21.7522  -47.5368 N.am      12 UNK        -0.5000 
     70 CA         -2.5746  -22.0175  -48.2240 C.3       12 UNK         0.1400 
     71 CB         -3.6256  -20.9814  -47.7996 C.3       12 UNK        -0.1800 
     72 C          -3.0981  -23.4396  -47.9806 C.2       12 UNK         0.5000 
     73 O          -3.5223  -24.0947  -48.9310 O.2       12 UNK        -0.5000 
     74 N          -3.0309  -23.9052  -46.7255 N.am      13 UNK        -0.5000 
     75 CA         -3.3903  -25.2655  -46.3244 C.3       13 UNK         0.1400 
     76 CB         -3.3450  -25.3859  -44.7940 C.3       13 UNK        -0.1800 
     77 C          -2.4992  -26.3291  -46.9904 C.2       13 UNK         0.5000 
     78 O          -3.0212  -27.3205  -47.5019 O.2       13 UNK        -0.5000 
     79 N          -1.1824  -26.0758  -47.0311 N.am      14 UNK        -0.5000 
     80 CA         -0.1969  -26.9081  -47.7285 C.3       14 UNK         0.1400 
     81 CB          1.2183  -26.4124  -47.3947 C.3       14 UNK        -0.1800 
     82 C          -0.4173  -26.9569  -49.2549 C.2       14 UNK         0.5000 
     83 O          -0.1780  -27.9948  -49.8722 O.2       14 UNK        -0.5000 
     84 N          -0.9136  -25.8513  -49.8237 N.am      15 UNK        -0.5000 
     85 CA         -1.2996  -25.7030  -51.2277 C.3       15 UNK         0.1400 
     86 CB         -1.0864  -24.2385  -51.6384 C.3       15 UNK        -0.1800 
     87 C          -2.7395  -26.1775  -51.5310 C.2       15 UNK         0.5000 
     88 O          -3.2469  -25.8893  -52.6154 O.2       15 UNK        -0.5000 
     89 N          -3.3690  -26.9000  -50.5916 N.am      16 UNK        -0.5000 
     90 CA         -4.6983  -27.5131  -50.6827 C.3       16 UNK         0.1400 
     91 CB         -4.7425  -28.5859  -51.7920 C.3       16 UNK        -0.1800 
     92 C          -5.8400  -26.4802  -50.7812 C.2       16 UNK         0.5000 
     93 O          -6.7371  -26.6170  -51.6151 O.2       16 UNK        -0.5000 
     94 N          -5.7851  -25.4782  -49.8946 N.am      17 UNK        -0.5000 
     95 CA         -6.7593  -24.4030  -49.6834 C.3       17 UNK         0.1400 
     96 CB         -8.1628  -24.9548  -49.3536 C.3       17 UNK        -0.1800 
     97 C          -6.7639  -23.3393  -50.7989 C.2       17 UNK         0.5000 
     98 O          -7.7857  -22.6877  -51.0239 O.2       17 UNK        -0.5000 
     99 N          -5.6088  -23.1387  -51.4459 N.am      18 UNK        -0.5000 
    100 CA        -5.3430  -22.0027  -52.3263 C.3       18 UNK         0.1400 
    101 CB        -4.1838  -22.3597  -53.2691 C.3       18 UNK        -0.1800 
    102 C         -5.0157  -20.7877  -51.4425 C.2       18 UNK         0.5000 
    103 O         -3.8924  -20.6922  -50.9505 O.2       18 UNK        -0.5000 
    104 N         -6.0284  -19.9512  -51.1776 N.am      19 UNK        -0.5000 
    105 CA        -6.0749  -18.8805  -50.1735 C.3       19 UNK         0.1400 
    106 CB        -7.5128  -18.3342  -50.1212 C.3       19 UNK        -0.1800 
    107 C         -5.0294  -17.7559  -50.3526 C.2       19 UNK         0.5000 
    108 O         -5.3802  -16.6304  -50.7091 O.2       19 UNK        -0.5000 
    109 N         -3.7589  -18.0972  -50.1030 N.am      20 UNK        -0.5000 
    110 CA        -2.5474  -17.2699  -50.1595 C.3       20 UNK         0.1400 
    111 CB        -2.6250  -16.1036  -49.1607 C.3       20 UNK        -0.1800 
    112 C         -2.1530  -16.8095  -51.5791 C.2       20 UNK         0.5000 
    113 O         -1.2056  -16.0355  -51.7277 O.2       20 UNK        -0.5000 
    114 N         -2.8456  -17.3454  -52.5869 N.am      21 UNK        -0.5000 
    115 CA        -2.6062  -17.2373  -54.0168 C.3       21 UNK         0.1400 
    116 CB        -3.1252  -15.8816  -54.5282 C.3       21 UNK        -0.1800 
    117 C         -3.3724  -18.4210  -54.6437 C.2       21 UNK         0.5000 
    118 O         -4.5375  -18.6007  -54.2846 O.2       21 UNK        -0.5000 
    119 N         -2.8029  -19.2609  -55.5198 N.am      22 UNK        -0.5000 
    120 CA        -1.4453  -19.2946  -56.0962 C.3       22 UNK         0.1400 
    121 C         -1.1013  -18.0517  -56.9748 C.2       22 UNK         0.5000 
    122 N          0.1680  -17.7490  -57.2134 N.am      22 UNK        -0.7600 
    123 O         -1.9866  -17.3704  -57.4849 O.2       22 UNK        -0.5000 
    124 C124       -0.3270  -19.7003  -55.0884 C.3       23 UNK        -0.0398 
    125 S125       -0.7101  -21.1701  -54.0684 S.3       23 UNK        -0.2404 
    126 C126       -0.9077  -20.4712  -52.3952 C.3       23 UNK        -0.0205 
    127 H127       -0.5104  -13.7627  -52.9951 H         1 UNK         0.0600 
    128 H128        0.4822  -12.3933  -53.4939 H         1 UNK         0.0600 
    129 H129       -1.0108  -12.1179  -52.5896 H         1 UNK         0.0600 
    130 H130        0.0958  -14.7781  -51.1027 H         1 UNK         0.3000 
    131 H131        2.2487  -13.6440  -49.4484 H         1 UNK         0.0600 
    132 H132        0.9409  -16.3996  -49.6392 H         1 UNK         0.0800 
    133 H133        1.9538  -16.0018  -48.2817 H         1 UNK         0.0800 
    134 H134        3.4756  -17.0243  -52.4415 H         1 UNK         0.0800 
    135 H135        1.8952  -16.3260  -52.1895 H         1 UNK         0.0800 
    136 H136        0.3114  -18.0170  -52.5123 H         1 UNK         0.1150 
    137 H137        0.7953  -21.9438  -50.8762 H         1 UNK         0.1150 
    138 H138        3.8534  -18.9953  -50.3212 H         1 UNK         0.1150 
    139 H139        2.7103  -22.5436  -49.6580 H         1 UNK         0.0800 
    140 H140        4.1751  -21.7165  -50.1277 H         1 UNK         0.0800 
    141 H141        1.1593  -20.2231  -48.1657 H         1 UNK         0.0800 
    142 H142        1.7937  -19.9752  -46.5943 H         1 UNK         0.0800 
    143 H143        1.7337  -22.8456  -46.9049 H         1 UNK         0.0600 
    144 H144        0.7380  -20.9846  -45.0231 H         1 UNK         0.3000 
    145 H145       -0.9980  -23.3416  -42.9465 H         1 UNK         0.0600 
    146 H146        0.4836  -22.2004  -41.3019 H         1 UNK         0.0600 
    147 H147        1.3867  -23.3614  -42.2643 H         1 UNK         0.0600 
    148 H148        1.5306  -21.6430  -42.6049 H         1 UNK         0.0600 
    149 H149       -0.7354  -20.5123  -42.7604 H         1 UNK         0.3000 
    150 H150       -3.6095  -19.6677  -44.7424 H         1 UNK         0.0600 
    151 H151       -4.4716  -20.1574  -42.4663 H         1 UNK         0.0600 
    152 H152       -4.1356  -18.4413  -42.6451 H         1 UNK         0.0600 
    153 H153       -3.0260  -19.4685  -41.7410 H         1 UNK         0.0600 
    154 H154       -1.7830  -17.9898  -43.3928 H         1 UNK         0.3000 
    155 H155        0.6868  -17.7002  -45.9685 H         1 UNK         0.0600 
    156 H156       -1.6120  -15.9380  -44.9838 H         1 UNK         0.0600 
    157 H157       -0.8922  -16.0297  -46.5771 H         1 UNK         0.0600 
    158 H158       -0.0071  -15.2896  -45.2541 H         1 UNK         0.0600 
    159 H159        0.3815  -16.7155  -43.2657 H         1 UNK         0.3000 
    160 H160        2.0648  -19.3703  -41.6510 H         1 UNK         0.0600 
    161 H161        3.2697  -16.6176  -42.1898 H         1 UNK         0.0600 
    162 H162        4.0291  -18.1429  -42.6283 H         1 UNK         0.0600 
    163 H163        3.7435  -17.7567  -40.9381 H         1 UNK         0.0600 
    164 H164        1.1918  -16.6726  -40.9508 H         1 UNK         0.3000 
    165 H165       -2.1050  -17.6703  -40.0494 H         1 UNK         0.0600 
    166 H166       -1.4788  -16.7615  -37.8306 H         1 UNK         0.0600 
    167 H167       -0.7821  -18.3598  -38.0420 H         1 UNK         0.0600 
    168 H168        0.2355  -16.9339  -38.2100 H         1 UNK         0.0600 
    169 H169       -0.7396  -15.2042  -39.7111 H         1 UNK         0.3000 
    170 H170       -2.2228  -13.7164  -42.4532 H         1 UNK         0.0600 
    171 H171       -2.0763  -13.2697  -39.9899 H         1 UNK         0.0600 
    172 H172       -0.3159  -13.2369  -40.0952 H         1 UNK         0.0600 
    173 H173       -1.2763  -12.0303  -40.9378 H         1 UNK         0.0600 
    174 H174       -0.4534  -13.1296  -43.6335 H         1 UNK         0.3000 
    175 H175        2.8481  -12.7975  -43.0571 H         1 UNK         0.0600 
    176 H176        2.2223  -15.1517  -44.9088 H         1 UNK         0.0600 
    177 H177        3.5412  -14.0166  -45.1619 H         1 UNK         0.0600 
    178 H178        3.5209  -15.0222  -43.7313 H         1 UNK         0.0600 
    179 H179        1.3008  -12.8337  -45.5276 H         1 UNK         0.3000 
    180 H180       -0.2775   -9.7429  -44.9986 H         1 UNK         0.0600 
    181 H181        2.2473  -10.0301  -46.7161 H         1 UNK         0.0600 
    182 H182        1.9876   -8.7955  -45.4893 H         1 UNK         0.0600 
    183 H183        0.9812   -8.8197  -46.9279 H         1 UNK         0.0600 
    184 H184        0.1655  -11.1643  -47.4139 H         1 UNK         0.3000 
    185 H185       -2.0290  -13.8648  -46.9801 H         1 UNK         0.0600 
    186 H186       -3.6773  -12.0218  -47.3702 H         1 UNK         0.0600 
    187 H187       -2.6084  -11.3198  -48.5792 H         1 UNK         0.0600 
    188 H188       -3.3303  -12.9065  -48.8456 H         1 UNK         0.0600 
    189 H189       -0.9857  -13.1546  -49.3845 H         1 UNK         0.3000 
    190 H190       -1.3173  -20.9803  -46.8731 H         1 UNK         0.3000 
    191 H191       -2.3870  -21.9120  -49.2930 H         1 UNK         0.0600 
    192 H192       -3.8379  -21.0329  -46.7331 H         1 UNK         0.0600 
    193 H193       -4.5667  -21.1486  -48.3234 H         1 UNK         0.0600 
    194 H194       -3.2948  -19.9681  -48.0242 H         1 UNK         0.0600 
    195 H195       -2.7240  -23.2781  -45.9871 H         1 UNK         0.3000 
    196 H196       -4.4180  -25.4450  -46.6470 H         1 UNK         0.0600 
    197 H197       -3.6290  -26.3886  -44.4724 H         1 UNK         0.0600 
    198 H198       -4.0357  -24.6854  -44.3242 H         1 UNK         0.0600 
    199 H199       -2.3482  -25.1844  -44.4014 H         1 UNK         0.0600 
    200 H200       -0.8294  -25.2475  -46.5620 H         1 UNK         0.3000 
    201 H201       -0.2971  -27.9271  -47.3494 H         1 UNK         0.0600 
    202 H202        1.4002  -26.4338  -46.3200 H         1 UNK         0.0600 
    203 H203        1.3812  -25.3915  -47.7399 H         1 UNK         0.0600 
    204 H204        1.9737  -27.0423  -47.8660 H         1 UNK         0.0600 
    205 H205       -1.0255  -25.0264  -49.2442 H         1 UNK         0.3000 
    206 H206       -0.6357  -26.3158  -51.8404 H         1 UNK         0.0600 
    207 H207       -0.0477  -23.9459  -51.4924 H         1 UNK         0.0600 
    208 H208       -1.3162  -24.0806  -52.6926 H         1 UNK         0.0600 
    209 H209       -1.7131  -23.5643  -51.0547 H         1 UNK         0.0600 
    210 H210       -2.8904  -27.0432  -49.7110 H         1 UNK         0.3000 
    211 H211       -4.8494  -28.0301  -49.7340 H         1 UNK         0.0600 
    212 H212       -4.6544  -28.1490  -52.7870 H         1 UNK         0.0600 
    213 H213       -5.6826  -29.1378  -51.7619 H         1 UNK         0.0600 
    214 H214       -3.9379  -29.3112  -51.6711 H         1 UNK         0.0600 
    215 H215       -4.9348  -25.3829  -49.3469 H         1 UNK         0.3000 
    216 H216       -6.4125  -23.8774  -48.7925 H         1 UNK         0.0600 
    217 H217       -8.8247  -24.1576  -49.0135 H         1 UNK         0.0600 
    218 H218       -8.1183  -25.6982  -48.5578 H         1 UNK         0.0600 
    219 H219       -8.6336  -25.4169  -50.2214 H         1 UNK         0.0600 
    220 H220       -4.8093  -23.6932  -51.1717 H         1 UNK         0.3000 
    221 H221       -6.2230  -21.7846  -52.9350 H         1 UNK         0.0600 
    222 H222       -3.2773  -22.6093  -52.7192 H         1 UNK         0.0600 
    223 H223       -4.4351  -23.2142  -53.8975 H         1 UNK         0.0600 
    224 H224       -3.9475  -21.5249  -53.9288 H         1 UNK         0.0600 
    225 H225       -6.9107  -20.1441  -51.6300 H         1 UNK         0.3000 
    226 H226       -5.8738  -19.3382  -49.2037 H         1 UNK         0.0600 
    227 H227       -8.2249  -19.1198  -49.8669 H         1 UNK         0.0600 
    228 H228       -7.6099  -17.5548  -49.3641 H         1 UNK         0.0600 
    229 H229       -7.8146  -17.9041  -51.0771 H         1 UNK         0.0600 
    230 H230       -3.5910  -19.0927  -49.9811 H         1 UNK         0.3000 
    231 H231       -1.7376  -17.9231  -49.8302 H         1 UNK         0.0600 
    232 H232       -1.6496  -15.6344  -49.0593 H         1 UNK         0.0600 
    233 H233       -2.9228  -16.4472  -48.1700 H         1 UNK         0.0600 
    234 H234       -3.3315  -15.3382  -49.4820 H         1 UNK         0.0600 
    235 H235       -3.6195  -17.9560  -52.3563 H         1 UNK         0.3000 
    236 H236       -1.5379  -17.3024  -54.2049 H         1 UNK         0.0600 
    237 H237       -2.9853  -15.7860  -55.6044 H         1 UNK         0.0600 
    238 H238       -4.1891  -15.7564  -54.3231 H         1 UNK         0.0600 
    239 H239       -2.5958  -15.0526  -54.0584 H         1 UNK         0.0600 
    240 H240       -3.3982  -19.9896  -55.8823 H         1 UNK         0.3000 
    241 H241       -1.4994  -20.1067  -56.8221 H         1 UNK         0.0600 
    242 H242        0.3721  -16.9538  -57.7993 H         1 UNK         0.3800 
    243 H243        0.9316  -18.2972  -56.8510 H         1 UNK         0.3800 
    244 H244        0.5823  -19.9504  -55.6360 H         1 UNK         0.0800 
    245 H245       -0.0526  -18.8628  -54.4582 H         1 UNK         0.0800 
    246 H246       -1.3686  -21.2258  -51.7573 H         1 UNK         0.0800 
    247 H247       -1.6110  -19.6445  -52.4238 H         1 UNK         0.0800 
@<TRIPOS>BOND
     1    1    2 1    
     2    1  127 1    
     3    1  128 1    
     4    1  129 1    
     5    2    3 2    
     6    2    4 am   BACKBONE|DICT|INTERRES
     7    4    5 1    
     8    4  130 1    
     9    5    6 1    
    10    5   65 1    
    11    5  131 1    
    12    6    7 1    
    13    6  132 1    
    14    6  133 1    
    15    7    8 1    
    16    8    9 1    
    17    8  134 1    
    18    8  135 1    
    19    9   10 ar   
    20    9   14 ar   
    21   10   11 ar   
    22   10  136 1    
    23   11   12 ar   
    24   11  126 1    
    25   12   13 ar   
    26   12  137 1    
    27   13   14 ar   
    28   13   15 1    
    29   14  138 1    
    30   15   16 1    
    31   15  139 1    
    32   15  140 1    
    33   16   17 1    
    34   17   18 1    
    35   17  141 1    
    36   17  142 1    
    37   18   19 1    
    38   18   67 1    
    39   18  143 1    
    40   19   20 am   BACKBONE|DICT|INTERRES
    41   19  144 1    
    42   20   21 2    
    43   20   22 1    
    44   22   23 1    
    45   22   24 1    
    46   22  145 1    
    47   23  146 1    
    48   23  147 1    
    49   23  148 1    
    50   24   25 am   BACKBONE|DICT|INTERRES
    51   24  149 1    
    52   25   26 2    
    53   25   27 1    
    54   27   28 1    
    55   27   29 1    
    56   27  150 1    
    57   28  151 1    
    58   28  152 1    
    59   28  153 1    
    60   29   30 am   BACKBONE|DICT|INTERRES
    61   29  154 1    
    62   30   31 2    
    63   30   32 1    
    64   32   33 1    
    65   32   34 1    
    66   32  155 1    
    67   33  156 1    
    68   33  157 1    
    69   33  158 1    
    70   34   35 am   BACKBONE|DICT|INTERRES
    71   34  159 1    
    72   35   36 2    
    73   35   37 1    
    74   37   38 1    
    75   37   39 1    
    76   37  160 1    
    77   38  161 1    
    78   38  162 1    
    79   38  163 1    
    80   39   40 am   BACKBONE|DICT|INTERRES
    81   39  164 1    
    82   40   41 2    
    83   40   42 1    
    84   42   43 1    
    85   42   44 1    
    86   42  165 1    
    87   43  166 1    
    88   43  167 1    
    89   43  168 1    
    90   44   45 am   BACKBONE|DICT|INTERRES
    91   44  169 1    
    92   45   46 2    
    93   45   47 1    
    94   47   48 1    
    95   47   49 1    
    96   47  170 1    
    97   48  171 1    
    98   48  172 1    
    99   48  173 1    
   100   49   50 am   BACKBONE|DICT|INTERRES
   101   49  174 1    
   102   50   51 2    
   103   50   52 1    
   104   52   53 1    
   105   52   54 1    
   106   52  175 1    
   107   53  176 1    
   108   53  177 1    
   109   53  178 1    
   110   54   55 am   BACKBONE|DICT|INTERRES
   111   54  179 1    
   112   55   56 2    
   113   55   57 1    
   114   57   58 1    
   115   57   59 1    
   116   57  180 1    
   117   58  181 1    
   118   58  182 1    
   119   58  183 1    
   120   59   60 am   BACKBONE|DICT|INTERRES
   121   59  184 1    
   122   60   61 2    
   123   60   62 1    
   124   62   63 1    
   125   62   64 1    
   126   62  185 1    
   127   63  186 1    
   128   63  187 1    
   129   63  188 1    
   130   64   65 am   BACKBONE|DICT|INTERRES
   131   64  189 1    
   132   65   66 2    
   133   67   68 2    
   134   67   69 am   BACKBONE|DICT|INTERRES
   135   69   70 1    
   136   69  190 1    
   137   70   71 1    
   138   70   72 1    
   139   70  191 1    
   140   71  192 1    
   141   71  193 1    
   142   71  194 1    
   143   72   73 2    
   144   72   74 am   BACKBONE|DICT|INTERRES
   145   74   75 1    
   146   74  195 1    
   147   75   76 1    
   148   75   77 1    
   149   75  196 1    
   150   76  197 1    
   151   76  198 1    
   152   76  199 1    
   153   77   78 2    
   154   77   79 am   BACKBONE|DICT|INTERRES
   155   79   80 1    
   156   79  200 1    
   157   80   81 1    
   158   80   82 1    
   159   80  201 1    
   160   81  202 1    
   161   81  203 1    
   162   81  204 1    
   163   82   83 2    
   164   82   84 am   BACKBONE|DICT|INTERRES
   165   84   85 1    
   166   84  205 1    
   167   85   86 1    
   168   85   87 1    
   169   85  206 1    
   170   86  207 1    
   171   86  208 1    
   172   86  209 1    
   173   87   88 2    
   174   87   89 am   BACKBONE|DICT|INTERRES
   175   89   90 1    
   176   89  210 1    
   177   90   91 1    
   178   90   92 1    
   179   90  211 1    
   180   91  212 1    
   181   91  213 1    
   182   91  214 1    
   183   92   93 2    
   184   92   94 am   BACKBONE|DICT|INTERRES
   185   94   95 1    
   186   94  215 1    
   187   95   96 1    
   188   95   97 1    
   189   95  216 1    
   190   96  217 1    
   191   96  218 1    
   192   96  219 1    
   193   97   98 2    
   194   97   99 am   BACKBONE|DICT|INTERRES
   195   99  100 1    
   196   99  220 1    
   197  100  101 1    
   198  100  102 1    
   199  100  221 1    
   200  101  222 1    
   201  101  223 1    
   202  101  224 1    
   203  102  103 2    
   204  102  104 am   BACKBONE|DICT|INTERRES
   205  104  105 1    
   206  104  225 1    
   207  105  106 1    
   208  105  107 1    
   209  105  226 1    
   210  106  227 1    
   211  106  228 1    
   212  106  229 1    
   213  107  108 2    
   214  107  109 am   BACKBONE|DICT|INTERRES
   215  109  110 1    
   216  109  230 1    
   217  110  111 1    
   218  110  112 1    
   219  110  231 1    
   220  111  232 1    
   221  111  233 1    
   222  111  234 1    
   223  112  113 2    
   224  112  114 am   BACKBONE|DICT|INTERRES
   225  114  115 1    
   226  114  235 1    
   227  115  116 1    
   228  115  117 1    
   229  115  236 1    
   230  116  237 1    
   231  116  238 1    
   232  116  239 1    
   233  117  118 2    
   234  117  119 am   BACKBONE|DICT|INTERRES
   235  119  120 1    
   236  119  240 1    
   237  120  121 1    
   238  120  124 1    
   239  120  241 1    
   240  121  122 am   BACKBONE|DICT|INTERRES
   241  121  123 2    
   242  122  242 1    
   243  122  243 1    
   244  124  125 1    
   245  124  244 1    
   246  124  245 1    
   247  125  126 1    
   248  126  246 1    
   249  126  247 1    
@<TRIPOS>SUBSTRUCTURE
     1 UNK         1 GROUP             0       ****    0 ROOT    
