@<TRIPOS>MOLECULE
3R540
247   249    1
SMALL
USER_CHARGES


@<TRIPOS>ATOM
      1 CA          6.4465  -11.9519  -48.0846 C.3       0 UNK        -0.1800 
      2 C           5.1226  -12.1604  -47.3633 C.2       0 UNK         0.5000 
      3 O           5.0604  -12.0133  -46.1439 O.2       0 UNK        -0.5000 
      4 N           4.0664  -12.4979  -48.1135 N.am      1 UNK        -0.5000 
      5 CA          2.7125  -12.7588  -47.6016 C.3       1 UNK         0.1400 
      6 C6          1.8736  -13.6062  -48.5909 C.3       23 UNK        -0.0398 
      7 S7          2.6995  -15.1467  -49.1203 S.3       23 UNK        -0.2404 
      8 C8          1.2702  -16.2514  -49.3088 C.3       23 UNK        -0.0205 
      9 C9          1.5692  -17.3872  -50.2727 C.ar      23 UNK        -0.0193 
     10 C10         1.3337  -17.2178  -51.6404 C.ar      23 UNK        -0.1150 
     11 C11         1.5794  -18.2598  -52.5390 C.ar      23 UNK        -0.0193 
     12 C12         2.0757  -19.4742  -52.0591 C.ar      23 UNK        -0.1150 
     13 C13         2.3253  -19.6536  -50.6959 C.ar      23 UNK        -0.0193 
     14 C14         2.0687  -18.6063  -49.8043 C.ar      23 UNK        -0.1150 
     15 C15         2.8760  -20.9822  -50.2011 C.3       23 UNK        -0.0205 
     16 S16         1.5556  -22.2213  -50.0184 S.3       23 UNK        -0.2404 
     17 C17         0.7348  -21.6448  -48.4961 C.3       23 UNK        -0.0398 
     18 CA          0.5222  -22.7891  -47.4769 C.3       11 UNK         0.1400 
     19 N           0.4730  -22.3013  -46.0970 N.am      11 UNK        -0.5000 
     20 C           0.4325  -23.0860  -45.0103 C.2       10 UNK         0.5000 
     21 O           0.4919  -24.3152  -45.0491 O.2       10 UNK        -0.5000 
     22 CA          0.2427  -22.3807  -43.6560 C.3       10 UNK         0.1400 
     23 CB          1.5796  -21.8334  -43.1349 C.3       10 UNK        -0.1800 
     24 N          -0.7431  -21.3005  -43.7220 N.am      10 UNK        -0.5000 
     25 C          -2.0435  -21.4771  -43.9993 C.2       9 UNK         0.5000 
     26 O          -2.5611  -22.5809  -44.1708 O.2       9 UNK        -0.5000 
     27 CA         -2.8982  -20.2068  -44.1675 C.3       9 UNK         0.1400 
     28 CB         -3.2853  -19.6206  -42.8024 C.3       9 UNK        -0.1800 
     29 N          -2.2328  -19.1829  -44.9752 N.am      9 UNK        -0.5000 
     30 C          -1.8827  -19.3410  -46.2599 C.2       8 UNK         0.5000 
     31 O          -2.1179  -20.3554  -46.9131 O.2       8 UNK        -0.5000 
     32 CA         -1.0852  -18.1998  -46.9099 C.3       8 UNK         0.1400 
     33 CB         -2.0171  -17.0821  -47.4021 C.3       8 UNK        -0.1800 
     34 N          -0.0826  -17.6517  -45.9968 N.am      8 UNK        -0.5000 
     35 C           1.0138  -18.3137  -45.5997 C.2       7 UNK         0.5000 
     36 O           1.3096  -19.4425  -45.9885 O.2       7 UNK        -0.5000 
     37 CA          1.9026  -17.6132  -44.5593 C.3       7 UNK         0.1400 
     38 CB          2.8185  -16.5845  -45.2414 C.3       7 UNK        -0.1800 
     39 N           1.1109  -16.9633  -43.5134 N.am      7 UNK        -0.5000 
     40 C           0.3648  -17.6272  -42.6148 C.2       6 UNK         0.5000 
     41 O           0.3149  -18.8546  -42.5492 O.2       6 UNK        -0.5000 
     42 CA         -0.5118  -16.7937  -41.6576 C.3       6 UNK         0.1400 
     43 CB          0.2528  -16.4875  -40.3617 C.3       6 UNK        -0.1800 
     44 N          -0.9828  -15.5393  -42.2431 N.am      6 UNK        -0.5000 
     45 C          -1.7141  -15.4292  -43.3611 C.2       5 UNK         0.5000 
     46 O          -2.1765  -16.3961  -43.9674 O.2       5 UNK        -0.5000 
     47 CA         -1.9077  -14.0090  -43.9327 C.3       5 UNK         0.1400 
     48 CB         -3.3134  -13.4862  -43.6031 C.3       5 UNK        -0.1800 
     49 N          -0.9124  -13.0265  -43.4808 N.am      5 UNK        -0.5000 
     50 C           0.4148  -13.1189  -43.6524 C.2       4 UNK         0.5000 
     51 O           0.9646  -14.0709  -44.2085 O.2       4 UNK        -0.5000 
     52 CA          1.2439  -11.9511  -43.0999 C.3       4 UNK         0.1400 
     53 CB          2.7591  -12.1357  -43.2981 C.3       4 UNK        -0.1800 
     54 N           0.8115  -10.7209  -43.7520 N.am      4 UNK        -0.5000 
     55 C           0.6794   -9.5271  -43.1605 C.2       3 UNK         0.5000 
     56 O           0.8771   -9.3418  -41.9582 O.2       3 UNK        -0.5000 
     57 CA          0.2381   -8.3482  -44.0595 C.3       3 UNK         0.1400 
     58 CB          0.7223   -6.9793  -43.5358 C.3       3 UNK        -0.1800 
     59 N           0.5906   -8.5265  -45.4745 N.am      3 UNK        -0.5000 
     60 C           1.8220   -8.6297  -45.9955 C.2       2 UNK         0.5000 
     61 O           2.8663   -8.5129  -45.3513 O.2       2 UNK        -0.5000 
     62 CA          1.8894   -8.9715  -47.4954 C.3       2 UNK         0.1400 
     63 CB          2.7252   -7.9373  -48.2666 C.3       2 UNK        -0.1800 
     64 N           2.4506  -10.3041  -47.7190 N.am      2 UNK        -0.5000 
     65 C           1.9489  -11.4590  -47.2543 C.2       1 UNK         0.5000 
     66 O           0.9086  -11.5277  -46.5973 O.2       1 UNK        -0.5000 
     67 C          -0.7217  -23.6280  -47.8285 C.2       11 UNK         0.5000 
     68 O          -0.5792  -24.7300  -48.3560 O.2       11 UNK        -0.5000 
     69 N          -1.9116  -23.1161  -47.4836 N.am      12 UNK        -0.5000 
     70 CA         -3.1930  -23.7865  -47.6913 C.3       12 UNK         0.1400 
     71 CB         -4.3443  -22.8350  -47.3307 C.3       12 UNK        -0.1800 
     72 C          -3.3122  -25.1069  -46.9109 C.2       12 UNK         0.5000 
     73 O          -3.7822  -26.1016  -47.4640 O.2       12 UNK        -0.5000 
     74 N          -2.8456  -25.1058  -45.6543 N.am      13 UNK        -0.5000 
     75 CA         -2.7799  -26.2871  -44.7941 C.3       13 UNK         0.1400 
     76 CB         -2.3756  -25.8670  -43.3730 C.3       13 UNK        -0.1800 
     77 C          -1.8296  -27.3704  -45.3381 C.2       13 UNK         0.5000 
     78 O          -2.1683  -28.5530  -45.2824 O.2       13 UNK        -0.5000 
     79 N          -0.6753  -26.9497  -45.8743 N.am      14 UNK        -0.5000 
     80 CA          0.3068  -27.8254  -46.5139 C.3       14 UNK         0.1400 
     81 CB          1.6294  -27.0649  -46.6969 C.3       14 UNK        -0.1800 
     82 C          -0.1899  -28.3945  -47.8565 C.2       14 UNK         0.5000 
     83 O           0.0030  -29.5821  -48.1203 O.2       14 UNK        -0.5000 
     84 N          -0.8217  -27.5431  -48.6758 N.am      15 UNK        -0.5000 
     85 CA         -1.3727  -27.8967  -49.9853 C.3       15 UNK         0.1400 
     86 CB         -1.6809  -26.6079  -50.7649 C.3       15 UNK        -0.1800 
     87 C          -2.6355  -28.7737  -49.9067 C.2       15 UNK         0.5000 
     88 O          -2.8893  -29.5414  -50.8357 O.2       15 UNK        -0.5000 
     89 N          -3.4092  -28.6189  -48.8216 N.am      16 UNK        -0.5000 
     90 CA         -4.7415  -29.1881  -48.5894 C.3       16 UNK         0.1400 
     91 CB         -4.6896  -30.7277  -48.5009 C.3       16 UNK        -0.1800 
     92 C          -5.7788  -28.6621  -49.6065 C.2       16 UNK         0.5000 
     93 O          -6.6596  -29.4032  -50.0472 O.2       16 UNK        -0.5000 
     94 N          -5.6421  -27.3808  -49.9613 N.am      17 UNK        -0.5000 
     95 CA         -6.4545  -26.6368  -50.9165 C.3       17 UNK         0.1400 
     96 CB         -6.0308  -26.9898  -52.3536 C.3       17 UNK        -0.1800 
     97 C          -6.2490  -25.1430  -50.6312 C.2       17 UNK         0.5000 
     98 O          -5.2528  -24.7812  -50.0042 O.2       17 UNK        -0.5000 
     99 N          -7.1838  -24.2972  -51.0786 N.am      18 UNK        -0.5000 
    100 CA        -7.1528  -22.8513  -50.8500 C.3       18 UNK         0.1400 
    101 CB        -8.4781  -22.2344  -51.3249 C.3       18 UNK        -0.1800 
    102 C         -5.9582  -22.1644  -51.5415 C.2       18 UNK         0.5000 
    103 O         -5.7590  -22.3480  -52.7440 O.2       18 UNK        -0.5000 
    104 N         -5.2210  -21.3470  -50.7779 N.am      19 UNK        -0.5000 
    105 CA        -4.1016  -20.5294  -51.2609 C.3       19 UNK         0.1400 
    106 CB        -3.1269  -20.2745  -50.0991 C.3       19 UNK        -0.1800 
    107 C         -4.5597  -19.1992  -51.8959 C.2       19 UNK         0.5000 
    108 O         -3.7233  -18.4483  -52.3974 O.2       19 UNK        -0.5000 
    109 N         -5.8751  -18.9307  -51.8798 N.am      20 UNK        -0.5000 
    110 CA        -6.5354  -17.7268  -52.3974 C.3       20 UNK         0.1400 
    111 CB        -8.0456  -17.8452  -52.1417 C.3       20 UNK        -0.1800 
    112 C         -6.2652  -17.4263  -53.8859 C.2       20 UNK         0.5000 
    113 O         -6.3580  -16.2675  -54.2930 O.2       20 UNK        -0.5000 
    114 N         -5.8840  -18.4541  -54.6586 N.am      21 UNK        -0.5000 
    115 CA        -5.4195  -18.3543  -56.0452 C.3       21 UNK         0.1400 
    116 CB        -5.1483  -19.7691  -56.5788 C.3       21 UNK        -0.1800 
    117 C         -4.1722  -17.4610  -56.2258 C.2       21 UNK         0.5000 
    118 O         -3.9803  -16.9104  -57.3108 O.2       21 UNK        -0.5000 
    119 N         -3.3694  -17.3084  -55.1637 N.am      22 UNK        -0.5000 
    120 CA        -2.2477  -16.3600  -55.0862 C.3       22 UNK         0.1400 
    121 C         -2.6792  -14.8789  -54.8578 C.2       22 UNK         0.5000 
    122 N         -3.9488  -14.5664  -54.6214 N.am      22 UNK        -0.7600 
    123 O         -1.8397  -13.9842  -54.9092 O.2       22 UNK        -0.5000 
    124 C124       -1.2029  -16.8014  -54.0295 C.3       23 UNK        -0.0398 
    125 S125       -0.4232  -18.3992  -54.4491 S.3       23 UNK        -0.2404 
    126 C126        1.3196  -18.0799  -54.0277 C.3       23 UNK        -0.0205 
    127 H127        6.8035  -10.9342  -47.9269 H         1 UNK         0.0600 
    128 H128        6.3545  -12.1178  -49.1583 H         1 UNK         0.0600 
    129 H129        7.1968  -12.6414  -47.6976 H         1 UNK         0.0600 
    130 H130        4.1870  -12.6304  -49.1079 H         1 UNK         0.3000 
    131 H131        2.8047  -13.3284  -46.6739 H         1 UNK         0.0600 
    132 H132        0.9165  -13.8618  -48.1316 H         1 UNK         0.0800 
    133 H133        1.6381  -13.0314  -49.4887 H         1 UNK         0.0800 
    134 H134        0.4078  -15.6887  -49.6700 H         1 UNK         0.0800 
    135 H135        0.9984  -16.6438  -48.3301 H         1 UNK         0.0800 
    136 H136        0.9555  -16.2729  -52.0031 H         1 UNK         0.1150 
    137 H137        2.2663  -20.2857  -52.7476 H         1 UNK         0.1150 
    138 H138        2.2573  -18.7370  -48.7478 H         1 UNK         0.1150 
    139 H139        3.4085  -20.8570  -49.2569 H         1 UNK         0.0800 
    140 H140        3.6118  -21.3571  -50.9142 H         1 UNK         0.0800 
    141 H141       -0.1985  -21.1407  -48.7534 H         1 UNK         0.0800 
    142 H142        1.3675  -20.8803  -48.0508 H         1 UNK         0.0800 
    143 H143        1.3870  -23.4548  -47.5253 H         1 UNK         0.0600 
    144 H144        0.4661  -21.2945  -45.9719 H         1 UNK         0.3000 
    145 H145       -0.1218  -23.1231  -42.9431 H         1 UNK         0.0600 
    146 H146        1.4692  -21.4130  -42.1353 H         1 UNK         0.0600 
    147 H147        2.3290  -22.6235  -43.0746 H         1 UNK         0.0600 
    148 H148        1.9758  -21.0517  -43.7838 H         1 UNK         0.0600 
    149 H149       -0.3995  -20.3621  -43.5388 H         1 UNK         0.3000 
    150 H150       -3.8159  -20.4898  -44.6873 H         1 UNK         0.0600 
    151 H151       -3.8653  -20.3392  -42.2223 H         1 UNK         0.0600 
    152 H152       -3.8942  -18.7232  -42.9144 H         1 UNK         0.0600 
    153 H153       -2.4070  -19.3596  -42.2132 H         1 UNK         0.0600 
    154 H154       -2.0429  -18.2917  -44.5273 H         1 UNK         0.3000 
    155 H155       -0.5655  -18.6112  -47.7782 H         1 UNK         0.0600 
    156 H156       -2.5932  -16.6436  -46.5872 H         1 UNK         0.0600 
    157 H157       -1.4582  -16.2807  -47.8843 H         1 UNK         0.0600 
    158 H158       -2.7284  -17.4668  -48.1341 H         1 UNK         0.0600 
    159 H159       -0.2842  -16.7544  -45.5804 H         1 UNK         0.3000 
    160 H160        2.5317  -18.3711  -44.0875 H         1 UNK         0.0600 
    161 H161        2.2480  -15.8210  -45.7717 H         1 UNK         0.0600 
    162 H162        3.4692  -17.0670  -45.9717 H         1 UNK         0.0600 
    163 H163        3.4579  -16.0805  -44.5166 H         1 UNK         0.0600 
    164 H164        1.0737  -15.9490  -43.5420 H         1 UNK         0.3000 
    165 H165       -1.3897  -17.3898  -41.4043 H         1 UNK         0.0600 
    166 H166       -0.3811  -15.9692  -39.6419 H         1 UNK         0.0600 
    167 H167        0.5980  -17.4065  -39.8860 H         1 UNK         0.0600 
    168 H168        1.1290  -15.8652  -40.5486 H         1 UNK         0.0600 
    169 H169       -0.6517  -14.6893  -41.8125 H         1 UNK         0.3000 
    170 H170       -1.8178  -14.0881  -45.0180 H         1 UNK         0.0600 
    171 H171       -4.0805  -14.1794  -43.9515 H         1 UNK         0.0600 
    172 H172       -3.4521  -13.3557  -42.5291 H         1 UNK         0.0600 
    173 H173       -3.5017  -12.5273  -44.0863 H         1 UNK         0.0600 
    174 H174       -1.2757  -12.2035  -43.0218 H         1 UNK         0.3000 
    175 H175        1.0417  -11.9027  -42.0280 H         1 UNK         0.0600 
    176 H176        3.0183  -12.1975  -44.3549 H         1 UNK         0.0600 
    177 H177        3.3176  -11.3048  -42.8671 H         1 UNK         0.0600 
    178 H178        3.1103  -13.0498  -42.8180 H         1 UNK         0.0600 
    179 H179        0.6337  -10.8040  -44.7493 H         1 UNK         0.3000 
    180 H180       -0.8521   -8.3418  -44.0217 H         1 UNK         0.0600 
    181 H181        1.8091   -6.9335  -43.4617 H         1 UNK         0.0600 
    182 H182        0.3202   -6.7758  -42.5427 H         1 UNK         0.0600 
    183 H183        0.3955   -6.1693  -44.1877 H         1 UNK         0.0600 
    184 H184       -0.1956   -8.6669  -46.0942 H         1 UNK         0.3000 
    185 H185        0.8786   -8.9630  -47.9084 H         1 UNK         0.0600 
    186 H186        2.3291   -6.9312  -48.1228 H         1 UNK         0.0600 
    187 H187        3.7649   -7.9311  -47.9365 H         1 UNK         0.0600 
    188 H188        2.7144   -8.1401  -49.3376 H         1 UNK         0.0600 
    189 H189        3.3221  -10.3438  -48.2261 H         1 UNK         0.3000 
    190 H190       -1.9491  -22.1800  -47.0857 H         1 UNK         0.3000 
    191 H191       -3.2509  -24.0174  -48.7545 H         1 UNK         0.0600 
    192 H192       -4.3257  -22.5608  -46.2759 H         1 UNK         0.0600 
    193 H193       -5.3097  -23.3001  -47.5338 H         1 UNK         0.0600 
    194 H194       -4.2965  -21.9161  -47.9126 H         1 UNK         0.0600 
    195 H195       -2.5216  -24.2299  -45.2544 H         1 UNK         0.3000 
    196 H196       -3.7818  -26.7189  -44.7475 H         1 UNK         0.0600 
    197 H197       -2.3430  -26.7286  -42.7051 H         1 UNK         0.0600 
    198 H198       -3.0891  -25.1571  -42.9543 H         1 UNK         0.0600 
    199 H199       -1.3908  -25.3997  -43.3554 H         1 UNK         0.0600 
    200 H200       -0.4499  -25.9608  -45.8384 H         1 UNK         0.3000 
    201 H201        0.4944  -28.6680  -45.8451 H         1 UNK         0.0600 
    202 H202        2.0240  -26.7263  -45.7387 H         1 UNK         0.0600 
    203 H203        1.5075  -26.1888  -47.3345 H         1 UNK         0.0600 
    204 H204        2.3868  -27.7023  -47.1547 H         1 UNK         0.0600 
    205 H205       -0.8779  -26.5613  -48.4124 H         1 UNK         0.3000 
    206 H206       -0.6134  -28.4558  -50.5359 H         1 UNK         0.0600 
    207 H207       -0.7833  -26.0046  -50.9013 H         1 UNK         0.0600 
    208 H208       -2.0758  -26.8332  -51.7564 H         1 UNK         0.0600 
    209 H209       -2.4211  -25.9943  -50.2490 H         1 UNK         0.0600 
    210 H210       -3.1378  -27.8999  -48.1589 H         1 UNK         0.3000 
    211 H211       -5.0593  -28.8156  -47.6146 H         1 UNK         0.0600 
    212 H212       -4.4549  -31.1848  -49.4623 H         1 UNK         0.0600 
    213 H213       -5.6493  -31.1306  -48.1754 H         1 UNK         0.0600 
    214 H214       -3.9395  -31.0548  -47.7808 H         1 UNK         0.0600 
    215 H215       -4.9343  -26.8142  -49.5041 H         1 UNK         0.3000 
    216 H216       -7.5074  -26.8824  -50.7647 H         1 UNK         0.0600 
    217 H217       -6.6113  -26.4258  -53.0844 H         1 UNK         0.0600 
    218 H218       -6.1853  -28.0480  -52.5647 H         1 UNK         0.0600 
    219 H219       -4.9771  -26.7657  -52.5252 H         1 UNK         0.0600 
    220 H220       -7.9586  -24.6541  -51.6183 H         1 UNK         0.3000 
    221 H221       -7.0742  -22.6906  -49.7724 H         1 UNK         0.0600 
    222 H222       -8.6332  -22.3871  -52.3938 H         1 UNK         0.0600 
    223 H223       -9.3275  -22.6690  -50.7973 H         1 UNK         0.0600 
    224 H224       -8.4993  -21.1596  -51.1406 H         1 UNK         0.0600 
    225 H225       -5.4502  -21.2518  -49.7993 H         1 UNK         0.3000 
    226 H226       -3.5629  -21.0830  -52.0329 H         1 UNK         0.0600 
    227 H227       -2.7345  -21.2108  -49.7022 H         1 UNK         0.0600 
    228 H228       -2.2698  -19.6824  -50.4237 H         1 UNK         0.0600 
    229 H229       -3.6057  -19.7361  -49.2806 H         1 UNK         0.0600 
    230 H230       -6.4781  -19.6122  -51.4461 H         1 UNK         0.3000 
    231 H231       -6.1554  -16.8778  -51.8259 H         1 UNK         0.0600 
    232 H232       -8.5727  -16.9549  -52.4877 H         1 UNK         0.0600 
    233 H233       -8.2598  -17.9535  -51.0783 H         1 UNK         0.0600 
    234 H234       -8.4748  -18.7032  -52.6608 H         1 UNK         0.0600 
    235 H235       -5.8325  -19.3682  -54.2334 H         1 UNK         0.3000 
    236 H236       -6.2261  -17.9121  -56.6332 H         1 UNK         0.0600 
    237 H237       -6.0452  -20.3872  -56.5349 H         1 UNK         0.0600 
    238 H238       -4.8262  -19.7392  -57.6206 H         1 UNK         0.0600 
    239 H239       -4.3658  -20.2701  -56.0072 H         1 UNK         0.0600 
    240 H240       -3.5898  -17.7949  -54.3006 H         1 UNK         0.3000 
    241 H241       -1.7453  -16.3644  -56.0554 H         1 UNK         0.0600 
    242 H242       -4.6746  -15.2739  -54.5818 H         1 UNK         0.3800 
    243 H243       -4.1969  -13.5993  -54.4855 H         1 UNK         0.3800 
    244 H244       -0.4215  -16.0457  -53.9415 H         1 UNK         0.0800 
    245 H245       -1.6588  -16.8803  -53.0416 H         1 UNK         0.0800 
    246 H246        1.6154  -17.0802  -54.3489 H         1 UNK         0.0800 
    247 H247        1.9434  -18.7708  -54.5969 H         1 UNK         0.0800 
@<TRIPOS>BOND
     1    1    2 1    
     2    1  127 1    
     3    1  128 1    
     4    1  129 1    
     5    2    3 2    
     6    2    4 am   BACKBONE|DICT|INTERRES
     7    4    5 1    
     8    4  130 1    
     9    5    6 1    
    10    5   65 1    
    11    5  131 1    
    12    6    7 1    
    13    6  132 1    
    14    6  133 1    
    15    7    8 1    
    16    8    9 1    
    17    8  134 1    
    18    8  135 1    
    19    9   10 ar   
    20    9   14 ar   
    21   10   11 ar   
    22   10  136 1    
    23   11   12 ar   
    24   11  126 1    
    25   12   13 ar   
    26   12  137 1    
    27   13   14 ar   
    28   13   15 1    
    29   14  138 1    
    30   15   16 1    
    31   15  139 1    
    32   15  140 1    
    33   16   17 1    
    34   17   18 1    
    35   17  141 1    
    36   17  142 1    
    37   18   19 1    
    38   18   67 1    
    39   18  143 1    
    40   19   20 am   BACKBONE|DICT|INTERRES
    41   19  144 1    
    42   20   21 2    
    43   20   22 1    
    44   22   23 1    
    45   22   24 1    
    46   22  145 1    
    47   23  146 1    
    48   23  147 1    
    49   23  148 1    
    50   24   25 am   BACKBONE|DICT|INTERRES
    51   24  149 1    
    52   25   26 2    
    53   25   27 1    
    54   27   28 1    
    55   27   29 1    
    56   27  150 1    
    57   28  151 1    
    58   28  152 1    
    59   28  153 1    
    60   29   30 am   BACKBONE|DICT|INTERRES
    61   29  154 1    
    62   30   31 2    
    63   30   32 1    
    64   32   33 1    
    65   32   34 1    
    66   32  155 1    
    67   33  156 1    
    68   33  157 1    
    69   33  158 1    
    70   34   35 am   BACKBONE|DICT|INTERRES
    71   34  159 1    
    72   35   36 2    
    73   35   37 1    
    74   37   38 1    
    75   37   39 1    
    76   37  160 1    
    77   38  161 1    
    78   38  162 1    
    79   38  163 1    
    80   39   40 am   BACKBONE|DICT|INTERRES
    81   39  164 1    
    82   40   41 2    
    83   40   42 1    
    84   42   43 1    
    85   42   44 1    
    86   42  165 1    
    87   43  166 1    
    88   43  167 1    
    89   43  168 1    
    90   44   45 am   BACKBONE|DICT|INTERRES
    91   44  169 1    
    92   45   46 2    
    93   45   47 1    
    94   47   48 1    
    95   47   49 1    
    96   47  170 1    
    97   48  171 1    
    98   48  172 1    
    99   48  173 1    
   100   49   50 am   BACKBONE|DICT|INTERRES
   101   49  174 1    
   102   50   51 2    
   103   50   52 1    
   104   52   53 1    
   105   52   54 1    
   106   52  175 1    
   107   53  176 1    
   108   53  177 1    
   109   53  178 1    
   110   54   55 am   BACKBONE|DICT|INTERRES
   111   54  179 1    
   112   55   56 2    
   113   55   57 1    
   114   57   58 1    
   115   57   59 1    
   116   57  180 1    
   117   58  181 1    
   118   58  182 1    
   119   58  183 1    
   120   59   60 am   BACKBONE|DICT|INTERRES
   121   59  184 1    
   122   60   61 2    
   123   60   62 1    
   124   62   63 1    
   125   62   64 1    
   126   62  185 1    
   127   63  186 1    
   128   63  187 1    
   129   63  188 1    
   130   64   65 am   BACKBONE|DICT|INTERRES
   131   64  189 1    
   132   65   66 2    
   133   67   68 2    
   134   67   69 am   BACKBONE|DICT|INTERRES
   135   69   70 1    
   136   69  190 1    
   137   70   71 1    
   138   70   72 1    
   139   70  191 1    
   140   71  192 1    
   141   71  193 1    
   142   71  194 1    
   143   72   73 2    
   144   72   74 am   BACKBONE|DICT|INTERRES
   145   74   75 1    
   146   74  195 1    
   147   75   76 1    
   148   75   77 1    
   149   75  196 1    
   150   76  197 1    
   151   76  198 1    
   152   76  199 1    
   153   77   78 2    
   154   77   79 am   BACKBONE|DICT|INTERRES
   155   79   80 1    
   156   79  200 1    
   157   80   81 1    
   158   80   82 1    
   159   80  201 1    
   160   81  202 1    
   161   81  203 1    
   162   81  204 1    
   163   82   83 2    
   164   82   84 am   BACKBONE|DICT|INTERRES
   165   84   85 1    
   166   84  205 1    
   167   85   86 1    
   168   85   87 1    
   169   85  206 1    
   170   86  207 1    
   171   86  208 1    
   172   86  209 1    
   173   87   88 2    
   174   87   89 am   BACKBONE|DICT|INTERRES
   175   89   90 1    
   176   89  210 1    
   177   90   91 1    
   178   90   92 1    
   179   90  211 1    
   180   91  212 1    
   181   91  213 1    
   182   91  214 1    
   183   92   93 2    
   184   92   94 am   BACKBONE|DICT|INTERRES
   185   94   95 1    
   186   94  215 1    
   187   95   96 1    
   188   95   97 1    
   189   95  216 1    
   190   96  217 1    
   191   96  218 1    
   192   96  219 1    
   193   97   98 2    
   194   97   99 am   BACKBONE|DICT|INTERRES
   195   99  100 1    
   196   99  220 1    
   197  100  101 1    
   198  100  102 1    
   199  100  221 1    
   200  101  222 1    
   201  101  223 1    
   202  101  224 1    
   203  102  103 2    
   204  102  104 am   BACKBONE|DICT|INTERRES
   205  104  105 1    
   206  104  225 1    
   207  105  106 1    
   208  105  107 1    
   209  105  226 1    
   210  106  227 1    
   211  106  228 1    
   212  106  229 1    
   213  107  108 2    
   214  107  109 am   BACKBONE|DICT|INTERRES
   215  109  110 1    
   216  109  230 1    
   217  110  111 1    
   218  110  112 1    
   219  110  231 1    
   220  111  232 1    
   221  111  233 1    
   222  111  234 1    
   223  112  113 2    
   224  112  114 am   BACKBONE|DICT|INTERRES
   225  114  115 1    
   226  114  235 1    
   227  115  116 1    
   228  115  117 1    
   229  115  236 1    
   230  116  237 1    
   231  116  238 1    
   232  116  239 1    
   233  117  118 2    
   234  117  119 am   BACKBONE|DICT|INTERRES
   235  119  120 1    
   236  119  240 1    
   237  120  121 1    
   238  120  124 1    
   239  120  241 1    
   240  121  122 am   BACKBONE|DICT|INTERRES
   241  121  123 2    
   242  122  242 1    
   243  122  243 1    
   244  124  125 1    
   245  124  244 1    
   246  124  245 1    
   247  125  126 1    
   248  126  246 1    
   249  126  247 1    
@<TRIPOS>SUBSTRUCTURE
     1 UNK         1 GROUP             0       ****    0 ROOT    
