@<TRIPOS>MOLECULE
3R540
247   249    1
SMALL
USER_CHARGES


@<TRIPOS>ATOM
      1 CA         -1.3679  -17.0350  -50.1123 C.3       0 UNK        -0.1800 
      2 C          -0.2372  -16.0916  -49.7234 C.2       0 UNK         0.5000 
      3 O           0.6431  -15.8408  -50.5454 O.2       0 UNK        -0.5000 
      4 N          -0.2606  -15.6006  -48.4729 N.am      1 UNK        -0.5000 
      5 CA          0.6940  -14.6781  -47.8313 C.3       1 UNK         0.1400 
      6 C6          0.3497  -13.1684  -47.9991 C.3       23 UNK        -0.0398 
      7 S7          0.2199  -12.5251  -49.7082 S.3       23 UNK        -0.2404 
      8 C8         -1.4788  -11.8602  -49.7501 C.3       23 UNK        -0.0205 
      9 C9         -2.5045  -12.9521  -50.0125 C.ar      23 UNK        -0.0193 
     10 C10        -2.9030  -13.2425  -51.3184 C.ar      23 UNK        -0.1150 
     11 C11        -3.8139  -14.2720  -51.5744 C.ar      23 UNK        -0.0193 
     12 C12        -4.3209  -15.0200  -50.5053 C.ar      23 UNK        -0.1150 
     13 C13        -3.9367  -14.7372  -49.1893 C.ar      23 UNK        -0.0193 
     14 C14        -3.0514  -13.6782  -48.9538 C.ar      23 UNK        -0.1150 
     15 C15        -4.4884  -15.5786  -48.0387 C.3       23 UNK        -0.0205 
     16 S16        -3.2769  -15.8437  -46.6992 S.3       23 UNK        -0.2404 
     17 C17        -4.1626  -16.9920  -45.5953 C.3       23 UNK        -0.0398 
     18 CA         -3.4324  -18.3560  -45.5249 C.3       11 UNK         0.1400 
     19 N          -3.3833  -18.9457  -44.1859 N.am      11 UNK        -0.5000 
     20 C          -4.3818  -19.2832  -43.3623 C.2       10 UNK         0.5000 
     21 O          -5.5737  -19.1872  -43.6531 O.2       10 UNK        -0.5000 
     22 CA         -3.9573  -19.8410  -41.9918 C.3       10 UNK         0.1400 
     23 CB         -3.6180  -21.3355  -42.0993 C.3       10 UNK        -0.1800 
     24 N          -2.7978  -19.1200  -41.4633 N.am      10 UNK        -0.5000 
     25 C          -2.8636  -17.9019  -40.9076 C.2       9 UNK         0.5000 
     26 O          -3.9189  -17.3196  -40.6541 O.2       9 UNK        -0.5000 
     27 CA         -1.5222  -17.2037  -40.6170 C.3       9 UNK         0.1400 
     28 CB         -0.9346  -17.6919  -39.2840 C.3       9 UNK        -0.1800 
     29 N          -0.5409  -17.3936  -41.6881 N.am      9 UNK        -0.5000 
     30 C          -0.6768  -16.9343  -42.9410 C.2       8 UNK         0.5000 
     31 O          -1.6226  -16.2423  -43.3144 O.2       8 UNK        -0.5000 
     32 CA          0.4080  -17.3273  -43.9612 C.3       8 UNK         0.1400 
     33 CB          1.4992  -16.2528  -44.0302 C.3       8 UNK        -0.1800 
     34 N           1.0288  -18.6242  -43.6887 N.am      8 UNK        -0.5000 
     35 C           0.4053  -19.8073  -43.7747 C.2       7 UNK         0.5000 
     36 O          -0.7702  -19.9393  -44.1144 O.2       7 UNK        -0.5000 
     37 CA          1.2280  -21.0478  -43.3971 C.3       7 UNK         0.1400 
     38 CB          2.1059  -21.4994  -44.5736 C.3       7 UNK        -0.1800 
     39 N           2.0593  -20.7937  -42.2225 N.am      7 UNK        -0.5000 
     40 C           1.5881  -20.7586  -40.9678 C.2       6 UNK         0.5000 
     41 O           0.4146  -20.9868  -40.6723 O.2       6 UNK        -0.5000 
     42 CA          2.5892  -20.3774  -39.8606 C.3       6 UNK         0.1400 
     43 CB          3.3258  -21.6234  -39.3468 C.3       6 UNK        -0.1800 
     44 N           3.5708  -19.3814  -40.2951 N.am      6 UNK        -0.5000 
     45 C           3.2713  -18.1147  -40.6147 C.2       5 UNK         0.5000 
     46 O           2.1354  -17.6477  -40.5574 O.2       5 UNK        -0.5000 
     47 CA          4.4245  -17.2346  -41.1297 C.3       5 UNK         0.1400 
     48 CB          5.1581  -16.5678  -39.9568 C.3       5 UNK        -0.1800 
     49 N           5.3944  -17.9477  -41.9654 N.am      5 UNK        -0.5000 
     50 C           5.1047  -18.5982  -43.0995 C.2       4 UNK         0.5000 
     51 O           3.9615  -18.7346  -43.5415 O.2       4 UNK        -0.5000 
     52 CA          6.2973  -19.1739  -43.8814 C.3       4 UNK         0.1400 
     53 CB          5.9958  -20.5862  -44.4101 C.3       4 UNK        -0.1800 
     54 N           6.6095  -18.3010  -45.0077 N.am      4 UNK        -0.5000 
     55 C           7.2072  -17.1044  -44.9175 C.2       3 UNK         0.5000 
     56 O           7.7027  -16.6645  -43.8791 O.2       3 UNK        -0.5000 
     57 CA          7.2430  -16.2488  -46.2015 C.3       3 UNK         0.1400 
     58 CB          8.5856  -16.4223  -46.9278 C.3       3 UNK        -0.1800 
     59 N           6.1511  -16.5633  -47.1293 N.am      3 UNK        -0.5000 
     60 C           4.8579  -16.3041  -46.8914 C.2       2 UNK         0.5000 
     61 O           4.4579  -15.6966  -45.8961 O.2       2 UNK        -0.5000 
     62 CA          3.8593  -16.8805  -47.9160 C.3       2 UNK         0.1400 
     63 CB          3.7525  -18.4070  -47.7456 C.3       2 UNK        -0.1800 
     64 N           2.5159  -16.3092  -47.8075 N.am      2 UNK        -0.5000 
     65 C           2.1845  -15.0346  -48.0584 C.2       1 UNK         0.5000 
     66 O           2.9863  -14.1848  -48.4523 O.2       1 UNK        -0.5000 
     67 C          -3.8944  -19.3453  -46.6102 C.2       11 UNK         0.5000 
     68 O          -3.3013  -19.3753  -47.6878 O.2       11 UNK        -0.5000 
     69 N          -4.8734  -20.2012  -46.2887 N.am      12 UNK        -0.5000 
     70 CA         -5.2770  -21.3482  -47.1024 C.3       12 UNK         0.1400 
     71 CB         -6.5002  -22.0260  -46.4702 C.3       12 UNK        -0.1800 
     72 C          -4.1311  -22.3601  -47.2859 C.2       12 UNK         0.5000 
     73 O          -3.9897  -22.9199  -48.3711 O.2       12 UNK        -0.5000 
     74 N          -3.3084  -22.5367  -46.2409 N.am      13 UNK        -0.5000 
     75 CA         -2.1042  -23.3675  -46.2556 C.3       13 UNK         0.1400 
     76 CB         -1.5793  -23.5343  -44.8231 C.3       13 UNK        -0.1800 
     77 C          -1.0117  -22.7999  -47.1794 C.2       13 UNK         0.5000 
     78 O          -0.4314  -23.5544  -47.9602 O.2       13 UNK        -0.5000 
     79 N          -0.7921  -21.4763  -47.1194 N.am      14 UNK        -0.5000 
     80 CA          0.1006  -20.7415  -48.0246 C.3       14 UNK         0.1400 
     81 CB          0.2302  -19.2822  -47.5604 C.3       14 UNK        -0.1800 
     82 C          -0.3632  -20.8056  -49.4924 C.2       14 UNK         0.5000 
     83 O           0.4657  -20.9108  -50.3952 O.2       14 UNK        -0.5000 
     84 N          -1.6865  -20.7988  -49.6876 N.am      15 UNK        -0.5000 
     85 CA         -2.3732  -20.9925  -50.9617 C.3       15 UNK         0.1400 
     86 CB         -3.7479  -20.3123  -50.8711 C.3       15 UNK        -0.1800 
     87 C          -2.5007  -22.4743  -51.3857 C.2       15 UNK         0.5000 
     88 O          -3.2872  -22.7643  -52.2863 O.2       15 UNK        -0.5000 
     89 N          -1.7532  -23.3887  -50.7473 N.am      16 UNK        -0.5000 
     90 CA         -1.6543  -24.8219  -51.0500 C.3       16 UNK         0.1400 
     91 CB         -0.9901  -25.0357  -52.4272 C.3       16 UNK        -0.1800 
     92 C          -3.0037  -25.5564  -50.9159 C.2       16 UNK         0.5000 
     93 O          -3.4503  -26.2150  -51.8552 O.2       16 UNK        -0.5000 
     94 N          -3.6482  -25.3860  -49.7536 N.am      17 UNK        -0.5000 
     95 CA         -5.0045  -25.8402  -49.4172 C.3       17 UNK         0.1400 
     96 CB         -5.1063  -27.3800  -49.4278 C.3       17 UNK        -0.1800 
     97 C          -6.0717  -25.1461  -50.2900 C.2       17 UNK         0.5000 
     98 O          -7.0471  -25.7730  -50.7055 O.2       17 UNK        -0.5000 
     99 N          -5.8308  -23.8558  -50.5643 N.am      18 UNK        -0.5000 
    100 CA        -6.6008  -22.9432  -51.4158 C.3       18 UNK         0.1400 
    101 CB        -8.0094  -22.7078  -50.8347 C.3       18 UNK        -0.1800 
    102 C         -6.6337  -23.3192  -52.9155 C.2       18 UNK         0.5000 
    103 O         -7.4036  -22.7193  -53.6671 O.2       18 UNK        -0.5000 
    104 N         -5.7931  -24.2707  -53.3469 N.am      19 UNK        -0.5000 
    105 CA        -5.6729  -24.6975  -54.7431 C.3       19 UNK         0.1400 
    106 CB        -4.9980  -26.0758  -54.7941 C.3       19 UNK        -0.1800 
    107 C         -4.8951  -23.6913  -55.6126 C.2       19 UNK         0.5000 
    108 O         -5.1107  -23.6462  -56.8242 O.2       19 UNK        -0.5000 
    109 N         -4.0139  -22.9058  -54.9838 N.am      20 UNK        -0.5000 
    110 CA        -3.1684  -21.8887  -55.5993 C.3       20 UNK         0.1400 
    111 CB        -1.6976  -22.3304  -55.4873 C.3       20 UNK        -0.1800 
    112 C         -3.4320  -20.5267  -54.9331 C.2       20 UNK         0.5000 
    113 O         -2.4924  -19.7888  -54.6306 O.2       20 UNK        -0.5000 
    114 N         -4.7150  -20.2067  -54.7119 N.am      21 UNK        -0.5000 
    115 CA        -5.2008  -18.9628  -54.1059 C.3       21 UNK         0.1400 
    116 CB        -6.6146  -19.2028  -53.5465 C.3       21 UNK        -0.1800 
    117 C         -5.1318  -17.7598  -55.0705 C.2       21 UNK         0.5000 
    118 O         -6.1463  -17.1129  -55.3351 O.2       21 UNK        -0.5000 
    119 N         -3.9226  -17.4872  -55.5726 N.am      22 UNK        -0.5000 
    120 CA        -3.5500  -16.3505  -56.4332 C.3       22 UNK         0.1400 
    121 C         -4.1566  -16.3773  -57.8706 C.2       22 UNK         0.5000 
    122 N         -4.7131  -17.4889  -58.3361 N.am      22 UNK        -0.7600 
    123 O         -4.0933  -15.3864  -58.5937 O.2       22 UNK        -0.5000 
    124 C124       -3.7384  -14.9740  -55.7348 C.3       23 UNK        -0.0398 
    125 S125       -2.8717  -14.8659  -54.1288 S.3       23 UNK        -0.2404 
    126 C126       -4.2688  -14.5526  -53.0011 C.3       23 UNK        -0.0205 
    127 H127       -1.9462  -16.6070  -50.9306 H         1 UNK         0.0600 
    128 H128       -2.0447  -17.2322  -49.2805 H         1 UNK         0.0600 
    129 H129       -0.9616  -17.9874  -50.4507 H         1 UNK         0.0600 
    130 H130       -1.0509  -15.8483  -47.8928 H         1 UNK         0.3000 
    131 H131        0.5551  -14.8736  -46.7668 H         1 UNK         0.0600 
    132 H132        1.0864  -12.5582  -47.4740 H         1 UNK         0.0800 
    133 H133       -0.5852  -12.9689  -47.4777 H         1 UNK         0.0800 
    134 H134       -1.5365  -11.1071  -50.5374 H         1 UNK         0.0800 
    135 H135       -1.7033  -11.3374  -48.8193 H         1 UNK         0.0800 
    136 H136       -2.4963  -12.6711  -52.1411 H         1 UNK         0.1150 
    137 H137       -5.0182  -15.8234  -50.6973 H         1 UNK         0.1150 
    138 H138       -2.7627  -13.4334  -47.9430 H         1 UNK         0.1150 
    139 H139       -5.3729  -15.0862  -47.6332 H         1 UNK         0.0800 
    140 H140       -4.8078  -16.5535  -48.4112 H         1 UNK         0.0800 
    141 H141       -5.2084  -17.0985  -45.8887 H         1 UNK         0.0800 
    142 H142       -4.1772  -16.5225  -44.6105 H         1 UNK         0.0800 
    143 H143       -2.3761  -18.1793  -45.7320 H         1 UNK         0.0600 
    144 H144       -2.4392  -19.1684  -43.8820 H         1 UNK         0.3000 
    145 H145       -4.7974  -19.7278  -41.3033 H         1 UNK         0.0600 
    146 H146       -3.3883  -21.7565  -41.1203 H         1 UNK         0.0600 
    147 H147       -4.4569  -21.9007  -42.5077 H         1 UNK         0.0600 
    148 H148       -2.7568  -21.5083  -42.7446 H         1 UNK         0.0600 
    149 H149       -1.8880  -19.5285  -41.6258 H         1 UNK         0.3000 
    150 H150       -1.7185  -16.1331  -40.5297 H         1 UNK         0.0600 
    151 H151       -1.6557  -17.5796  -38.4734 H         1 UNK         0.0600 
    152 H152       -0.0497  -17.1175  -39.0103 H         1 UNK         0.0600 
    153 H153       -0.6507  -18.7438  -39.3292 H         1 UNK         0.0600 
    154 H154        0.3238  -17.8593  -41.4342 H         1 UNK         0.3000 
    155 H155       -0.0705  -17.3857  -44.9408 H         1 UNK         0.0600 
    156 H156        2.0125  -16.1414  -43.0754 H         1 UNK         0.0600 
    157 H157        1.0803  -15.2812  -44.2942 H         1 UNK         0.0600 
    158 H158        2.2447  -16.5050  -44.7826 H         1 UNK         0.0600 
    159 H159        2.0170  -18.6150  -43.4520 H         1 UNK         0.3000 
    160 H160        0.5361  -21.8581  -43.1611 H         1 UNK         0.0600 
    161 H161        2.7239  -22.3549  -44.3013 H         1 UNK         0.0600 
    162 H162        2.7661  -20.7037  -44.9184 H         1 UNK         0.0600 
    163 H163        1.4916  -21.8017  -45.4215 H         1 UNK         0.0600 
    164 H164        3.0181  -20.5250  -42.3935 H         1 UNK         0.3000 
    165 H165        2.0190  -19.9513  -39.0323 H         1 UNK         0.0600 
    166 H166        3.9792  -21.3780  -38.5094 H         1 UNK         0.0600 
    167 H167        2.6195  -22.3772  -38.9961 H         1 UNK         0.0600 
    168 H168        3.9354  -22.0821  -40.1264 H         1 UNK         0.0600 
    169 H169        4.5303  -19.6847  -40.3737 H         1 UNK         0.3000 
    170 H170        3.9851  -16.4470  -41.7443 H         1 UNK         0.0600 
    171 H171        4.4631  -16.0097  -39.3278 H         1 UNK         0.0600 
    172 H172        5.6573  -17.3022  -39.3235 H         1 UNK         0.0600 
    173 H173        5.9102  -15.8628  -40.3115 H         1 UNK         0.0600 
    174 H174        6.3648  -17.8526  -41.7013 H         1 UNK         0.3000 
    175 H175        7.1648  -19.2357  -43.2210 H         1 UNK         0.0600 
    176 H176        5.1849  -20.5829  -45.1392 H         1 UNK         0.0600 
    177 H177        6.8727  -21.0198  -44.8911 H         1 UNK         0.0600 
    178 H178        5.7062  -21.2549  -43.5985 H         1 UNK         0.0600 
    179 H179        6.2144  -18.5641  -45.8970 H         1 UNK         0.3000 
    180 H180        7.1476  -15.2026  -45.9030 H         1 UNK         0.0600 
    181 H181        8.7323  -17.4494  -47.2643 H         1 UNK         0.0600 
    182 H182        9.4197  -16.1698  -46.2715 H         1 UNK         0.0600 
    183 H183        8.6506  -15.7698  -47.7987 H         1 UNK         0.0600 
    184 H184        6.4074  -17.0573  -47.9722 H         1 UNK         0.3000 
    185 H185        4.2372  -16.6625  -48.9169 H         1 UNK         0.0600 
    186 H186        4.7277  -18.8878  -47.8273 H         1 UNK         0.0600 
    187 H187        3.3372  -18.6756  -46.7726 H         1 UNK         0.0600 
    188 H188        3.1225  -18.8470  -48.5181 H         1 UNK         0.0600 
    189 H189        1.7933  -16.9312  -47.4826 H         1 UNK         0.3000 
    190 H190       -5.3254  -20.0829  -45.3874 H         1 UNK         0.3000 
    191 H191       -5.5638  -20.9794  -48.0884 H         1 UNK         0.0600 
    192 H192       -6.8299  -22.8744  -47.0719 H         1 UNK         0.0600 
    193 H193       -7.3396  -21.3343  -46.3982 H         1 UNK         0.0600 
    194 H194       -6.2840  -22.3965  -45.4673 H         1 UNK         0.0600 
    195 H195       -3.5015  -22.0308  -45.3904 H         1 UNK         0.3000 
    196 H196       -2.3788  -24.3548  -46.6333 H         1 UNK         0.0600 
    197 H197       -0.6726  -24.1404  -44.8047 H         1 UNK         0.0600 
    198 H198       -2.3149  -24.0293  -44.1889 H         1 UNK         0.0600 
    199 H199       -1.3420  -22.5729  -44.3711 H         1 UNK         0.0600 
    200 H200       -1.3086  -20.9281  -46.4471 H         1 UNK         0.3000 
    201 H201        1.0889  -21.2034  -47.9747 H         1 UNK         0.0600 
    202 H202        0.7632  -19.2169  -46.6136 H         1 UNK         0.0600 
    203 H203       -0.7405  -18.8045  -47.4377 H         1 UNK         0.0600 
    204 H204        0.7866  -18.6926  -48.2883 H         1 UNK         0.0600 
    205 H205       -2.2850  -20.6358  -48.8845 H         1 UNK         0.3000 
    206 H206       -1.8042  -20.4914  -51.7475 H         1 UNK         0.0600 
    207 H207       -3.6479  -19.2431  -50.6827 H         1 UNK         0.0600 
    208 H208       -4.3071  -20.4298  -51.7967 H         1 UNK         0.0600 
    209 H209       -4.3514  -20.7373  -50.0712 H         1 UNK         0.0600 
    210 H210       -1.1788  -23.0744  -49.9754 H         1 UNK         0.3000 
    211 H211       -0.9933  -25.2508  -50.2956 H         1 UNK         0.0600 
    212 H212       -0.0316  -24.5204  -52.4872 H         1 UNK         0.0600 
    213 H213       -1.6169  -24.6734  -53.2429 H         1 UNK         0.0600 
    214 H214       -0.8019  -26.0945  -52.6082 H         1 UNK         0.0600 
    215 H215       -3.2515  -24.7266  -49.0940 H         1 UNK         0.3000 
    216 H216       -5.1901  -25.5089  -48.3945 H         1 UNK         0.0600 
    217 H217       -6.0670  -27.7080  -49.0295 H         1 UNK         0.0600 
    218 H218       -4.3289  -27.8305  -48.8110 H         1 UNK         0.0600 
    219 H219       -5.0165  -27.7892  -50.4343 H         1 UNK         0.0600 
    220 H220       -4.9965  -23.4577  -50.1475 H         1 UNK         0.3000 
    221 H221       -6.0740  -21.9913  -51.3698 H         1 UNK         0.0600 
    222 H222       -8.6311  -23.6006  -50.9049 H         1 UNK         0.0600 
    223 H223       -7.9590  -22.4140  -49.7862 H         1 UNK         0.0600 
    224 H224       -8.5254  -21.9090  -51.3687 H         1 UNK         0.0600 
    225 H225       -5.1597  -24.6985  -52.6840 H         1 UNK         0.3000 
    226 H226       -6.6765  -24.7963  -55.1620 H         1 UNK         0.0600 
    227 H227       -4.9923  -26.4688  -55.8115 H         1 UNK         0.0600 
    228 H228       -3.9617  -26.0275  -54.4579 H         1 UNK         0.0600 
    229 H229       -5.5216  -26.7982  -54.1676 H         1 UNK         0.0600 
    230 H230       -3.9103  -22.9916  -53.9729 H         1 UNK         0.3000 
    231 H231       -3.4114  -21.7736  -56.6572 H         1 UNK         0.0600 
    232 H232       -1.5423  -23.3034  -55.9536 H         1 UNK         0.0600 
    233 H233       -1.3788  -22.4041  -54.4468 H         1 UNK         0.0600 
    234 H234       -1.0353  -21.6220  -55.9861 H         1 UNK         0.0600 
    235 H235       -5.4230  -20.8683  -54.9971 H         1 UNK         0.3000 
    236 H236       -4.5538  -18.7068  -53.2653 H         1 UNK         0.0600 
    237 H237       -6.6161  -20.0005  -52.8044 H         1 UNK         0.0600 
    238 H238       -7.0006  -18.3081  -53.0563 H         1 UNK         0.0600 
    239 H239       -7.3175  -19.4782  -54.3336 H         1 UNK         0.0600 
    240 H240       -3.1622  -18.1041  -55.3016 H         1 UNK         0.3000 
    241 H241       -2.4792  -16.4712  -56.5996 H         1 UNK         0.0600 
    242 H242       -4.7756  -18.3101  -57.7568 H         1 UNK         0.3800 
    243 H243       -5.0927  -17.5012  -59.2699 H         1 UNK         0.3800 
    244 H244       -3.3455  -14.1732  -56.3632 H         1 UNK         0.0800 
    245 H245       -4.7994  -14.7568  -55.6041 H         1 UNK         0.0800 
    246 H246       -4.9465  -15.4069  -53.0308 H         1 UNK         0.0800 
    247 H247       -4.8351  -13.6915  -53.3587 H         1 UNK         0.0800 
@<TRIPOS>BOND
     1    1    2 1    
     2    1  127 1    
     3    1  128 1    
     4    1  129 1    
     5    2    3 2    
     6    2    4 am   BACKBONE|DICT|INTERRES
     7    4    5 1    
     8    4  130 1    
     9    5    6 1    
    10    5   65 1    
    11    5  131 1    
    12    6    7 1    
    13    6  132 1    
    14    6  133 1    
    15    7    8 1    
    16    8    9 1    
    17    8  134 1    
    18    8  135 1    
    19    9   10 ar   
    20    9   14 ar   
    21   10   11 ar   
    22   10  136 1    
    23   11   12 ar   
    24   11  126 1    
    25   12   13 ar   
    26   12  137 1    
    27   13   14 ar   
    28   13   15 1    
    29   14  138 1    
    30   15   16 1    
    31   15  139 1    
    32   15  140 1    
    33   16   17 1    
    34   17   18 1    
    35   17  141 1    
    36   17  142 1    
    37   18   19 1    
    38   18   67 1    
    39   18  143 1    
    40   19   20 am   BACKBONE|DICT|INTERRES
    41   19  144 1    
    42   20   21 2    
    43   20   22 1    
    44   22   23 1    
    45   22   24 1    
    46   22  145 1    
    47   23  146 1    
    48   23  147 1    
    49   23  148 1    
    50   24   25 am   BACKBONE|DICT|INTERRES
    51   24  149 1    
    52   25   26 2    
    53   25   27 1    
    54   27   28 1    
    55   27   29 1    
    56   27  150 1    
    57   28  151 1    
    58   28  152 1    
    59   28  153 1    
    60   29   30 am   BACKBONE|DICT|INTERRES
    61   29  154 1    
    62   30   31 2    
    63   30   32 1    
    64   32   33 1    
    65   32   34 1    
    66   32  155 1    
    67   33  156 1    
    68   33  157 1    
    69   33  158 1    
    70   34   35 am   BACKBONE|DICT|INTERRES
    71   34  159 1    
    72   35   36 2    
    73   35   37 1    
    74   37   38 1    
    75   37   39 1    
    76   37  160 1    
    77   38  161 1    
    78   38  162 1    
    79   38  163 1    
    80   39   40 am   BACKBONE|DICT|INTERRES
    81   39  164 1    
    82   40   41 2    
    83   40   42 1    
    84   42   43 1    
    85   42   44 1    
    86   42  165 1    
    87   43  166 1    
    88   43  167 1    
    89   43  168 1    
    90   44   45 am   BACKBONE|DICT|INTERRES
    91   44  169 1    
    92   45   46 2    
    93   45   47 1    
    94   47   48 1    
    95   47   49 1    
    96   47  170 1    
    97   48  171 1    
    98   48  172 1    
    99   48  173 1    
   100   49   50 am   BACKBONE|DICT|INTERRES
   101   49  174 1    
   102   50   51 2    
   103   50   52 1    
   104   52   53 1    
   105   52   54 1    
   106   52  175 1    
   107   53  176 1    
   108   53  177 1    
   109   53  178 1    
   110   54   55 am   BACKBONE|DICT|INTERRES
   111   54  179 1    
   112   55   56 2    
   113   55   57 1    
   114   57   58 1    
   115   57   59 1    
   116   57  180 1    
   117   58  181 1    
   118   58  182 1    
   119   58  183 1    
   120   59   60 am   BACKBONE|DICT|INTERRES
   121   59  184 1    
   122   60   61 2    
   123   60   62 1    
   124   62   63 1    
   125   62   64 1    
   126   62  185 1    
   127   63  186 1    
   128   63  187 1    
   129   63  188 1    
   130   64   65 am   BACKBONE|DICT|INTERRES
   131   64  189 1    
   132   65   66 2    
   133   67   68 2    
   134   67   69 am   BACKBONE|DICT|INTERRES
   135   69   70 1    
   136   69  190 1    
   137   70   71 1    
   138   70   72 1    
   139   70  191 1    
   140   71  192 1    
   141   71  193 1    
   142   71  194 1    
   143   72   73 2    
   144   72   74 am   BACKBONE|DICT|INTERRES
   145   74   75 1    
   146   74  195 1    
   147   75   76 1    
   148   75   77 1    
   149   75  196 1    
   150   76  197 1    
   151   76  198 1    
   152   76  199 1    
   153   77   78 2    
   154   77   79 am   BACKBONE|DICT|INTERRES
   155   79   80 1    
   156   79  200 1    
   157   80   81 1    
   158   80   82 1    
   159   80  201 1    
   160   81  202 1    
   161   81  203 1    
   162   81  204 1    
   163   82   83 2    
   164   82   84 am   BACKBONE|DICT|INTERRES
   165   84   85 1    
   166   84  205 1    
   167   85   86 1    
   168   85   87 1    
   169   85  206 1    
   170   86  207 1    
   171   86  208 1    
   172   86  209 1    
   173   87   88 2    
   174   87   89 am   BACKBONE|DICT|INTERRES
   175   89   90 1    
   176   89  210 1    
   177   90   91 1    
   178   90   92 1    
   179   90  211 1    
   180   91  212 1    
   181   91  213 1    
   182   91  214 1    
   183   92   93 2    
   184   92   94 am   BACKBONE|DICT|INTERRES
   185   94   95 1    
   186   94  215 1    
   187   95   96 1    
   188   95   97 1    
   189   95  216 1    
   190   96  217 1    
   191   96  218 1    
   192   96  219 1    
   193   97   98 2    
   194   97   99 am   BACKBONE|DICT|INTERRES
   195   99  100 1    
   196   99  220 1    
   197  100  101 1    
   198  100  102 1    
   199  100  221 1    
   200  101  222 1    
   201  101  223 1    
   202  101  224 1    
   203  102  103 2    
   204  102  104 am   BACKBONE|DICT|INTERRES
   205  104  105 1    
   206  104  225 1    
   207  105  106 1    
   208  105  107 1    
   209  105  226 1    
   210  106  227 1    
   211  106  228 1    
   212  106  229 1    
   213  107  108 2    
   214  107  109 am   BACKBONE|DICT|INTERRES
   215  109  110 1    
   216  109  230 1    
   217  110  111 1    
   218  110  112 1    
   219  110  231 1    
   220  111  232 1    
   221  111  233 1    
   222  111  234 1    
   223  112  113 2    
   224  112  114 am   BACKBONE|DICT|INTERRES
   225  114  115 1    
   226  114  235 1    
   227  115  116 1    
   228  115  117 1    
   229  115  236 1    
   230  116  237 1    
   231  116  238 1    
   232  116  239 1    
   233  117  118 2    
   234  117  119 am   BACKBONE|DICT|INTERRES
   235  119  120 1    
   236  119  240 1    
   237  120  121 1    
   238  120  124 1    
   239  120  241 1    
   240  121  122 am   BACKBONE|DICT|INTERRES
   241  121  123 2    
   242  122  242 1    
   243  122  243 1    
   244  124  125 1    
   245  124  244 1    
   246  124  245 1    
   247  125  126 1    
   248  126  246 1    
   249  126  247 1    
@<TRIPOS>SUBSTRUCTURE
     1 UNK         1 GROUP             0       ****    0 ROOT    
