@<TRIPOS>MOLECULE
3R540
247   249    1
SMALL
USER_CHARGES


@<TRIPOS>ATOM
      1 CA          0.8807  -11.6351  -51.6104 C.3       0 UNK        -0.1800 
      2 C           0.5905  -12.2033  -50.2289 C.2       0 UNK         0.5000 
      3 O          -0.5239  -12.6609  -49.9808 O.2       0 UNK        -0.5000 
      4 N           1.5914  -12.1744  -49.3364 N.am      1 UNK        -0.5000 
      5 CA          1.5511  -12.6895  -47.9574 C.3       1 UNK         0.1400 
      6 C6          1.4264  -14.2366  -47.8734 C.3       23 UNK        -0.0398 
      7 S7          2.8795  -15.0991  -48.5677 S.3       23 UNK        -0.2404 
      8 C8          2.3331  -15.5549  -50.2448 C.3       23 UNK        -0.0205 
      9 C9          1.2719  -16.6445  -50.2411 C.ar      23 UNK        -0.0193 
     10 C10        -0.0780  -16.3134  -50.3877 C.ar      23 UNK        -0.1150 
     11 C11        -1.0555  -17.3102  -50.3991 C.ar      23 UNK        -0.0193 
     12 C12        -0.6736  -18.6493  -50.2786 C.ar      23 UNK        -0.1150 
     13 C13         0.6732  -18.9958  -50.1423 C.ar      23 UNK        -0.0193 
     14 C14         1.6416  -17.9875  -50.1198 C.ar      23 UNK        -0.1150 
     15 C15         1.0858  -20.4571  -50.0418 C.3       23 UNK        -0.0205 
     16 S16         1.1755  -21.0222  -48.3153 S.3       23 UNK        -0.2404 
     17 C17        -0.5921  -21.1845  -47.8962 C.3       23 UNK        -0.0398 
     18 CA         -0.8359  -22.2604  -46.8083 C.3       11 UNK         0.1400 
     19 N          -0.3202  -21.8371  -45.5043 N.am      11 UNK        -0.5000 
     20 C          -0.0199  -22.6401  -44.4760 C.2       10 UNK         0.5000 
     21 O          -0.0723  -23.8700  -44.5341 O.2       10 UNK        -0.5000 
     22 CA          0.3698  -21.9614  -43.1496 C.3       10 UNK         0.1400 
     23 CB          1.8904  -21.7596  -43.0707 C.3       10 UNK        -0.1800 
     24 N          -0.3130  -20.6819  -42.9377 N.am      10 UNK        -0.5000 
     25 C          -1.6306  -20.5514  -42.7201 C.2       9 UNK         0.5000 
     26 O          -2.4028  -21.5057  -42.6210 O.2       9 UNK        -0.5000 
     27 CA         -2.1866  -19.1191  -42.5997 C.3       9 UNK         0.1400 
     28 CB         -2.0317  -18.5972  -41.1633 C.3       9 UNK        -0.1800 
     29 N          -1.5622  -18.1778  -43.5297 N.am      9 UNK        -0.5000 
     30 C          -1.6924  -18.2218  -44.8639 C.2       8 UNK         0.5000 
     31 O          -2.3973  -19.0386  -45.4544 O.2       8 UNK        -0.5000 
     32 CA         -0.8544  -17.2128  -45.6746 C.3       8 UNK         0.1400 
     33 CB         -1.5421  -15.8401  -45.7227 C.3       8 UNK        -0.1800 
     34 N           0.5058  -17.0656  -45.1504 N.am      8 UNK        -0.5000 
     35 C           1.3982  -18.0648  -45.0847 C.2       7 UNK         0.5000 
     36 O           1.1831  -19.2025  -45.4970 O.2       7 UNK        -0.5000 
     37 CA          2.7222  -17.7643  -44.3656 C.3       7 UNK         0.1400 
     38 CB          3.7091  -17.0406  -45.2944 C.3       7 UNK        -0.1800 
     39 N           2.4993  -16.9807  -43.1499 N.am      7 UNK        -0.5000 
     40 C           1.9637  -17.4842  -42.0270 C.2       6 UNK         0.5000 
     41 O           1.6469  -18.6657  -41.8978 O.2       6 UNK        -0.5000 
     42 CA          1.7023  -16.5080  -40.8635 C.3       6 UNK         0.1400 
     43 CB          2.9424  -16.3975  -39.9645 C.3       6 UNK        -0.1800 
     44 N           1.3118  -15.1722  -41.3114 N.am      6 UNK        -0.5000 
     45 C           0.1911  -14.8905  -41.9903 C.2       5 UNK         0.5000 
     46 O          -0.6766  -15.7242  -42.2459 O.2       5 UNK        -0.5000 
     47 CA          0.0413  -13.4504  -42.5186 C.3       5 UNK         0.1400 
     48 CB         -0.7801  -12.5971  -41.5419 C.3       5 UNK        -0.1800 
     49 N           1.3166  -12.7788  -42.7867 N.am      5 UNK        -0.5000 
     50 C           2.2487  -13.2027  -43.6501 C.2       4 UNK         0.5000 
     51 O           2.1592  -14.2600  -44.2754 O.2       4 UNK        -0.5000 
     52 CA          3.4746  -12.2880  -43.8380 C.3       4 UNK         0.1400 
     53 CB          4.4861  -12.8558  -44.8507 C.3       4 UNK        -0.1800 
     54 N           3.0676  -10.9497  -44.2665 N.am      4 UNK        -0.5000 
     55 C           2.6407   -9.9699  -43.4578 C.2       3 UNK         0.5000 
     56 O           2.5712  -10.0774  -42.2330 O.2       3 UNK        -0.5000 
     57 CA          2.1638   -8.6793  -44.1449 C.3       3 UNK         0.1400 
     58 CB          3.3580   -7.8083  -44.5644 C.3       3 UNK        -0.1800 
     59 N           1.3399   -8.9786  -45.3170 N.am      3 UNK        -0.5000 
     60 C           0.0592   -9.3725  -45.2575 C.2       2 UNK         0.5000 
     61 O          -0.5908   -9.4459  -44.2143 O.2       2 UNK        -0.5000 
     62 CA         -0.5883   -9.7801  -46.5924 C.3       2 UNK         0.1400 
     63 CB         -0.9503   -8.5450  -47.4320 C.3       2 UNK        -0.1800 
     64 N           0.2881  -10.6593  -47.3676 N.am      2 UNK        -0.5000 
     65 C           0.5209  -11.9468  -47.0705 C.2       1 UNK         0.5000 
     66 O          -0.0258  -12.5280  -46.1334 O.2       1 UNK        -0.5000 
     67 C          -2.3228  -22.6758  -46.7127 C.2       11 UNK         0.5000 
     68 O          -3.1894  -22.0436  -47.3197 O.2       11 UNK        -0.5000 
     69 N          -2.5916  -23.7530  -45.9638 N.am      12 UNK        -0.5000 
     70 CA         -3.8716  -24.4581  -45.9406 C.3       12 UNK         0.1400 
     71 CB         -3.8664  -25.4680  -44.7839 C.3       12 UNK        -0.1800 
     72 C          -4.1061  -25.1727  -47.2832 C.2       12 UNK         0.5000 
     73 O          -3.1522  -25.7051  -47.8557 O.2       12 UNK        -0.5000 
     74 N          -5.3605  -25.1757  -47.7555 N.am      13 UNK        -0.5000 
     75 CA         -5.7776  -25.5681  -49.1102 C.3       13 UNK         0.1400 
     76 CB         -7.3056  -25.4577  -49.2157 C.3       13 UNK        -0.1800 
     77 C          -5.3033  -26.9513  -49.5978 C.2       13 UNK         0.5000 
     78 O          -5.1130  -27.1318  -50.8011 O.2       13 UNK        -0.5000 
     79 N          -5.0715  -27.8811  -48.6612 N.am      14 UNK        -0.5000 
     80 CA         -4.5024  -29.2097  -48.8994 C.3       14 UNK         0.1400 
     81 CB         -4.5068  -29.9919  -47.5771 C.3       14 UNK        -0.1800 
     82 C          -3.0842  -29.1963  -49.5120 C.2       14 UNK         0.5000 
     83 O          -2.6989  -30.1792  -50.1463 O.2       14 UNK        -0.5000 
     84 N          -2.3392  -28.0941  -49.3351 N.am      15 UNK        -0.5000 
     85 CA         -1.0230  -27.8762  -49.9405 C.3       15 UNK         0.1400 
     86 CB         -0.3132  -26.7327  -49.1984 C.3       15 UNK        -0.1800 
     87 C          -1.0827  -27.5847  -51.4557 C.2       15 UNK         0.5000 
     88 O          -0.0670  -27.7539  -52.1323 O.2       15 UNK        -0.5000 
     89 N          -2.2592  -27.1708  -51.9548 N.am      16 UNK        -0.5000 
     90 CA         -2.5677  -26.8038  -53.3416 C.3       16 UNK         0.1400 
     91 CB         -2.4444  -28.0369  -54.2635 C.3       16 UNK        -0.1800 
     92 C          -1.7662  -25.5843  -53.8551 C.2       16 UNK         0.5000 
     93 O          -1.1542  -24.8603  -53.0651 O.2       16 UNK        -0.5000 
     94 N          -1.8251  -25.3472  -55.1746 N.am      17 UNK        -0.5000 
     95 CA         -1.2126  -24.2249  -55.8950 C.3       17 UNK         0.1400 
     96 CB          0.3248  -24.3810  -55.9312 C.3       17 UNK        -0.1800 
     97 C          -1.7023  -22.8720  -55.3366 C.2       17 UNK         0.5000 
     98 O          -2.9054  -22.6100  -55.3774 O.2       17 UNK        -0.5000 
     99 N          -0.7910  -22.0608  -54.7817 N.am      18 UNK        -0.5000 
    100 CA        -1.0852  -20.7804  -54.1323 C.3       18 UNK         0.1400 
    101 CB         0.2334  -20.0989  -53.7385 C.3       18 UNK        -0.1800 
    102 C         -2.0196  -20.8966  -52.9118 C.2       18 UNK         0.5000 
    103 O         -2.7243  -19.9378  -52.5991 O.2       18 UNK        -0.5000 
    104 N         -2.0671  -22.0714  -52.2667 N.am      19 UNK        -0.5000 
    105 CA        -2.9730  -22.3509  -51.1516 C.3       19 UNK         0.1400 
    106 CB        -2.5460  -23.6446  -50.4553 C.3       19 UNK        -0.1800 
    107 C         -4.4616  -22.4040  -51.5530 C.2       19 UNK         0.5000 
    108 O         -5.3205  -22.3251  -50.6770 O.2       19 UNK        -0.5000 
    109 N         -4.7577  -22.4989  -52.8574 N.am      20 UNK        -0.5000 
    110 CA        -6.1125  -22.3482  -53.3879 C.3       20 UNK         0.1400 
    111 CB        -6.1758  -22.9608  -54.7951 C.3       20 UNK        -0.1800 
    112 C         -6.5779  -20.8765  -53.4154 C.2       20 UNK         0.5000 
    113 O         -7.7851  -20.6341  -53.4418 O.2       20 UNK        -0.5000 
    114 N         -5.6326  -19.9228  -53.4192 N.am      21 UNK        -0.5000 
    115 CA        -5.9123  -18.4868  -53.4759 C.3       21 UNK         0.1400 
    116 CB        -4.7488  -17.7676  -54.1773 C.3       21 UNK        -0.1800 
    117 C         -6.1679  -17.8702  -52.0887 C.2       21 UNK         0.5000 
    118 O         -6.8553  -16.8511  -52.0092 O.2       21 UNK        -0.5000 
    119 N         -5.6275  -18.4814  -51.0269 N.am      22 UNK        -0.5000 
    120 CA        -5.8101  -18.0510  -49.6324 C.3       22 UNK         0.1400 
    121 C         -5.5308  -19.2046  -48.6318 C.2       22 UNK         0.5000 
    122 N         -4.4250  -19.9213  -48.7852 N.am      22 UNK        -0.7600 
    123 O         -6.3290  -19.4581  -47.7337 O.2       22 UNK        -0.5000 
    124 C124       -5.0703  -16.7187  -49.2904 C.3       23 UNK        -0.0398 
    125 S125       -3.2898  -16.8380  -48.8869 S.3       23 UNK        -0.2404 
    126 C126       -2.5237  -16.9428  -50.5294 C.3       23 UNK        -0.0205 
    127 H127        0.2051  -10.8071  -51.8250 H         1 UNK         0.0600 
    128 H128        1.9045  -11.2695  -51.6928 H         1 UNK         0.0600 
    129 H129        0.7323  -12.4034  -52.3692 H         1 UNK         0.0600 
    130 H130        2.4810  -11.7872  -49.6196 H         1 UNK         0.3000 
    131 H131        2.5164  -12.4250  -47.5260 H         1 UNK         0.0600 
    132 H132        1.3620  -14.5584  -46.8332 H         1 UNK         0.0800 
    133 H133        0.5077  -14.5818  -48.3449 H         1 UNK         0.0800 
    134 H134        1.9743  -14.6716  -50.7719 H         1 UNK         0.0800 
    135 H135        3.2005  -15.9033  -50.8071 H         1 UNK         0.0800 
    136 H136       -0.3716  -15.2780  -50.4851 H         1 UNK         0.1150 
    137 H137       -1.4274  -19.4219  -50.2899 H         1 UNK         0.1150 
    138 H138        2.6851  -18.2478  -50.0110 H         1 UNK         0.1150 
    139 H139        0.3982  -21.0902  -50.6043 H         1 UNK         0.0800 
    140 H140        2.0647  -20.5923  -50.5040 H         1 UNK         0.0800 
    141 H141       -1.1244  -21.4466  -48.8102 H         1 UNK         0.0800 
    142 H142       -0.9777  -20.2133  -47.5809 H         1 UNK         0.0800 
    143 H143       -0.2934  -23.1583  -47.1129 H         1 UNK         0.0600 
    144 H144       -0.1919  -20.8387  -45.3834 H         1 UNK         0.3000 
    145 H145        0.0781  -22.6337  -42.3401 H         1 UNK         0.0600 
    146 H146        2.1858  -21.3616  -42.1000 H         1 UNK         0.0600 
    147 H147        2.4171  -22.7049  -43.2071 H         1 UNK         0.0600 
    148 H148        2.2464  -21.0727  -43.8384 H         1 UNK         0.0600 
    149 H149        0.2689  -19.8519  -42.9430 H         1 UNK         0.3000 
    150 H150       -3.2528  -19.1580  -42.8320 H         1 UNK         0.0600 
    151 H151       -2.5166  -19.2651  -40.4504 H         1 UNK         0.0600 
    152 H152       -2.4875  -17.6134  -41.0496 H         1 UNK         0.0600 
    153 H153       -0.9832  -18.5153  -40.8762 H         1 UNK         0.0600 
    154 H154       -1.0191  -17.4244  -43.1179 H         1 UNK         0.3000 
    155 H155       -0.7790  -17.5904  -46.6972 H         1 UNK         0.0600 
    156 H156       -1.0266  -15.1630  -46.4023 H         1 UNK         0.0600 
    157 H157       -1.5784  -15.3680  -44.7417 H         1 UNK         0.0600 
    158 H158       -2.5693  -15.9310  -46.0766 H         1 UNK         0.0600 
    159 H159        0.7637  -16.1622  -44.7756 H         1 UNK         0.3000 
    160 H160        3.1738  -18.7171  -44.0810 H         1 UNK         0.0600 
    161 H161        3.3096  -16.0952  -45.6594 H         1 UNK         0.0600 
    162 H162        3.9356  -17.6523  -46.1685 H         1 UNK         0.0600 
    163 H163        4.6513  -16.8334  -44.7873 H         1 UNK         0.0600 
    164 H164        2.6488  -15.9817  -43.2258 H         1 UNK         0.3000 
    165 H165        0.8830  -16.9147  -40.2671 H         1 UNK         0.0600 
    166 H166        3.7918  -15.9714  -40.4999 H         1 UNK         0.0600 
    167 H167        2.7445  -15.7716  -39.0941 H         1 UNK         0.0600 
    168 H168        3.2452  -17.3786  -39.5959 H         1 UNK         0.0600 
    169 H169        1.9688  -14.4245  -41.1453 H         1 UNK         0.3000 
    170 H170       -0.5017  -13.5056  -43.4641 H         1 UNK         0.0600 
    171 H171       -1.7490  -13.0562  -41.3410 H         1 UNK         0.0600 
    172 H172       -0.2686  -12.4745  -40.5865 H         1 UNK         0.0600 
    173 H173       -0.9703  -11.6046  -41.9519 H         1 UNK         0.0600 
    174 H174        1.4722  -11.8901  -42.3252 H         1 UNK         0.3000 
    175 H175        3.9791  -12.2183  -42.8721 H         1 UNK         0.0600 
    176 H176        5.3520  -12.2016  -44.9531 H         1 UNK         0.0600 
    177 H177        4.8542  -13.8307  -44.5282 H         1 UNK         0.0600 
    178 H178        4.0450  -12.9867  -45.8384 H         1 UNK         0.0600 
    179 H179        3.0611  -10.7819  -45.2603 H         1 UNK         0.3000 
    180 H180        1.5672   -8.1132  -43.4260 H         1 UNK         0.0600 
    181 H181        3.9913   -8.3105  -45.2967 H         1 UNK         0.0600 
    182 H182        3.9821   -7.5632  -43.7040 H         1 UNK         0.0600 
    183 H183        3.0236   -6.8667  -45.0003 H         1 UNK         0.0600 
    184 H184        1.7901   -8.9282  -46.2185 H         1 UNK         0.3000 
    185 H185       -1.5119  -10.3186  -46.3683 H         1 UNK         0.0600 
    186 H186       -1.4702   -8.8308  -48.3467 H         1 UNK         0.0600 
    187 H187       -1.6123   -7.8781  -46.8779 H         1 UNK         0.0600 
    188 H188       -0.0671   -7.9708  -47.7142 H         1 UNK         0.0600 
    189 H189        0.7521  -10.2577  -48.1692 H         1 UNK         0.3000 
    190 H190       -1.8163  -24.1949  -45.4819 H         1 UNK         0.3000 
    191 H191       -4.6672  -23.7291  -45.7735 H         1 UNK         0.0600 
    192 H192       -3.7064  -24.9696  -43.8275 H         1 UNK         0.0600 
    193 H193       -4.8188  -25.9958  -44.7209 H         1 UNK         0.0600 
    194 H194       -3.0825  -26.2167  -44.9070 H         1 UNK         0.0600 
    195 H195       -6.0771  -24.7376  -47.1951 H         1 UNK         0.3000 
    196 H196       -5.3427  -24.8389  -49.7941 H         1 UNK         0.0600 
    197 H197       -7.6499  -25.7205  -50.2170 H         1 UNK         0.0600 
    198 H198       -7.6413  -24.4394  -49.0181 H         1 UNK         0.0600 
    199 H199       -7.8059  -26.1221  -48.5102 H         1 UNK         0.0600 
    200 H200       -5.2346  -27.6279  -47.6980 H         1 UNK         0.3000 
    201 H201       -5.1552  -29.7258  -49.6062 H         1 UNK         0.0600 
    202 H202       -5.5168  -30.0887  -47.1782 H         1 UNK         0.0600 
    203 H203       -3.8909  -29.5038  -46.8206 H         1 UNK         0.0600 
    204 H204       -4.1167  -31.0008  -47.7174 H         1 UNK         0.0600 
    205 H205       -2.7172  -27.3213  -48.7917 H         1 UNK         0.3000 
    206 H206       -0.4304  -28.7834  -49.8057 H         1 UNK         0.0600 
    207 H207       -0.8522  -25.7916  -49.3031 H         1 UNK         0.0600 
    208 H208       -0.2218  -26.9484  -48.1338 H         1 UNK         0.0600 
    209 H209        0.6936  -26.5782  -49.5882 H         1 UNK         0.0600 
    210 H210       -3.0374  -27.0866  -51.3119 H         1 UNK         0.3000 
    211 H211       -3.6144  -26.4963  -53.3355 H         1 UNK         0.0600 
    212 H212       -1.4037  -28.3191  -54.4259 H         1 UNK         0.0600 
    213 H213       -2.8920  -27.8535  -55.2405 H         1 UNK         0.0600 
    214 H214       -2.9597  -28.8979  -53.8371 H         1 UNK         0.0600 
    215 H215       -2.3833  -25.9679  -55.7429 H         1 UNK         0.3000 
    216 H216       -1.5743  -24.2775  -56.9228 H         1 UNK         0.0600 
    217 H217        0.6056  -25.3274  -56.3936 H         1 UNK         0.0600 
    218 H218        0.7685  -24.3611  -54.9352 H         1 UNK         0.0600 
    219 H219        0.7883  -23.5893  -56.5211 H         1 UNK         0.0600 
    220 H220        0.1709  -22.3667  -54.7614 H         1 UNK         0.3000 
    221 H221       -1.5916  -20.1463  -54.8629 H         1 UNK         0.0600 
    222 H222        0.8167  -20.7156  -53.0545 H         1 UNK         0.0600 
    223 H223        0.8493  -19.8963  -54.6148 H         1 UNK         0.0600 
    224 H224        0.0495  -19.1432  -53.2452 H         1 UNK         0.0600 
    225 H225       -1.5068  -22.8494  -52.6003 H         1 UNK         0.3000 
    226 H226       -2.8642  -21.5389  -50.4324 H         1 UNK         0.0600 
    227 H227       -1.4771  -23.6539  -50.2431 H         1 UNK         0.0600 
    228 H228       -3.0674  -23.7365  -49.5066 H         1 UNK         0.0600 
    229 H229       -2.7889  -24.5270  -51.0453 H         1 UNK         0.0600 
    230 H230       -4.0086  -22.5615  -53.5377 H         1 UNK         0.3000 
    231 H231       -6.8027  -22.9038  -52.7493 H         1 UNK         0.0600 
    232 H232       -7.1976  -22.9535  -55.1762 H         1 UNK         0.0600 
    233 H233       -5.8362  -23.9967  -54.7927 H         1 UNK         0.0600 
    234 H234       -5.5603  -22.4062  -55.5040 H         1 UNK         0.0600 
    235 H235       -4.6565  -20.1860  -53.3541 H         1 UNK         0.3000 
    236 H236       -6.8089  -18.3243  -54.0781 H         1 UNK         0.0600 
    237 H237       -4.9809  -16.7126  -54.3281 H         1 UNK         0.0600 
    238 H238       -3.8287  -17.8150  -53.5952 H         1 UNK         0.0600 
    239 H239       -4.5493  -18.1995  -55.1581 H         1 UNK         0.0600 
    240 H240       -5.1245  -19.3465  -51.1616 H         1 UNK         0.3000 
    241 H241       -6.8772  -17.8416  -49.5294 H         1 UNK         0.0600 
    242 H242       -3.7264  -19.6281  -49.4435 H         1 UNK         0.3800 
    243 H243       -4.2156  -20.6821  -48.1437 H         1 UNK         0.3800 
    244 H244       -5.2001  -15.9843  -50.0856 H         1 UNK         0.0800 
    245 H245       -5.5508  -16.2747  -48.4176 H         1 UNK         0.0800 
    246 H246       -3.0322  -17.6916  -51.1352 H         1 UNK         0.0800 
    247 H247       -2.6399  -15.9903  -51.0487 H         1 UNK         0.0800 
@<TRIPOS>BOND
     1    1    2 1    
     2    1  127 1    
     3    1  128 1    
     4    1  129 1    
     5    2    3 2    
     6    2    4 am   BACKBONE|DICT|INTERRES
     7    4    5 1    
     8    4  130 1    
     9    5    6 1    
    10    5   65 1    
    11    5  131 1    
    12    6    7 1    
    13    6  132 1    
    14    6  133 1    
    15    7    8 1    
    16    8    9 1    
    17    8  134 1    
    18    8  135 1    
    19    9   10 ar   
    20    9   14 ar   
    21   10   11 ar   
    22   10  136 1    
    23   11   12 ar   
    24   11  126 1    
    25   12   13 ar   
    26   12  137 1    
    27   13   14 ar   
    28   13   15 1    
    29   14  138 1    
    30   15   16 1    
    31   15  139 1    
    32   15  140 1    
    33   16   17 1    
    34   17   18 1    
    35   17  141 1    
    36   17  142 1    
    37   18   19 1    
    38   18   67 1    
    39   18  143 1    
    40   19   20 am   BACKBONE|DICT|INTERRES
    41   19  144 1    
    42   20   21 2    
    43   20   22 1    
    44   22   23 1    
    45   22   24 1    
    46   22  145 1    
    47   23  146 1    
    48   23  147 1    
    49   23  148 1    
    50   24   25 am   BACKBONE|DICT|INTERRES
    51   24  149 1    
    52   25   26 2    
    53   25   27 1    
    54   27   28 1    
    55   27   29 1    
    56   27  150 1    
    57   28  151 1    
    58   28  152 1    
    59   28  153 1    
    60   29   30 am   BACKBONE|DICT|INTERRES
    61   29  154 1    
    62   30   31 2    
    63   30   32 1    
    64   32   33 1    
    65   32   34 1    
    66   32  155 1    
    67   33  156 1    
    68   33  157 1    
    69   33  158 1    
    70   34   35 am   BACKBONE|DICT|INTERRES
    71   34  159 1    
    72   35   36 2    
    73   35   37 1    
    74   37   38 1    
    75   37   39 1    
    76   37  160 1    
    77   38  161 1    
    78   38  162 1    
    79   38  163 1    
    80   39   40 am   BACKBONE|DICT|INTERRES
    81   39  164 1    
    82   40   41 2    
    83   40   42 1    
    84   42   43 1    
    85   42   44 1    
    86   42  165 1    
    87   43  166 1    
    88   43  167 1    
    89   43  168 1    
    90   44   45 am   BACKBONE|DICT|INTERRES
    91   44  169 1    
    92   45   46 2    
    93   45   47 1    
    94   47   48 1    
    95   47   49 1    
    96   47  170 1    
    97   48  171 1    
    98   48  172 1    
    99   48  173 1    
   100   49   50 am   BACKBONE|DICT|INTERRES
   101   49  174 1    
   102   50   51 2    
   103   50   52 1    
   104   52   53 1    
   105   52   54 1    
   106   52  175 1    
   107   53  176 1    
   108   53  177 1    
   109   53  178 1    
   110   54   55 am   BACKBONE|DICT|INTERRES
   111   54  179 1    
   112   55   56 2    
   113   55   57 1    
   114   57   58 1    
   115   57   59 1    
   116   57  180 1    
   117   58  181 1    
   118   58  182 1    
   119   58  183 1    
   120   59   60 am   BACKBONE|DICT|INTERRES
   121   59  184 1    
   122   60   61 2    
   123   60   62 1    
   124   62   63 1    
   125   62   64 1    
   126   62  185 1    
   127   63  186 1    
   128   63  187 1    
   129   63  188 1    
   130   64   65 am   BACKBONE|DICT|INTERRES
   131   64  189 1    
   132   65   66 2    
   133   67   68 2    
   134   67   69 am   BACKBONE|DICT|INTERRES
   135   69   70 1    
   136   69  190 1    
   137   70   71 1    
   138   70   72 1    
   139   70  191 1    
   140   71  192 1    
   141   71  193 1    
   142   71  194 1    
   143   72   73 2    
   144   72   74 am   BACKBONE|DICT|INTERRES
   145   74   75 1    
   146   74  195 1    
   147   75   76 1    
   148   75   77 1    
   149   75  196 1    
   150   76  197 1    
   151   76  198 1    
   152   76  199 1    
   153   77   78 2    
   154   77   79 am   BACKBONE|DICT|INTERRES
   155   79   80 1    
   156   79  200 1    
   157   80   81 1    
   158   80   82 1    
   159   80  201 1    
   160   81  202 1    
   161   81  203 1    
   162   81  204 1    
   163   82   83 2    
   164   82   84 am   BACKBONE|DICT|INTERRES
   165   84   85 1    
   166   84  205 1    
   167   85   86 1    
   168   85   87 1    
   169   85  206 1    
   170   86  207 1    
   171   86  208 1    
   172   86  209 1    
   173   87   88 2    
   174   87   89 am   BACKBONE|DICT|INTERRES
   175   89   90 1    
   176   89  210 1    
   177   90   91 1    
   178   90   92 1    
   179   90  211 1    
   180   91  212 1    
   181   91  213 1    
   182   91  214 1    
   183   92   93 2    
   184   92   94 am   BACKBONE|DICT|INTERRES
   185   94   95 1    
   186   94  215 1    
   187   95   96 1    
   188   95   97 1    
   189   95  216 1    
   190   96  217 1    
   191   96  218 1    
   192   96  219 1    
   193   97   98 2    
   194   97   99 am   BACKBONE|DICT|INTERRES
   195   99  100 1    
   196   99  220 1    
   197  100  101 1    
   198  100  102 1    
   199  100  221 1    
   200  101  222 1    
   201  101  223 1    
   202  101  224 1    
   203  102  103 2    
   204  102  104 am   BACKBONE|DICT|INTERRES
   205  104  105 1    
   206  104  225 1    
   207  105  106 1    
   208  105  107 1    
   209  105  226 1    
   210  106  227 1    
   211  106  228 1    
   212  106  229 1    
   213  107  108 2    
   214  107  109 am   BACKBONE|DICT|INTERRES
   215  109  110 1    
   216  109  230 1    
   217  110  111 1    
   218  110  112 1    
   219  110  231 1    
   220  111  232 1    
   221  111  233 1    
   222  111  234 1    
   223  112  113 2    
   224  112  114 am   BACKBONE|DICT|INTERRES
   225  114  115 1    
   226  114  235 1    
   227  115  116 1    
   228  115  117 1    
   229  115  236 1    
   230  116  237 1    
   231  116  238 1    
   232  116  239 1    
   233  117  118 2    
   234  117  119 am   BACKBONE|DICT|INTERRES
   235  119  120 1    
   236  119  240 1    
   237  120  121 1    
   238  120  124 1    
   239  120  241 1    
   240  121  122 am   BACKBONE|DICT|INTERRES
   241  121  123 2    
   242  122  242 1    
   243  122  243 1    
   244  124  125 1    
   245  124  244 1    
   246  124  245 1    
   247  125  126 1    
   248  126  246 1    
   249  126  247 1    
@<TRIPOS>SUBSTRUCTURE
     1 UNK         1 GROUP             0       ****    0 ROOT    
