@<TRIPOS>MOLECULE
3R540
247   249    1
SMALL
USER_CHARGES


@<TRIPOS>ATOM
      1 CA         -1.7622  -11.4954  -51.1708 C.3       0 UNK        -0.1800 
      2 C          -1.7094  -12.1866  -49.8164 C.2       0 UNK         0.5000 
      3 O          -1.0443  -13.2109  -49.6760 O.2       0 UNK        -0.5000 
      4 N          -2.3918  -11.6256  -48.8110 N.am      1 UNK        -0.5000 
      5 CA         -2.4892  -12.1405  -47.4381 C.3       1 UNK         0.1400 
      6 C6         -3.8419  -11.7229  -46.8001 C.3       23 UNK        -0.0398 
      7 S7         -4.4505  -12.8773  -45.5224 S.3       23 UNK        -0.2404 
      8 C8         -5.4702  -14.0404  -46.4909 C.3       23 UNK        -0.0205 
      9 C9         -4.7164  -15.3333  -46.7579 C.ar      23 UNK        -0.0193 
     10 C10        -3.9160  -15.4694  -47.8960 C.ar      23 UNK        -0.1150 
     11 C11        -3.1608  -16.6282  -48.0952 C.ar      23 UNK        -0.0193 
     12 C12        -3.2439  -17.6705  -47.1699 C.ar      23 UNK        -0.1150 
     13 C13        -4.0668  -17.5623  -46.0471 C.ar      23 UNK        -0.0193 
     14 C14        -4.7999  -16.3895  -45.8456 C.ar      23 UNK        -0.1150 
     15 C15        -4.1440  -18.6976  -45.0393 C.3       23 UNK        -0.0205 
     16 S16        -3.1886  -18.2906  -43.5505 S.3       23 UNK        -0.2404 
     17 C17        -3.3140  -19.8317  -42.5876 C.3       23 UNK        -0.0398 
     18 CA         -1.9626  -20.6045  -42.5578 C.3       11 UNK         0.1400 
     19 N          -1.5674  -21.0237  -41.2107 N.am      11 UNK        -0.5000 
     20 C          -2.2211  -21.8804  -40.4115 C.2       10 UNK         0.5000 
     21 O          -3.2961  -22.4013  -40.7098 O.2       10 UNK        -0.5000 
     22 CA         -1.5651  -22.2355  -39.0585 C.3       10 UNK         0.1400 
     23 CB         -1.0946  -23.6992  -39.0640 C.3       10 UNK        -0.1800 
     24 N          -0.4208  -21.3857  -38.7236 N.am      10 UNK        -0.5000 
     25 C          -0.4904  -20.1114  -38.3135 C.2       9 UNK         0.5000 
     26 O          -1.5466  -19.5310  -38.0623 O.2       9 UNK        -0.5000 
     27 CA          0.8468  -19.3472  -38.2065 C.3       9 UNK         0.1400 
     28 CB          1.3418  -19.3309  -36.7523 C.3       9 UNK        -0.1800 
     29 N           1.9083  -19.8862  -39.0681 N.am      9 UNK        -0.5000 
     30 C           1.8659  -19.9217  -40.4067 C.2       8 UNK         0.5000 
     31 O           0.9182  -19.4969  -41.0727 O.2       8 UNK        -0.5000 
     32 CA          3.0416  -20.6094  -41.1106 C.3       8 UNK         0.1400 
     33 CB          2.9393  -22.1397  -40.9677 C.3       8 UNK        -0.1800 
     34 N           3.0179  -20.2458  -42.5217 N.am      8 UNK        -0.5000 
     35 C           4.0564  -20.2708  -43.3597 C.2       7 UNK         0.5000 
     36 O           5.1845  -20.6343  -43.0237 O.2       7 UNK        -0.5000 
     37 CA          3.8281  -19.7972  -44.8091 C.3       7 UNK         0.1400 
     38 CB          3.7094  -20.9936  -45.7729 C.3       7 UNK        -0.1800 
     39 N           2.7205  -18.8530  -45.0023 N.am      7 UNK        -0.5000 
     40 C           1.3977  -19.0635  -44.9407 C.2       6 UNK         0.5000 
     41 O           0.8847  -20.1156  -44.5657 O.2       6 UNK        -0.5000 
     42 CA          0.4961  -17.8912  -45.3747 C.3       6 UNK         0.1400 
     43 CB          0.1642  -17.0001  -44.1695 C.3       6 UNK        -0.1800 
     44 N           1.0985  -17.0695  -46.4276 N.am      6 UNK        -0.5000 
     45 C           1.3944  -17.4924  -47.6664 C.2       5 UNK         0.5000 
     46 O           1.0968  -18.6031  -48.1036 O.2       5 UNK        -0.5000 
     47 CA          2.1923  -16.5220  -48.5542 C.3       5 UNK         0.1400 
     48 CB          1.2674  -15.5067  -49.2393 C.3       5 UNK        -0.1800 
     49 N           3.2104  -15.8083  -47.7842 N.am      5 UNK        -0.5000 
     50 C           4.3997  -16.3232  -47.4415 C.2       4 UNK         0.5000 
     51 O           4.7842  -17.4432  -47.7774 O.2       4 UNK        -0.5000 
     52 CA          5.3110  -15.4443  -46.5629 C.3       4 UNK         0.1400 
     53 CB          6.2267  -14.5758  -47.4386 C.3       4 UNK        -0.1800 
     54 N           4.5625  -14.5797  -45.6494 N.am      4 UNK        -0.5000 
     55 C           3.8530  -15.0169  -44.5997 C.2       3 UNK         0.5000 
     56 O           3.7871  -16.1997  -44.2665 O.2       3 UNK        -0.5000 
     57 CA          3.0421  -13.9576  -43.8269 C.3       3 UNK         0.1400 
     58 CB          3.8984  -13.3265  -42.7192 C.3       3 UNK        -0.1800 
     59 N           2.5018  -12.8989  -44.6876 N.am      3 UNK        -0.5000 
     60 C           1.6288  -13.1023  -45.6829 C.2       2 UNK         0.5000 
     61 O           1.1949  -14.2151  -45.9898 O.2       2 UNK        -0.5000 
     62 CA          1.2453  -11.8731  -46.5211 C.3       2 UNK         0.1400 
     63 CB          2.2870  -11.6484  -47.6287 C.3       2 UNK        -0.1800 
     64 N          -0.0582  -12.0646  -47.1490 N.am      2 UNK        -0.5000 
     65 C          -1.2413  -11.7720  -46.5980 C.2       1 UNK         0.5000 
     66 O          -1.3582  -11.2167  -45.5040 O.2       1 UNK        -0.5000 
     67 C          -1.8617  -21.7772  -43.5609 C.2       11 UNK         0.5000 
     68 O          -2.7439  -21.9773  -44.3987 O.2       11 UNK        -0.5000 
     69 N          -0.7728  -22.5507  -43.4384 N.am      12 UNK        -0.5000 
     70 CA         -0.4389  -23.7375  -44.2271 C.3       12 UNK         0.1400 
     71 CB          0.6102  -24.5537  -43.4504 C.3       12 UNK        -0.1800 
     72 C           0.0193  -23.3976  -45.6637 C.2       12 UNK         0.5000 
     73 O           1.1030  -23.8005  -46.0880 O.2       12 UNK        -0.5000 
     74 N          -0.8322  -22.6748  -46.3973 N.am      13 UNK        -0.5000 
     75 CA         -0.6033  -22.1823  -47.7566 C.3       13 UNK         0.1400 
     76 CB         -1.3757  -20.8652  -47.9191 C.3       13 UNK        -0.1800 
     77 C          -0.9891  -23.1984  -48.8524 C.2       13 UNK         0.5000 
     78 O          -1.1884  -22.7981  -50.0002 O.2       13 UNK        -0.5000 
     79 N          -1.1237  -24.4830  -48.4867 N.am      14 UNK        -0.5000 
     80 CA         -1.4771  -25.6190  -49.3476 C.3       14 UNK         0.1400 
     81 CB         -0.3295  -25.9248  -50.3335 C.3       14 UNK        -0.1800 
     82 C          -2.8350  -25.4236  -50.0523 C.2       14 UNK         0.5000 
     83 O          -2.9326  -25.5957  -51.2677 O.2       14 UNK        -0.5000 
     84 N          -3.8482  -25.0175  -49.2711 N.am      15 UNK        -0.5000 
     85 CA         -5.2074  -24.6727  -49.7089 C.3       15 UNK         0.1400 
     86 CB         -5.9565  -25.9255  -50.2112 C.3       15 UNK        -0.1800 
     87 C          -5.2112  -23.5178  -50.7326 C.2       15 UNK         0.5000 
     88 O          -5.8521  -23.6176  -51.7795 O.2       15 UNK        -0.5000 
     89 N          -4.4502  -22.4590  -50.4175 N.am      16 UNK        -0.5000 
     90 CA         -4.1978  -21.2757  -51.2467 C.3       16 UNK         0.1400 
     91 CB         -5.4819  -20.4352  -51.4111 C.3       16 UNK        -0.1800 
     92 C          -3.5416  -21.6436  -52.5925 C.2       16 UNK         0.5000 
     93 O          -4.0186  -21.2255  -53.6508 O.2       16 UNK        -0.5000 
     94 N          -2.4615  -22.4335  -52.5126 N.am      17 UNK        -0.5000 
     95 CA         -1.6906  -23.0022  -53.6220 C.3       17 UNK         0.1400 
     96 CB         -0.9258  -21.8926  -54.3737 C.3       17 UNK        -0.1800 
     97 C          -2.5537  -23.8858  -54.5478 C.2       17 UNK         0.5000 
     98 O          -2.4909  -23.7497  -55.7696 O.2       17 UNK        -0.5000 
     99 N          -3.3554  -24.7670  -53.9323 N.am      18 UNK        -0.5000 
    100 CA        -4.3528  -25.6468  -54.5471 C.3       18 UNK         0.1400 
    101 CB        -3.6736  -26.7272  -55.4145 C.3       18 UNK        -0.1800 
    102 C         -5.4452  -24.8540  -55.2950 C.2       18 UNK         0.5000 
    103 O         -5.7190  -25.1223  -56.4667 O.2       18 UNK        -0.5000 
    104 N         -6.0417  -23.8856  -54.5843 N.am      19 UNK        -0.5000 
    105 CA        -7.0946  -22.9682  -55.0268 C.3       19 UNK         0.1400 
    106 CB        -8.4138  -23.7312  -55.2683 C.3       19 UNK        -0.1800 
    107 C         -6.6691  -22.0901  -56.2226 C.2       19 UNK         0.5000 
    108 O         -7.4336  -21.9249  -57.1754 O.2       19 UNK        -0.5000 
    109 N         -5.4558  -21.5316  -56.1398 N.am      20 UNK        -0.5000 
    110 CA        -4.8592  -20.6426  -57.1390 C.3       20 UNK         0.1400 
    111 CB        -3.5780  -21.2901  -57.6902 C.3       20 UNK        -0.1800 
    112 C         -4.5901  -19.2481  -56.5427 C.2       20 UNK         0.5000 
    113 O         -3.6794  -18.5527  -56.9971 O.2       20 UNK        -0.5000 
    114 N         -5.3704  -18.8713  -55.5166 N.am      21 UNK        -0.5000 
    115 CA        -5.3301  -17.5966  -54.7875 C.3       21 UNK         0.1400 
    116 CB        -5.8607  -16.4554  -55.6798 C.3       21 UNK        -0.1800 
    117 C         -3.9470  -17.2845  -54.1749 C.2       21 UNK         0.5000 
    118 O         -3.5342  -16.1241  -54.1378 O.2       21 UNK        -0.5000 
    119 N         -3.2557  -18.3410  -53.7271 N.am      22 UNK        -0.5000 
    120 CA        -1.8869  -18.3264  -53.1831 C.3       22 UNK         0.1400 
    121 C         -0.7742  -18.0891  -54.2502 C.2       22 UNK         0.5000 
    122 N         -1.0667  -18.1169  -55.5461 N.am      22 UNK        -0.7600 
    123 O          0.3888  -17.9092  -53.9004 O.2       22 UNK        -0.5000 
    124 C124       -1.7121  -17.4135  -51.9347 C.3       23 UNK        -0.0398 
    125 S125       -2.9510  -17.7162  -50.6289 S.3       23 UNK        -0.2404 
    126 C126       -2.2231  -16.7404  -49.2841 C.3       23 UNK        -0.0205 
    127 H127       -0.7594  -11.2006  -51.4799 H         1 UNK         0.0600 
    128 H128       -2.3882  -10.6031  -51.1472 H         1 UNK         0.0600 
    129 H129       -2.1657  -12.1749  -51.9215 H         1 UNK         0.0600 
    130 H130       -2.8794  -10.7575  -48.9819 H         1 UNK         0.3000 
    131 H131       -2.4744  -13.2281  -47.4969 H         1 UNK         0.0600 
    132 H132       -3.7810  -10.7220  -46.3694 H         1 UNK         0.0800 
    133 H133       -4.6130  -11.6481  -47.5677 H         1 UNK         0.0800 
    134 H134       -6.3799  -14.2563  -45.9285 H         1 UNK         0.0800 
    135 H135       -5.7991  -13.5911  -47.4286 H         1 UNK         0.0800 
    136 H136       -3.8558  -14.6620  -48.6120 H         1 UNK         0.1150 
    137 H137       -2.6605  -18.5630  -47.3245 H         1 UNK         0.1150 
    138 H138       -5.4164  -16.2909  -44.9630 H         1 UNK         0.1150 
    139 H139       -5.1847  -18.8817  -44.7688 H         1 UNK         0.0800 
    140 H140       -3.7638  -19.6231  -45.4748 H         1 UNK         0.0800 
    141 H141       -4.1457  -20.4455  -42.9371 H         1 UNK         0.0800 
    142 H142       -3.5956  -19.5271  -41.5787 H         1 UNK         0.0800 
    143 H143       -1.1712  -19.9153  -42.8537 H         1 UNK         0.0600 
    144 H144       -0.7008  -20.6117  -40.8814 H         1 UNK         0.3000 
    145 H145       -2.3255  -22.1193  -38.2835 H         1 UNK         0.0600 
    146 H146       -0.6770  -23.9835  -38.0979 H         1 UNK         0.0600 
    147 H147       -1.9243  -24.3773  -39.2685 H         1 UNK         0.0600 
    148 H148       -0.3330  -23.8746  -39.8251 H         1 UNK         0.0600 
    149 H149        0.4938  -21.7813  -38.8819 H         1 UNK         0.3000 
    150 H150        0.6574  -18.3172  -38.5158 H         1 UNK         0.0600 
    151 H151        0.5868  -18.9098  -36.0869 H         1 UNK         0.0600 
    152 H152        2.2400  -18.7220  -36.6475 H         1 UNK         0.0600 
    153 H153        1.5716  -20.3351  -36.3940 H         1 UNK         0.0600 
    154 H154        2.7166  -20.2642  -38.5946 H         1 UNK         0.3000 
    155 H155        3.9700  -20.2533  -40.6593 H         1 UNK         0.0600 
    156 H156        2.9850  -22.4432  -39.9213 H         1 UNK         0.0600 
    157 H157        3.7580  -22.6427  -41.4826 H         1 UNK         0.0600 
    158 H158        2.0038  -22.5192  -41.3797 H         1 UNK         0.0600 
    159 H159        2.1165  -19.9343  -42.8690 H         1 UNK         0.3000 
    160 H160        4.7242  -19.2417  -45.0902 H         1 UNK         0.0600 
    161 H161        2.8548  -21.6267  -45.5326 H         1 UNK         0.0600 
    162 H162        4.6001  -21.6211  -45.7264 H         1 UNK         0.0600 
    163 H163        3.5995  -20.6589  -46.8046 H         1 UNK         0.0600 
    164 H164        3.0168  -17.9022  -45.1917 H         1 UNK         0.3000 
    165 H165       -0.4360  -18.3087  -45.7593 H         1 UNK         0.0600 
    166 H166       -0.5549  -16.2256  -44.4381 H         1 UNK         0.0600 
    167 H167       -0.2701  -17.5836  -43.3572 H         1 UNK         0.0600 
    168 H168        1.0543  -16.5122  -43.7745 H         1 UNK         0.0600 
    169 H169        1.3049  -16.1042  -46.1854 H         1 UNK         0.3000 
    170 H170        2.6868  -17.1045  -49.3348 H         1 UNK         0.0600 
    171 H171        0.5913  -16.0046  -49.9336 H         1 UNK         0.0600 
    172 H172        0.6566  -14.9640  -48.5175 H         1 UNK         0.0600 
    173 H173        1.8348  -14.7753  -49.8148 H         1 UNK         0.0600 
    174 H174        2.9482  -14.9048  -47.4187 H         1 UNK         0.3000 
    175 H175        5.9385  -16.1099  -45.9661 H         1 UNK         0.0600 
    176 H176        5.6555  -13.8723  -48.0458 H         1 UNK         0.0600 
    177 H177        6.9274  -14.0035  -46.8303 H         1 UNK         0.0600 
    178 H178        6.8166  -15.1925  -48.1180 H         1 UNK         0.0600 
    179 H179        4.5686  -13.5904  -45.8483 H         1 UNK         0.3000 
    180 H180        2.1988  -14.4652  -43.3554 H         1 UNK         0.0600 
    181 H181        4.7456  -12.7748  -43.1285 H         1 UNK         0.0600 
    182 H182        4.2964  -14.0911  -42.0505 H         1 UNK         0.0600 
    183 H183        3.3114  -12.6387  -42.1104 H         1 UNK         0.0600 
    184 H184        2.8260  -11.9604  -44.5025 H         1 UNK         0.3000 
    185 H185        1.2180  -10.9930  -45.8751 H         1 UNK         0.0600 
    186 H186        3.2793  -11.4779  -47.2094 H         1 UNK         0.0600 
    187 H187        2.3553  -12.5062  -48.2994 H         1 UNK         0.0600 
    188 H188        2.0368  -10.7747  -48.2310 H         1 UNK         0.0600 
    189 H189       -0.0690  -12.5598  -48.0345 H         1 UNK         0.3000 
    190 H190       -0.0794  -22.2668  -42.7638 H         1 UNK         0.3000 
    191 H191       -1.3380  -24.3507  -44.3149 H         1 UNK         0.0600 
    192 H192        0.2532  -24.8106  -42.4528 H         1 UNK         0.0600 
    193 H193        0.8363  -25.4896  -43.9629 H         1 UNK         0.0600 
    194 H194        1.5464  -24.0045  -43.3420 H         1 UNK         0.0600 
    195 H195       -1.6942  -22.3825  -45.9451 H         1 UNK         0.3000 
    196 H196        0.4594  -21.9638  -47.8810 H         1 UNK         0.0600 
    197 H197       -1.1764  -20.3993  -48.8853 H         1 UNK         0.0600 
    198 H198       -1.0700  -20.1539  -47.1530 H         1 UNK         0.0600 
    199 H199       -2.4529  -21.0131  -47.8349 H         1 UNK         0.0600 
    200 H200       -0.9398  -24.7050  -47.5192 H         1 UNK         0.3000 
    201 H201       -1.5912  -26.4852  -48.6945 H         1 UNK         0.0600 
    202 H202        0.6104  -26.0852  -49.8055 H         1 UNK         0.0600 
    203 H203       -0.1785  -25.1137  -51.0465 H         1 UNK         0.0600 
    204 H204       -0.5374  -26.8289  -50.9069 H         1 UNK         0.0600 
    205 H205       -3.6600  -24.8907  -48.2867 H         1 UNK         0.3000 
    206 H206       -5.7361  -24.3039  -48.8288 H         1 UNK         0.0600 
    207 H207       -5.9520  -26.7147  -49.4596 H         1 UNK         0.0600 
    208 H208       -6.9992  -25.6936  -50.4314 H         1 UNK         0.0600 
    209 H209       -5.5139  -26.3285  -51.1226 H         1 UNK         0.0600 
    210 H210       -3.9275  -22.5020  -49.5553 H         1 UNK         0.3000 
    211 H211       -3.4698  -20.6706  -50.7052 H         1 UNK         0.0600 
    212 H212       -6.2450  -20.9615  -51.9851 H         1 UNK         0.0600 
    213 H213       -5.2723  -19.4992  -51.9289 H         1 UNK         0.0600 
    214 H214       -5.9085  -20.1772  -50.4420 H         1 UNK         0.0600 
    215 H215       -2.1269  -22.6884  -51.5848 H         1 UNK         0.3000 
    216 H216       -0.9508  -23.6656  -53.1718 H         1 UNK         0.0600 
    217 H217       -0.2879  -22.3138  -55.1512 H         1 UNK         0.0600 
    218 H218       -0.2811  -21.3328  -53.6963 H         1 UNK         0.0600 
    219 H219       -1.6017  -21.1851  -54.8537 H         1 UNK         0.0600 
    220 H220       -3.2867  -24.8450  -52.9193 H         1 UNK         0.3000 
    221 H221       -4.8545  -26.1568  -53.7234 H         1 UNK         0.0600 
    222 H222       -3.1757  -26.2987  -56.2847 H         1 UNK         0.0600 
    223 H223       -2.9301  -27.2809  -54.8412 H         1 UNK         0.0600 
    224 H224       -4.4052  -27.4487  -55.7798 H         1 UNK         0.0600 
    225 H225       -5.7631  -23.7671  -53.6117 H         1 UNK         0.3000 
    226 H226       -7.2620  -22.2831  -54.1945 H         1 UNK         0.0600 
    227 H227       -8.6967  -24.3141  -54.3917 H         1 UNK         0.0600 
    228 H228       -9.2324  -23.0409  -55.4753 H         1 UNK         0.0600 
    229 H229       -8.3393  -24.4135  -56.1155 H         1 UNK         0.0600 
    230 H230       -4.9033  -21.6782  -55.2976 H         1 UNK         0.3000 
    231 H231       -5.5439  -20.4923  -57.9755 H         1 UNK         0.0600 
    232 H232       -2.8010  -21.3483  -56.9283 H         1 UNK         0.0600 
    233 H233       -3.1754  -20.7169  -58.5260 H         1 UNK         0.0600 
    234 H234       -3.7694  -22.3009  -58.0508 H         1 UNK         0.0600 
    235 H235       -6.0600  -19.5362  -55.1977 H         1 UNK         0.3000 
    236 H236       -6.0145  -17.7027  -53.9447 H         1 UNK         0.0600 
    237 H237       -6.8458  -16.6939  -56.0807 H         1 UNK         0.0600 
    238 H238       -5.9585  -15.5278  -55.1145 H         1 UNK         0.0600 
    239 H239       -5.1951  -16.2581  -56.5208 H         1 UNK         0.0600 
    240 H240       -3.6679  -19.2617  -53.8361 H         1 UNK         0.3000 
    241 H241       -1.7115  -19.3464  -52.8433 H         1 UNK         0.0600 
    242 H242       -0.3297  -17.9727  -56.2174 H         1 UNK         0.3800 
    243 H243       -2.0169  -18.2522  -55.8737 H         1 UNK         0.3800 
    244 H244       -0.7241  -17.5695  -51.4982 H         1 UNK         0.0800 
    245 H245       -1.7549  -16.3605  -52.2162 H         1 UNK         0.0800 
    246 H246       -1.2917  -17.2101  -48.9680 H         1 UNK         0.0800 
    247 H247       -1.9637  -15.7473  -49.6534 H         1 UNK         0.0800 
@<TRIPOS>BOND
     1    1    2 1    
     2    1  127 1    
     3    1  128 1    
     4    1  129 1    
     5    2    3 2    
     6    2    4 am   BACKBONE|DICT|INTERRES
     7    4    5 1    
     8    4  130 1    
     9    5    6 1    
    10    5   65 1    
    11    5  131 1    
    12    6    7 1    
    13    6  132 1    
    14    6  133 1    
    15    7    8 1    
    16    8    9 1    
    17    8  134 1    
    18    8  135 1    
    19    9   10 ar   
    20    9   14 ar   
    21   10   11 ar   
    22   10  136 1    
    23   11   12 ar   
    24   11  126 1    
    25   12   13 ar   
    26   12  137 1    
    27   13   14 ar   
    28   13   15 1    
    29   14  138 1    
    30   15   16 1    
    31   15  139 1    
    32   15  140 1    
    33   16   17 1    
    34   17   18 1    
    35   17  141 1    
    36   17  142 1    
    37   18   19 1    
    38   18   67 1    
    39   18  143 1    
    40   19   20 am   BACKBONE|DICT|INTERRES
    41   19  144 1    
    42   20   21 2    
    43   20   22 1    
    44   22   23 1    
    45   22   24 1    
    46   22  145 1    
    47   23  146 1    
    48   23  147 1    
    49   23  148 1    
    50   24   25 am   BACKBONE|DICT|INTERRES
    51   24  149 1    
    52   25   26 2    
    53   25   27 1    
    54   27   28 1    
    55   27   29 1    
    56   27  150 1    
    57   28  151 1    
    58   28  152 1    
    59   28  153 1    
    60   29   30 am   BACKBONE|DICT|INTERRES
    61   29  154 1    
    62   30   31 2    
    63   30   32 1    
    64   32   33 1    
    65   32   34 1    
    66   32  155 1    
    67   33  156 1    
    68   33  157 1    
    69   33  158 1    
    70   34   35 am   BACKBONE|DICT|INTERRES
    71   34  159 1    
    72   35   36 2    
    73   35   37 1    
    74   37   38 1    
    75   37   39 1    
    76   37  160 1    
    77   38  161 1    
    78   38  162 1    
    79   38  163 1    
    80   39   40 am   BACKBONE|DICT|INTERRES
    81   39  164 1    
    82   40   41 2    
    83   40   42 1    
    84   42   43 1    
    85   42   44 1    
    86   42  165 1    
    87   43  166 1    
    88   43  167 1    
    89   43  168 1    
    90   44   45 am   BACKBONE|DICT|INTERRES
    91   44  169 1    
    92   45   46 2    
    93   45   47 1    
    94   47   48 1    
    95   47   49 1    
    96   47  170 1    
    97   48  171 1    
    98   48  172 1    
    99   48  173 1    
   100   49   50 am   BACKBONE|DICT|INTERRES
   101   49  174 1    
   102   50   51 2    
   103   50   52 1    
   104   52   53 1    
   105   52   54 1    
   106   52  175 1    
   107   53  176 1    
   108   53  177 1    
   109   53  178 1    
   110   54   55 am   BACKBONE|DICT|INTERRES
   111   54  179 1    
   112   55   56 2    
   113   55   57 1    
   114   57   58 1    
   115   57   59 1    
   116   57  180 1    
   117   58  181 1    
   118   58  182 1    
   119   58  183 1    
   120   59   60 am   BACKBONE|DICT|INTERRES
   121   59  184 1    
   122   60   61 2    
   123   60   62 1    
   124   62   63 1    
   125   62   64 1    
   126   62  185 1    
   127   63  186 1    
   128   63  187 1    
   129   63  188 1    
   130   64   65 am   BACKBONE|DICT|INTERRES
   131   64  189 1    
   132   65   66 2    
   133   67   68 2    
   134   67   69 am   BACKBONE|DICT|INTERRES
   135   69   70 1    
   136   69  190 1    
   137   70   71 1    
   138   70   72 1    
   139   70  191 1    
   140   71  192 1    
   141   71  193 1    
   142   71  194 1    
   143   72   73 2    
   144   72   74 am   BACKBONE|DICT|INTERRES
   145   74   75 1    
   146   74  195 1    
   147   75   76 1    
   148   75   77 1    
   149   75  196 1    
   150   76  197 1    
   151   76  198 1    
   152   76  199 1    
   153   77   78 2    
   154   77   79 am   BACKBONE|DICT|INTERRES
   155   79   80 1    
   156   79  200 1    
   157   80   81 1    
   158   80   82 1    
   159   80  201 1    
   160   81  202 1    
   161   81  203 1    
   162   81  204 1    
   163   82   83 2    
   164   82   84 am   BACKBONE|DICT|INTERRES
   165   84   85 1    
   166   84  205 1    
   167   85   86 1    
   168   85   87 1    
   169   85  206 1    
   170   86  207 1    
   171   86  208 1    
   172   86  209 1    
   173   87   88 2    
   174   87   89 am   BACKBONE|DICT|INTERRES
   175   89   90 1    
   176   89  210 1    
   177   90   91 1    
   178   90   92 1    
   179   90  211 1    
   180   91  212 1    
   181   91  213 1    
   182   91  214 1    
   183   92   93 2    
   184   92   94 am   BACKBONE|DICT|INTERRES
   185   94   95 1    
   186   94  215 1    
   187   95   96 1    
   188   95   97 1    
   189   95  216 1    
   190   96  217 1    
   191   96  218 1    
   192   96  219 1    
   193   97   98 2    
   194   97   99 am   BACKBONE|DICT|INTERRES
   195   99  100 1    
   196   99  220 1    
   197  100  101 1    
   198  100  102 1    
   199  100  221 1    
   200  101  222 1    
   201  101  223 1    
   202  101  224 1    
   203  102  103 2    
   204  102  104 am   BACKBONE|DICT|INTERRES
   205  104  105 1    
   206  104  225 1    
   207  105  106 1    
   208  105  107 1    
   209  105  226 1    
   210  106  227 1    
   211  106  228 1    
   212  106  229 1    
   213  107  108 2    
   214  107  109 am   BACKBONE|DICT|INTERRES
   215  109  110 1    
   216  109  230 1    
   217  110  111 1    
   218  110  112 1    
   219  110  231 1    
   220  111  232 1    
   221  111  233 1    
   222  111  234 1    
   223  112  113 2    
   224  112  114 am   BACKBONE|DICT|INTERRES
   225  114  115 1    
   226  114  235 1    
   227  115  116 1    
   228  115  117 1    
   229  115  236 1    
   230  116  237 1    
   231  116  238 1    
   232  116  239 1    
   233  117  118 2    
   234  117  119 am   BACKBONE|DICT|INTERRES
   235  119  120 1    
   236  119  240 1    
   237  120  121 1    
   238  120  124 1    
   239  120  241 1    
   240  121  122 am   BACKBONE|DICT|INTERRES
   241  121  123 2    
   242  122  242 1    
   243  122  243 1    
   244  124  125 1    
   245  124  244 1    
   246  124  245 1    
   247  125  126 1    
   248  126  246 1    
   249  126  247 1    
@<TRIPOS>SUBSTRUCTURE
     1 UNK         1 GROUP             0       ****    0 ROOT    
