@<TRIPOS>MOLECULE
3R540
247   249    1
SMALL
USER_CHARGES


@<TRIPOS>ATOM
      1 CA         -2.6874  -18.8243  -44.8155 C.3       0 UNK        -0.1800 
      2 C          -2.2157  -17.3920  -44.6159 C.2       0 UNK         0.5000 
      3 O          -2.7757  -16.6649  -43.7939 O.2       0 UNK        -0.5000 
      4 N          -1.1736  -16.9849  -45.3496 N.am      1 UNK        -0.5000 
      5 CA         -0.5688  -15.6483  -45.3023 C.3       1 UNK         0.1400 
      6 C6          0.1400  -15.2913  -46.6320 C.3       23 UNK        -0.0398 
      7 S7         -1.0448  -14.9859  -47.9820 S.3       23 UNK        -0.2404 
      8 C8          0.0118  -15.2020  -49.4476 C.3       23 UNK        -0.0205 
      9 C9         -0.2075  -16.5618  -50.0886 C.ar      23 UNK        -0.0193 
     10 C10        -1.1621  -16.7126  -51.0966 C.ar      23 UNK        -0.1150 
     11 C11        -1.3704  -17.9558  -51.6978 C.ar      23 UNK        -0.0193 
     12 C12        -0.6329  -19.0630  -51.2625 C.ar      23 UNK        -0.1150 
     13 C13         0.3362  -18.9235  -50.2626 C.ar      23 UNK        -0.0193 
     14 C14         0.5475  -17.6659  -49.6880 C.ar      23 UNK        -0.1150 
     15 C15         1.1798  -20.1212  -49.8349 C.3       23 UNK        -0.0205 
     16 S16         1.2091  -20.3763  -48.0279 S.3       23 UNK        -0.2404 
     17 C17        -0.5289  -20.8033  -47.6900 C.3       23 UNK        -0.0398 
     18 CA         -0.6941  -22.2318  -47.1226 C.3       11 UNK         0.1400 
     19 N           0.0205  -22.4303  -45.8578 N.am      11 UNK        -0.5000 
     20 C           0.1727  -23.6197  -45.2552 C.2       10 UNK         0.5000 
     21 O          -0.2448  -24.6764  -45.7257 O.2       10 UNK        -0.5000 
     22 CA          0.8444  -23.6358  -43.8687 C.3       10 UNK         0.1400 
     23 CB          2.3523  -23.8882  -44.0112 C.3       10 UNK        -0.1800 
     24 N           0.6381  -22.4133  -43.0925 N.am      10 UNK        -0.5000 
     25 C          -0.5406  -21.8472  -42.7939 C.2       9 UNK         0.5000 
     26 O          -1.6286  -22.3340  -43.1042 O.2       9 UNK        -0.5000 
     27 CA         -0.4924  -20.4826  -42.0766 C.3       9 UNK         0.1400 
     28 CB         -0.8561  -20.6424  -40.5935 C.3       9 UNK        -0.1800 
     29 N           0.8049  -19.8040  -42.1816 N.am      9 UNK        -0.5000 
     30 C           1.3646  -19.3661  -43.3178 C.2       8 UNK         0.5000 
     31 O           0.8378  -19.4745  -44.4299 O.2       8 UNK        -0.5000 
     32 CA          2.7683  -18.7597  -43.1813 C.3       8 UNK         0.1400 
     33 CB          3.7900  -19.8140  -42.7122 C.3       8 UNK        -0.1800 
     34 N           3.1778  -18.2245  -44.4715 N.am      8 UNK        -0.5000 
     35 C           4.0806  -17.2589  -44.6668 C.2       7 UNK         0.5000 
     36 O           4.7143  -16.7217  -43.7563 O.2       7 UNK        -0.5000 
     37 CA          4.3169  -16.7983  -46.1137 C.3       7 UNK         0.1400 
     38 CB          3.5815  -17.6343  -47.1819 C.3       7 UNK        -0.1800 
     39 N           3.9291  -15.3956  -46.2091 N.am      7 UNK        -0.5000 
     40 C           4.4773  -14.5021  -47.0430 C.2       6 UNK         0.5000 
     41 O           5.3293  -14.7911  -47.8845 O.2       6 UNK        -0.5000 
     42 CA          4.0168  -13.0359  -46.9210 C.3       6 UNK         0.1400 
     43 CB          3.0300  -12.6724  -48.0413 C.3       6 UNK        -0.1800 
     44 N           3.4004  -12.7433  -45.6283 N.am      6 UNK        -0.5000 
     45 C           4.0611  -12.5266  -44.4873 C.2       5 UNK         0.5000 
     46 O           5.2905  -12.4647  -44.4249 O.2       5 UNK        -0.5000 
     47 CA          3.2059  -12.3585  -43.2094 C.3       5 UNK         0.1400 
     48 CB          4.0576  -12.0202  -41.9722 C.3       5 UNK        -0.1800 
     49 N           2.1215  -11.3735  -43.3039 N.am      5 UNK        -0.5000 
     50 C           1.0060  -11.4698  -44.0380 C.2       4 UNK         0.5000 
     51 O           0.7909  -12.3546  -44.8667 O.2       4 UNK        -0.5000 
     52 CA         -0.1200  -10.4913  -43.6895 C.3       4 UNK         0.1400 
     53 CB         -0.9364  -10.0763  -44.9257 C.3       4 UNK        -0.1800 
     54 N          -0.9750  -11.2319  -42.7726 N.am      4 UNK        -0.5000 
     55 C          -0.9576  -11.1101  -41.4414 C.2       3 UNK         0.5000 
     56 O          -0.4257  -10.1786  -40.8366 O.2       3 UNK        -0.5000 
     57 CA         -1.5839  -12.2799  -40.6633 C.3       3 UNK         0.1400 
     58 CB         -3.1187  -12.2246  -40.7189 C.3       3 UNK        -0.1800 
     59 N          -1.1195  -13.5797  -41.1634 N.am      3 UNK        -0.5000 
     60 C           0.1322  -14.0465  -41.0193 C.2       2 UNK         0.5000 
     61 O           1.0321  -13.4259  -40.4543 O.2       2 UNK        -0.5000 
     62 CA          0.4301  -15.4431  -41.5895 C.3       2 UNK         0.1400 
     63 CB         -0.0472  -16.5217  -40.6054 C.3       2 UNK        -0.1800 
     64 N          -0.2232  -15.6462  -42.8809 N.am      2 UNK        -0.5000 
     65 C           0.3613  -15.5067  -44.0771 C.2       1 UNK         0.5000 
     66 O           1.5647  -15.2917  -44.2332 O.2       1 UNK        -0.5000 
     67 C          -2.1925  -22.5829  -47.0138 C.2       11 UNK         0.5000 
     68 O          -2.7603  -23.0655  -47.9928 O.2       11 UNK        -0.5000 
     69 N          -2.8106  -22.3554  -45.8456 N.am      12 UNK        -0.5000 
     70 CA         -4.1999  -22.7362  -45.5866 C.3       12 UNK         0.1400 
     71 CB         -4.7841  -21.8805  -44.4533 C.3       12 UNK        -0.1800 
     72 C          -4.3234  -24.2343  -45.2679 C.2       12 UNK         0.5000 
     73 O          -5.2748  -24.8688  -45.7221 O.2       12 UNK        -0.5000 
     74 N          -3.3444  -24.7809  -44.5319 N.am      13 UNK        -0.5000 
     75 CA         -3.2653  -26.2010  -44.1772 C.3       13 UNK         0.1400 
     76 CB         -2.1504  -26.4106  -43.1417 C.3       13 UNK        -0.1800 
     77 C          -3.0523  -27.1106  -45.4028 C.2       13 UNK         0.5000 
     78 O          -3.6902  -28.1589  -45.5038 O.2       13 UNK        -0.5000 
     79 N          -2.1864  -26.6733  -46.3269 N.am      14 UNK        -0.5000 
     80 CA         -1.9166  -27.3327  -47.6066 C.3       14 UNK         0.1400 
     81 CB         -0.5580  -26.8408  -48.1321 C.3       14 UNK        -0.1800 
     82 C          -3.0112  -27.0862  -48.6650 C.2       14 UNK         0.5000 
     83 O          -2.9993  -27.7488  -49.7027 O.2       14 UNK        -0.5000 
     84 N          -3.9063  -26.1211  -48.4028 N.am      15 UNK        -0.5000 
     85 CA         -4.9665  -25.6115  -49.2811 C.3       15 UNK         0.1400 
     86 CB         -6.0042  -26.7053  -49.6056 C.3       15 UNK        -0.1800 
     87 C          -4.4322  -24.8972  -50.5419 C.2       15 UNK         0.5000 
     88 O          -5.1622  -24.7456  -51.5217 O.2       15 UNK        -0.5000 
     89 N          -3.1812  -24.4228  -50.4795 N.am      16 UNK        -0.5000 
     90 CA         -2.5417  -23.5912  -51.4964 C.3       16 UNK         0.1400 
     91 CB         -1.0345  -23.5085  -51.2127 C.3       16 UNK        -0.1800 
     92 C          -3.1581  -22.1843  -51.5450 C.2       16 UNK         0.5000 
     93 O          -3.3130  -21.6317  -52.6302 O.2       16 UNK        -0.5000 
     94 N          -3.5476  -21.6543  -50.3755 N.am      17 UNK        -0.5000 
     95 CA         -4.2115  -20.3571  -50.2131 C.3       17 UNK         0.1400 
     96 CB         -4.3323  -20.0345  -48.7153 C.3       17 UNK        -0.1800 
     97 C          -5.5941  -20.2742  -50.8912 C.2       17 UNK         0.5000 
     98 O          -6.0430  -19.1750  -51.2162 O.2       17 UNK        -0.5000 
     99 N          -6.2430  -21.4302  -51.0879 N.am      18 UNK        -0.5000 
    100 CA        -7.5377  -21.5530  -51.7551 C.3       18 UNK         0.1400 
    101 CB        -8.2147  -22.8521  -51.2899 C.3       18 UNK        -0.1800 
    102 C         -7.4319  -21.5177  -53.2926 C.2       18 UNK         0.5000 
    103 O         -8.4393  -21.2560  -53.9517 O.2       18 UNK        -0.5000 
    104 N         -6.2405  -21.7869  -53.8451 N.am      19 UNK        -0.5000 
    105 CA        -5.9782  -21.7453  -55.2809 C.3       19 UNK         0.1400 
    106 CB        -4.8003  -22.6766  -55.6111 C.3       19 UNK        -0.1800 
    107 C         -5.6655  -20.3066  -55.7171 C.2       19 UNK         0.5000 
    108 O         -4.8541  -19.6402  -55.0733 O.2       19 UNK        -0.5000 
    109 N         -6.2672  -19.8672  -56.8300 N.am      20 UNK        -0.5000 
    110 CA        -6.0506  -18.5389  -57.4162 C.3       20 UNK         0.1400 
    111 CB        -7.1022  -18.2918  -58.5086 C.3       20 UNK        -0.1800 
    112 C         -4.6283  -18.3489  -57.9808 C.2       20 UNK         0.5000 
    113 O         -4.1114  -17.2316  -57.9708 O.2       20 UNK        -0.5000 
    114 N         -4.0201  -19.4497  -58.4428 N.am      21 UNK        -0.5000 
    115 CA        -2.6333  -19.5103  -58.9083 C.3       21 UNK         0.1400 
    116 CB        -2.5114  -20.6584  -59.9235 C.3       21 UNK        -0.1800 
    117 C         -1.6209  -19.6981  -57.7586 C.2       21 UNK         0.5000 
    118 O         -0.4183  -19.5825  -57.9968 O.2       21 UNK        -0.5000 
    119 N         -2.1144  -20.0040  -56.5500 N.am      22 UNK        -0.5000 
    120 CA        -1.3453  -20.2557  -55.3185 C.3       22 UNK         0.1400 
    121 C         -0.4534  -21.5351  -55.3373 C.2       22 UNK         0.5000 
    122 N         -0.6535  -22.4686  -56.2599 N.am      22 UNK        -0.7600 
    123 O          0.4127  -21.7074  -54.4842 O.2       22 UNK        -0.5000 
    124 C124       -0.5906  -18.9983  -54.8015 C.3       23 UNK        -0.0398 
    125 S125       -1.7125  -17.6035  -54.4370 S.3       23 UNK        -0.2404 
    126 C126       -2.3933  -18.0889  -52.8170 C.3       23 UNK        -0.0205 
    127 H127       -3.3317  -18.8938  -45.6919 H         1 UNK         0.0600 
    128 H128       -3.2518  -19.1609  -43.9460 H         1 UNK         0.0600 
    129 H129       -1.8444  -19.5007  -44.9468 H         1 UNK         0.0600 
    130 H130       -0.7226  -17.6432  -45.9679 H         1 UNK         0.3000 
    131 H131       -1.3628  -14.9124  -45.1559 H         1 UNK         0.0600 
    132 H132        0.7286  -14.3811  -46.5231 H         1 UNK         0.0800 
    133 H133        0.8367  -16.0773  -46.9197 H         1 UNK         0.0800 
    134 H134       -0.2206  -14.4135  -50.1649 H         1 UNK         0.0800 
    135 H135        1.0632  -15.0713  -49.1883 H         1 UNK         0.0800 
    136 H136       -1.7387  -15.8579  -51.4218 H         1 UNK         0.1150 
    137 H137       -0.7980  -20.0276  -51.7221 H         1 UNK         0.1150 
    138 H138        1.2998  -17.5473  -48.9247 H         1 UNK         0.1150 
    139 H139        0.8313  -21.0360  -50.3164 H         1 UNK         0.0800 
    140 H140        2.2024  -19.9637  -50.1800 H         1 UNK         0.0800 
    141 H141       -1.1013  -20.6957  -48.6129 H         1 UNK         0.0800 
    142 H142       -0.9268  -20.0606  -46.9991 H         1 UNK         0.0800 
    143 H143       -0.2628  -22.9282  -47.8448 H         1 UNK         0.0600 
    144 H144        0.3969  -21.6009  -45.4161 H         1 UNK         0.3000 
    145 H145        0.4100  -24.4590  -43.2999 H         1 UNK         0.0600 
    146 H146        2.8299  -23.9924  -43.0368 H         1 UNK         0.0600 
    147 H147        2.5437  -24.8084  -44.5651 H         1 UNK         0.0600 
    148 H148        2.8475  -23.0751  -44.5438 H         1 UNK         0.0600 
    149 H149        1.4720  -21.9336  -42.7904 H         1 UNK         0.3000 
    150 H150       -1.2430  -19.8426  -42.5419 H         1 UNK         0.0600 
    151 H151       -0.1247  -21.2535  -40.0631 H         1 UNK         0.0600 
    152 H152       -1.8293  -21.1221  -40.4793 H         1 UNK         0.0600 
    153 H153       -0.9135  -19.6754  -40.0936 H         1 UNK         0.0600 
    154 H154        1.3129  -19.6917  -41.3160 H         1 UNK         0.3000 
    155 H155        2.7116  -17.9462  -42.4548 H         1 UNK         0.0600 
    156 H156        3.8518  -20.6499  -43.4102 H         1 UNK         0.0600 
    157 H157        3.5287  -20.2186  -41.7340 H         1 UNK         0.0600 
    158 H158        4.7877  -19.3843  -42.6207 H         1 UNK         0.0600 
    159 H159        2.6430  -18.5830  -45.2530 H         1 UNK         0.3000 
    160 H160        5.3909  -16.8851  -46.2910 H         1 UNK         0.0600 
    161 H161        2.5048  -17.6369  -47.0217 H         1 UNK         0.0600 
    162 H162        3.9199  -18.6711  -47.1685 H         1 UNK         0.0600 
    163 H163        3.7687  -17.2509  -48.1849 H         1 UNK         0.0600 
    164 H164        3.2590  -15.0839  -45.5128 H         1 UNK         0.3000 
    165 H165        4.9013  -12.4061  -47.0367 H         1 UNK         0.0600 
    166 H166        2.7655  -11.6155  -48.0038 H         1 UNK         0.0600 
    167 H167        3.4647  -12.8635  -49.0233 H         1 UNK         0.0600 
    168 H168        2.1085  -13.2480  -47.9735 H         1 UNK         0.0600 
    169 H169        2.3831  -12.7520  -45.5785 H         1 UNK         0.3000 
    170 H170        2.7461  -13.3290  -43.0193 H         1 UNK         0.0600 
    171 H171        4.8312  -12.7719  -41.8093 H         1 UNK         0.0600 
    172 H172        4.5519  -11.0536  -42.0765 H         1 UNK         0.0600 
    173 H173        3.4472  -11.9907  -41.0692 H         1 UNK         0.0600 
    174 H174        2.1823  -10.6102  -42.6456 H         1 UNK         0.3000 
    175 H175        0.2959   -9.5956  -43.2234 H         1 UNK         0.0600 
    176 H176       -0.3052   -9.5654  -45.6536 H         1 UNK         0.0600 
    177 H177       -1.3889  -10.9334  -45.4265 H         1 UNK         0.0600 
    178 H178       -1.7387   -9.3912  -44.6513 H         1 UNK         0.0600 
    179 H179       -1.4043  -12.0589  -43.1612 H         1 UNK         0.3000 
    180 H180       -1.2793  -12.1875  -39.6185 H         1 UNK         0.0600 
    181 H181       -3.4940  -12.3478  -41.7355 H         1 UNK         0.0600 
    182 H182       -3.4876  -11.2681  -40.3463 H         1 UNK         0.0600 
    183 H183       -3.5627  -13.0054  -40.1011 H         1 UNK         0.0600 
    184 H184       -1.8049  -14.1563  -41.6273 H         1 UNK         0.3000 
    185 H185        1.5127  -15.5384  -41.6989 H         1 UNK         0.0600 
    186 H186        0.4162  -16.3916  -39.6265 H         1 UNK         0.0600 
    187 H187       -1.1284  -16.4947  -40.4646 H         1 UNK         0.0600 
    188 H188        0.2163  -17.5158  -40.9566 H         1 UNK         0.0600 
    189 H189       -1.2090  -15.8892  -42.8744 H         1 UNK         0.3000 
    190 H190       -2.2749  -22.0307  -45.0491 H         1 UNK         0.3000 
    191 H191       -4.7948  -22.5432  -46.4817 H         1 UNK         0.0600 
    192 H192       -4.8165  -20.8291  -44.7351 H         1 UNK         0.0600 
    193 H193       -5.8075  -22.1819  -44.2264 H         1 UNK         0.0600 
    194 H194       -4.2067  -21.9685  -43.5331 H         1 UNK         0.0600 
    195 H195       -2.6075  -24.1795  -44.1879 H         1 UNK         0.3000 
    196 H196       -4.2141  -26.4809  -43.7145 H         1 UNK         0.0600 
    197 H197       -2.1393  -27.4424  -42.7883 H         1 UNK         0.0600 
    198 H198       -2.2907  -25.7695  -42.2712 H         1 UNK         0.0600 
    199 H199       -1.1668  -26.2006  -43.5608 H         1 UNK         0.0600 
    200 H200       -1.6414  -25.8365  -46.1297 H         1 UNK         0.3000 
    201 H201       -1.8522  -28.4101  -47.4413 H         1 UNK         0.0600 
    202 H202       -0.2908  -27.3422  -49.0632 H         1 UNK         0.0600 
    203 H203        0.2384  -27.0421  -47.4153 H         1 UNK         0.0600 
    204 H204       -0.5678  -25.7676  -48.3278 H         1 UNK         0.0600 
    205 H205       -3.8274  -25.6510  -47.5116 H         1 UNK         0.3000 
    206 H206       -5.4787  -24.8408  -48.7033 H         1 UNK         0.0600 
    207 H207       -6.3645  -27.1878  -48.6970 H         1 UNK         0.0600 
    208 H208       -6.8721  -26.2817  -50.1124 H         1 UNK         0.0600 
    209 H209       -5.5927  -27.4767  -50.2566 H         1 UNK         0.0600 
    210 H210       -2.6969  -24.5069  -49.5956 H         1 UNK         0.3000 
    211 H211       -2.6873  -24.0604  -52.4717 H         1 UNK         0.0600 
    212 H212       -0.8301  -23.0463  -50.2469 H         1 UNK         0.0600 
    213 H213       -0.5271  -22.9151  -51.9748 H         1 UNK         0.0600 
    214 H214       -0.5781  -24.4986  -51.2142 H         1 UNK         0.0600 
    215 H215       -3.3811  -22.1920  -49.5290 H         1 UNK         0.3000 
    216 H216       -3.5786  -19.5967  -50.6700 H         1 UNK         0.0600 
    217 H217       -4.8318  -19.0773  -48.5600 H         1 UNK         0.0600 
    218 H218       -3.3540  -19.9619  -48.2432 H         1 UNK         0.0600 
    219 H219       -4.9081  -20.7941  -48.1863 H         1 UNK         0.0600 
    220 H220       -5.7913  -22.2908  -50.8151 H         1 UNK         0.3000 
    221 H221       -8.1706  -20.7167  -51.4503 H         1 UNK         0.0600 
    222 H222       -7.6486  -23.7334  -51.5922 H         1 UNK         0.0600 
    223 H223       -8.3221  -22.8767  -50.2054 H         1 UNK         0.0600 
    224 H224       -9.2141  -22.9448  -51.7168 H         1 UNK         0.0600 
    225 H225       -5.4314  -21.8993  -53.2471 H         1 UNK         0.3000 
    226 H226       -6.8566  -22.1062  -55.8205 H         1 UNK         0.0600 
    227 H227       -4.6145  -22.7054  -56.6854 H         1 UNK         0.0600 
    228 H228       -3.8775  -22.3531  -55.1290 H         1 UNK         0.0600 
    229 H229       -5.0035  -23.6979  -55.2884 H         1 UNK         0.0600 
    230 H230       -6.9240  -20.4685  -57.3069 H         1 UNK         0.3000 
    231 H231       -6.1939  -17.7946  -56.6298 H         1 UNK         0.0600 
    232 H232       -7.0236  -19.0204  -59.3164 H         1 UNK         0.0600 
    233 H233       -6.9830  -17.3005  -58.9480 H         1 UNK         0.0600 
    234 H234       -8.1127  -18.3462  -58.1031 H         1 UNK         0.0600 
    235 H235       -4.5320  -20.3194  -58.4300 H         1 UNK         0.3000 
    236 H236       -2.3825  -18.5772  -59.4173 H         1 UNK         0.0600 
    237 H237       -3.1842  -20.5101  -60.7684 H         1 UNK         0.0600 
    238 H238       -1.4990  -20.7214  -60.3249 H         1 UNK         0.0600 
    239 H239       -2.7462  -21.6231  -59.4722 H         1 UNK         0.0600 
    240 H240       -3.1178  -20.0102  -56.4285 H         1 UNK         0.3000 
    241 H241       -2.1031  -20.4953  -54.5764 H         1 UNK         0.0600 
    242 H242       -1.3601  -22.3505  -56.9667 H         1 UNK         0.3800 
    243 H243       -0.0782  -23.2959  -56.2580 H         1 UNK         0.3800 
    244 H244       -0.0151  -19.2219  -53.9042 H         1 UNK         0.0800 
    245 H245        0.1414  -18.6660  -55.5381 H         1 UNK         0.0800 
    246 H246       -3.2559  -17.4577  -52.5983 H         1 UNK         0.0800 
    247 H247       -2.7799  -19.1052  -52.8720 H         1 UNK         0.0800 
@<TRIPOS>BOND
     1    1    2 1    
     2    1  127 1    
     3    1  128 1    
     4    1  129 1    
     5    2    3 2    
     6    2    4 am   BACKBONE|DICT|INTERRES
     7    4    5 1    
     8    4  130 1    
     9    5    6 1    
    10    5   65 1    
    11    5  131 1    
    12    6    7 1    
    13    6  132 1    
    14    6  133 1    
    15    7    8 1    
    16    8    9 1    
    17    8  134 1    
    18    8  135 1    
    19    9   10 ar   
    20    9   14 ar   
    21   10   11 ar   
    22   10  136 1    
    23   11   12 ar   
    24   11  126 1    
    25   12   13 ar   
    26   12  137 1    
    27   13   14 ar   
    28   13   15 1    
    29   14  138 1    
    30   15   16 1    
    31   15  139 1    
    32   15  140 1    
    33   16   17 1    
    34   17   18 1    
    35   17  141 1    
    36   17  142 1    
    37   18   19 1    
    38   18   67 1    
    39   18  143 1    
    40   19   20 am   BACKBONE|DICT|INTERRES
    41   19  144 1    
    42   20   21 2    
    43   20   22 1    
    44   22   23 1    
    45   22   24 1    
    46   22  145 1    
    47   23  146 1    
    48   23  147 1    
    49   23  148 1    
    50   24   25 am   BACKBONE|DICT|INTERRES
    51   24  149 1    
    52   25   26 2    
    53   25   27 1    
    54   27   28 1    
    55   27   29 1    
    56   27  150 1    
    57   28  151 1    
    58   28  152 1    
    59   28  153 1    
    60   29   30 am   BACKBONE|DICT|INTERRES
    61   29  154 1    
    62   30   31 2    
    63   30   32 1    
    64   32   33 1    
    65   32   34 1    
    66   32  155 1    
    67   33  156 1    
    68   33  157 1    
    69   33  158 1    
    70   34   35 am   BACKBONE|DICT|INTERRES
    71   34  159 1    
    72   35   36 2    
    73   35   37 1    
    74   37   38 1    
    75   37   39 1    
    76   37  160 1    
    77   38  161 1    
    78   38  162 1    
    79   38  163 1    
    80   39   40 am   BACKBONE|DICT|INTERRES
    81   39  164 1    
    82   40   41 2    
    83   40   42 1    
    84   42   43 1    
    85   42   44 1    
    86   42  165 1    
    87   43  166 1    
    88   43  167 1    
    89   43  168 1    
    90   44   45 am   BACKBONE|DICT|INTERRES
    91   44  169 1    
    92   45   46 2    
    93   45   47 1    
    94   47   48 1    
    95   47   49 1    
    96   47  170 1    
    97   48  171 1    
    98   48  172 1    
    99   48  173 1    
   100   49   50 am   BACKBONE|DICT|INTERRES
   101   49  174 1    
   102   50   51 2    
   103   50   52 1    
   104   52   53 1    
   105   52   54 1    
   106   52  175 1    
   107   53  176 1    
   108   53  177 1    
   109   53  178 1    
   110   54   55 am   BACKBONE|DICT|INTERRES
   111   54  179 1    
   112   55   56 2    
   113   55   57 1    
   114   57   58 1    
   115   57   59 1    
   116   57  180 1    
   117   58  181 1    
   118   58  182 1    
   119   58  183 1    
   120   59   60 am   BACKBONE|DICT|INTERRES
   121   59  184 1    
   122   60   61 2    
   123   60   62 1    
   124   62   63 1    
   125   62   64 1    
   126   62  185 1    
   127   63  186 1    
   128   63  187 1    
   129   63  188 1    
   130   64   65 am   BACKBONE|DICT|INTERRES
   131   64  189 1    
   132   65   66 2    
   133   67   68 2    
   134   67   69 am   BACKBONE|DICT|INTERRES
   135   69   70 1    
   136   69  190 1    
   137   70   71 1    
   138   70   72 1    
   139   70  191 1    
   140   71  192 1    
   141   71  193 1    
   142   71  194 1    
   143   72   73 2    
   144   72   74 am   BACKBONE|DICT|INTERRES
   145   74   75 1    
   146   74  195 1    
   147   75   76 1    
   148   75   77 1    
   149   75  196 1    
   150   76  197 1    
   151   76  198 1    
   152   76  199 1    
   153   77   78 2    
   154   77   79 am   BACKBONE|DICT|INTERRES
   155   79   80 1    
   156   79  200 1    
   157   80   81 1    
   158   80   82 1    
   159   80  201 1    
   160   81  202 1    
   161   81  203 1    
   162   81  204 1    
   163   82   83 2    
   164   82   84 am   BACKBONE|DICT|INTERRES
   165   84   85 1    
   166   84  205 1    
   167   85   86 1    
   168   85   87 1    
   169   85  206 1    
   170   86  207 1    
   171   86  208 1    
   172   86  209 1    
   173   87   88 2    
   174   87   89 am   BACKBONE|DICT|INTERRES
   175   89   90 1    
   176   89  210 1    
   177   90   91 1    
   178   90   92 1    
   179   90  211 1    
   180   91  212 1    
   181   91  213 1    
   182   91  214 1    
   183   92   93 2    
   184   92   94 am   BACKBONE|DICT|INTERRES
   185   94   95 1    
   186   94  215 1    
   187   95   96 1    
   188   95   97 1    
   189   95  216 1    
   190   96  217 1    
   191   96  218 1    
   192   96  219 1    
   193   97   98 2    
   194   97   99 am   BACKBONE|DICT|INTERRES
   195   99  100 1    
   196   99  220 1    
   197  100  101 1    
   198  100  102 1    
   199  100  221 1    
   200  101  222 1    
   201  101  223 1    
   202  101  224 1    
   203  102  103 2    
   204  102  104 am   BACKBONE|DICT|INTERRES
   205  104  105 1    
   206  104  225 1    
   207  105  106 1    
   208  105  107 1    
   209  105  226 1    
   210  106  227 1    
   211  106  228 1    
   212  106  229 1    
   213  107  108 2    
   214  107  109 am   BACKBONE|DICT|INTERRES
   215  109  110 1    
   216  109  230 1    
   217  110  111 1    
   218  110  112 1    
   219  110  231 1    
   220  111  232 1    
   221  111  233 1    
   222  111  234 1    
   223  112  113 2    
   224  112  114 am   BACKBONE|DICT|INTERRES
   225  114  115 1    
   226  114  235 1    
   227  115  116 1    
   228  115  117 1    
   229  115  236 1    
   230  116  237 1    
   231  116  238 1    
   232  116  239 1    
   233  117  118 2    
   234  117  119 am   BACKBONE|DICT|INTERRES
   235  119  120 1    
   236  119  240 1    
   237  120  121 1    
   238  120  124 1    
   239  120  241 1    
   240  121  122 am   BACKBONE|DICT|INTERRES
   241  121  123 2    
   242  122  242 1    
   243  122  243 1    
   244  124  125 1    
   245  124  244 1    
   246  124  245 1    
   247  125  126 1    
   248  126  246 1    
   249  126  247 1    
@<TRIPOS>SUBSTRUCTURE
     1 UNK         1 GROUP             0       ****    0 ROOT    
