@<TRIPOS>MOLECULE
3R540
247   249    1
SMALL
USER_CHARGES


@<TRIPOS>ATOM
      1 CA          0.2989  -16.3571  -42.2196 C.3       0 UNK        -0.1800 
      2 C           1.1326  -15.3382  -42.9808 C.2       0 UNK         0.5000 
      3 O           0.8714  -14.1400  -42.8786 O.2       0 UNK        -0.5000 
      4 N           2.1476  -15.8114  -43.7166 N.am      1 UNK        -0.5000 
      5 CA          2.9978  -15.0412  -44.6387 C.3       1 UNK         0.1400 
      6 C6          4.0569  -15.9354  -45.3329 C.3       23 UNK        -0.0398 
      7 S7          3.3361  -17.3993  -46.1479 S.3       23 UNK        -0.2404 
      8 C8          3.2706  -16.8465  -47.8776 C.3       23 UNK        -0.0205 
      9 C9          2.4556  -17.8150  -48.7178 C.ar      23 UNK        -0.0193 
     10 C10         1.1554  -17.4843  -49.1058 C.ar      23 UNK        -0.1150 
     11 C11         0.3732  -18.3793  -49.8389 C.ar      23 UNK        -0.0193 
     12 C12         0.9156  -19.6259  -50.1822 C.ar      23 UNK        -0.1150 
     13 C13         2.2236  -19.9615  -49.8206 C.ar      23 UNK        -0.0193 
     14 C14         2.9909  -19.0500  -49.0914 C.ar      23 UNK        -0.1150 
     15 C15         2.8075  -21.3097  -50.2171 C.3       23 UNK        -0.0205 
     16 S16         2.8707  -22.4690  -48.8153 S.3       23 UNK        -0.2404 
     17 C17         1.0958  -22.6752  -48.4492 C.3       23 UNK        -0.0398 
     18 CA          0.8193  -23.7662  -47.3880 C.3       11 UNK         0.1400 
     19 N           1.5916  -23.5418  -46.1607 N.am      11 UNK        -0.5000 
     20 C           1.7132  -24.3920  -45.1325 C.2       10 UNK         0.5000 
     21 O           1.1791  -25.5004  -45.0998 O.2       10 UNK        -0.5000 
     22 CA          2.5073  -23.8857  -43.9107 C.3       10 UNK         0.1400 
     23 CB          3.9702  -24.3449  -43.9956 C.3       10 UNK        -0.1800 
     24 N           2.4696  -22.4262  -43.7431 N.am      10 UNK        -0.5000 
     25 C           1.3565  -21.6988  -43.5647 C.2       9 UNK         0.5000 
     26 O           0.2312  -22.1963  -43.5276 O.2       9 UNK        -0.5000 
     27 CA          1.5048  -20.1679  -43.4700 C.3       9 UNK         0.1400 
     28 CB          2.9610  -19.6870  -43.3098 C.3       9 UNK        -0.1800 
     29 N           0.9344  -19.5780  -44.6794 N.am      9 UNK        -0.5000 
     30 C          -0.3378  -19.1850  -44.8156 C.2       8 UNK         0.5000 
     31 O          -1.1468  -19.1134  -43.8879 O.2       8 UNK        -0.5000 
     32 CA         -0.7970  -18.8682  -46.2481 C.3       8 UNK         0.1400 
     33 CB         -1.5925  -20.0466  -46.8303 C.3       8 UNK        -0.1800 
     34 N          -1.6274  -17.6686  -46.2886 N.am      8 UNK        -0.5000 
     35 C          -1.1356  -16.4262  -46.2686 C.2       7 UNK         0.5000 
     36 O           0.0669  -16.1672  -46.2394 O.2       7 UNK        -0.5000 
     37 CA         -2.1581  -15.2818  -46.2825 C.3       7 UNK         0.1400 
     38 CB         -2.3131  -14.6647  -44.8837 C.3       7 UNK        -0.1800 
     39 N          -1.7224  -14.2525  -47.2223 N.am      7 UNK        -0.5000 
     40 C          -2.0160  -14.2599  -48.5304 C.2       6 UNK         0.5000 
     41 O          -2.7405  -15.1058  -49.0555 O.2       6 UNK        -0.5000 
     42 CA         -1.4298  -13.1359  -49.4088 C.3       6 UNK         0.1400 
     43 CB         -2.4936  -12.0608  -49.6810 C.3       6 UNK        -0.1800 
     44 N          -0.2570  -12.4942  -48.8179 N.am      6 UNK        -0.5000 
     45 C           0.9797  -13.0086  -48.8245 C.2       5 UNK         0.5000 
     46 O           1.2840  -14.0417  -49.4189 O.2       5 UNK        -0.5000 
     47 CA          2.0637  -12.2419  -48.0373 C.3       5 UNK         0.1400 
     48 CB          2.9804  -11.4682  -48.9973 C.3       5 UNK        -0.1800 
     49 N           1.5443  -11.3134  -47.0249 N.am      5 UNK        -0.5000 
     50 C           0.8488  -11.6850  -45.9435 C.2       4 UNK         0.5000 
     51 O           0.4867  -12.8410  -45.7330 O.2       4 UNK        -0.5000 
     52 CA          0.4478  -10.5886  -44.9549 C.3       4 UNK         0.1400 
     53 CB         -1.0381  -10.2213  -45.1218 C.3       4 UNK        -0.1800 
     54 N           0.7036  -11.0863  -43.6093 N.am      4 UNK        -0.5000 
     55 C           0.8608  -10.3255  -42.5206 C.2       3 UNK         0.5000 
     56 O           0.7426   -9.0994  -42.5157 O.2       3 UNK        -0.5000 
     57 CA          1.2538  -11.0548  -41.2265 C.3       3 UNK         0.1400 
     58 CB          0.0383  -11.7490  -40.5909 C.3       3 UNK        -0.1800 
     59 N           2.3096  -12.0345  -41.4829 N.am      3 UNK        -0.5000 
     60 C           3.6166  -11.7373  -41.5237 C.2       2 UNK         0.5000 
     61 O           4.0663  -10.6150  -41.2875 O.2       2 UNK        -0.5000 
     62 CA          4.5970  -12.8737  -41.8757 C.3       2 UNK         0.1400 
     63 CB          5.1754  -13.4973  -40.5961 C.3       2 UNK        -0.1800 
     64 N           3.9938  -13.9317  -42.6847 N.am      2 UNK        -0.5000 
     65 C           3.6946  -13.8261  -43.9871 C.2       1 UNK         0.5000 
     66 O           3.9446  -12.8300  -44.6665 O.2       1 UNK        -0.5000 
     67 C          -0.7022  -23.9053  -47.1406 C.2       11 UNK         0.5000 
     68 O          -1.4145  -24.3765  -48.0287 O.2       11 UNK        -0.5000 
     69 N          -1.1843  -23.5318  -45.9437 N.am      12 UNK        -0.5000 
     70 CA         -2.5618  -23.7518  -45.5032 C.3       12 UNK         0.1400 
     71 CB         -2.8286  -22.9531  -44.2201 C.3       12 UNK        -0.1800 
     72 C          -2.8846  -25.2437  -45.2912 C.2       12 UNK         0.5000 
     73 O          -4.0398  -25.6313  -45.4594 O.2       12 UNK        -0.5000 
     74 N          -1.8670  -26.0678  -44.9907 N.am      13 UNK        -0.5000 
     75 CA         -1.9888  -27.5276  -44.9085 C.3       13 UNK         0.1400 
     76 CB         -0.7527  -28.1087  -44.2063 C.3       13 UNK        -0.1800 
     77 C          -2.1833  -28.1784  -46.2927 C.2       13 UNK         0.5000 
     78 O          -2.8344  -29.2185  -46.3909 O.2       13 UNK        -0.5000 
     79 N          -1.6492  -27.5310  -47.3381 N.am      14 UNK        -0.5000 
     80 CA         -1.8713  -27.8707  -48.7454 C.3       14 UNK         0.1400 
     81 CB         -0.6397  -27.4353  -49.5573 C.3       14 UNK        -0.1800 
     82 C          -3.1558  -27.2257  -49.3106 C.2       14 UNK         0.5000 
     83 O          -3.5173  -27.5110  -50.4525 O.2       14 UNK        -0.5000 
     84 N          -3.8093  -26.3684  -48.5098 N.am      15 UNK        -0.5000 
     85 CA         -5.0230  -25.6006  -48.7984 C.3       15 UNK         0.1400 
     86 CB         -6.2279  -26.5432  -48.9990 C.3       15 UNK        -0.1800 
     87 C          -4.8490  -24.5915  -49.9518 C.2       15 UNK         0.5000 
     88 O          -5.8124  -24.3160  -50.6673 O.2       15 UNK        -0.5000 
     89 N          -3.6334  -24.0430  -50.1086 N.am      16 UNK        -0.5000 
     90 CA         -3.2447  -23.1702  -51.2223 C.3       16 UNK         0.1400 
     91 CB         -1.7624  -22.7950  -51.0830 C.3       16 UNK        -0.1800 
     92 C          -4.1051  -21.9011  -51.3571 C.2       16 UNK         0.5000 
     93 O          -4.4971  -21.5454  -52.4694 O.2       16 UNK        -0.5000 
     94 N          -4.4091  -21.2643  -50.2185 N.am      17 UNK        -0.5000 
     95 CA         -5.2307  -20.0556  -50.1511 C.3       17 UNK         0.1400 
     96 CB         -5.0691  -19.4080  -48.7675 C.3       17 UNK        -0.1800 
     97 C          -6.7144  -20.3247  -50.4646 C.2       17 UNK         0.5000 
     98 O          -7.3626  -19.4849  -51.0887 O.2       17 UNK        -0.5000 
     99 N          -7.2177  -21.4974  -50.0534 N.am      18 UNK        -0.5000 
    100 CA        -8.5864  -21.9492  -50.3151 C.3       18 UNK         0.1400 
    101 CB        -8.9436  -23.0869  -49.3473 C.3       18 UNK        -0.1800 
    102 C         -8.7782  -22.3918  -51.7767 C.2       18 UNK         0.5000 
    103 O         -9.8236  -22.1170  -52.3664 O.2       18 UNK        -0.5000 
    104 N         -7.7495  -23.0373  -52.3423 N.am      19 UNK        -0.5000 
    105 CA        -7.6716  -23.4435  -53.7465 C.3       19 UNK         0.1400 
    106 CB        -6.5337  -24.4663  -53.8959 C.3       19 UNK        -0.1800 
    107 C         -7.4557  -22.2643  -54.7172 C.2       19 UNK         0.5000 
    108 O         -7.6329  -22.4432  -55.9228 O.2       19 UNK        -0.5000 
    109 N         -7.0599  -21.0997  -54.1803 N.am      20 UNK        -0.5000 
    110 CA        -6.6744  -19.8729  -54.8843 C.3       20 UNK         0.1400 
    111 CB        -7.8668  -19.2704  -55.6559 C.3       20 UNK        -0.1800 
    112 C         -5.4162  -20.0737  -55.7550 C.2       20 UNK         0.5000 
    113 O         -5.3185  -19.5246  -56.8539 O.2       20 UNK        -0.5000 
    114 N         -4.4666  -20.8600  -55.2318 N.am      21 UNK        -0.5000 
    115 CA        -3.1673  -21.1435  -55.8425 C.3       21 UNK         0.1400 
    116 CB        -2.6781  -22.5073  -55.3279 C.3       21 UNK        -0.1800 
    117 C         -2.1245  -20.0451  -55.5494 C.2       21 UNK         0.5000 
    118 O         -1.0228  -20.0921  -56.0985 O.2       21 UNK        -0.5000 
    119 N         -2.4794  -19.0891  -54.6870 N.am      22 UNK        -0.5000 
    120 CA        -1.6484  -17.9764  -54.2244 C.3       22 UNK         0.1400 
    121 C         -2.4972  -16.6951  -53.9964 C.2       22 UNK         0.5000 
    122 N         -1.8597  -15.5419  -53.8452 N.am      22 UNK        -0.7600 
    123 O         -3.7263  -16.7305  -53.9546 O.2       22 UNK        -0.5000 
    124 C124       -0.8086  -18.3796  -52.9841 C.3       23 UNK        -0.0398 
    125 S125       -1.8183  -18.9176  -51.5556 S.3       23 UNK        -0.2404 
    126 C126       -1.0518  -17.9611  -50.2065 C.3       23 UNK        -0.0205 
    127 H127        0.7376  -17.3536  -42.2640 H         1 UNK         0.0600 
    128 H128       -0.7040  -16.4080  -42.6433 H         1 UNK         0.0600 
    129 H129        0.2150  -16.0686  -41.1719 H         1 UNK         0.0600 
    130 H130        2.2751  -16.8104  -43.7772 H         1 UNK         0.3000 
    131 H131        2.3364  -14.6511  -45.4136 H         1 UNK         0.0600 
    132 H132        4.6224  -15.3610  -46.0692 H         1 UNK         0.0800 
    133 H133        4.7869  -16.2935  -44.6047 H         1 UNK         0.0800 
    134 H134        4.2818  -16.7651  -48.2783 H         1 UNK         0.0800 
    135 H135        2.8320  -15.8480  -47.9197 H         1 UNK         0.0800 
    136 H136        0.7405  -16.5296  -48.8147 H         1 UNK         0.1150 
    137 H137        0.3281  -20.3458  -50.7321 H         1 UNK         0.1150 
    138 H138        3.9972  -19.3108  -48.7948 H         1 UNK         0.1150 
    139 H139        3.8183  -21.1652  -50.6010 H         1 UNK         0.0800 
    140 H140        2.2343  -21.7562  -51.0313 H         1 UNK         0.0800 
    141 H141        0.5908  -22.9221  -49.3834 H         1 UNK         0.0800 
    142 H142        0.7011  -21.7123  -48.1242 H         1 UNK         0.0800 
    143 H143        1.1495  -24.7218  -47.8007 H         1 UNK         0.0600 
    144 H144        2.0842  -22.6630  -46.1056 H         1 UNK         0.3000 
    145 H145        2.0572  -24.3336  -43.0224 H         1 UNK         0.0600 
    146 H146        4.0340  -25.4293  -44.0962 H         1 UNK         0.0600 
    147 H147        4.5231  -24.0708  -43.0969 H         1 UNK         0.0600 
    148 H148        4.4810  -23.9050  -44.8531 H         1 UNK         0.0600 
    149 H149        3.3587  -21.9483  -43.7694 H         1 UNK         0.3000 
    150 H150        0.9455  -19.8452  -42.5897 H         1 UNK         0.0600 
    151 H151        3.5733  -19.9245  -44.1807 H         1 UNK         0.0600 
    152 H152        3.4311  -20.1355  -42.4336 H         1 UNK         0.0600 
    153 H153        2.9997  -18.6076  -43.1688 H         1 UNK         0.0600 
    154 H154        1.5296  -19.5792  -45.4956 H         1 UNK         0.3000 
    155 H155        0.0860  -18.7154  -46.8707 H         1 UNK         0.0600 
    156 H156       -2.5375  -20.1976  -46.3074 H         1 UNK         0.0600 
    157 H157       -1.8090  -19.9018  -47.8878 H         1 UNK         0.0600 
    158 H158       -1.0231  -20.9686  -46.7447 H         1 UNK         0.0600 
    159 H159       -2.6259  -17.8102  -46.2578 H         1 UNK         0.3000 
    160 H160       -3.1320  -15.6703  -46.5884 H         1 UNK         0.0600 
    161 H161       -1.3685  -14.2714  -44.5082 H         1 UNK         0.0600 
    162 H162       -2.6649  -15.4076  -44.1670 H         1 UNK         0.0600 
    163 H163       -3.0349  -13.8480  -44.8901 H         1 UNK         0.0600 
    164 H164       -1.0224  -13.6085  -46.8691 H         1 UNK         0.3000 
    165 H165       -1.1442  -13.5810  -50.3645 H         1 UNK         0.0600 
    166 H166       -2.1143  -11.2916  -50.3540 H         1 UNK         0.0600 
    167 H167       -3.3768  -12.4953  -50.1512 H         1 UNK         0.0600 
    168 H168       -2.8179  -11.5733  -48.7607 H         1 UNK         0.0600 
    169 H169       -0.4130  -11.6343  -48.3139 H         1 UNK         0.3000 
    170 H170        2.6682  -12.9894  -47.5187 H         1 UNK         0.0600 
    171 H171        2.4374  -10.6846  -49.5271 H         1 UNK         0.0600 
    172 H172        3.8090  -11.0030  -48.4630 H         1 UNK         0.0600 
    173 H173        3.4125  -12.1327  -49.7468 H         1 UNK         0.0600 
    174 H174        1.7891  -10.3407  -47.1426 H         1 UNK         0.3000 
    175 H175        1.0648   -9.7055  -45.1338 H         1 UNK         0.0600 
    176 H176       -1.6860  -11.0772  -44.9271 H         1 UNK         0.0600 
    177 H177       -1.3293   -9.4206  -44.4420 H         1 UNK         0.0600 
    178 H178       -1.2441   -9.8758  -46.1354 H         1 UNK         0.0600 
    179 H179        0.8095  -12.0953  -43.5392 H         1 UNK         0.3000 
    180 H180        1.6180  -10.3104  -40.5150 H         1 UNK         0.0600 
    181 H181       -0.4079  -12.4865  -41.2583 H         1 UNK         0.0600 
    182 H182       -0.7368  -11.0225  -40.3442 H         1 UNK         0.0600 
    183 H183        0.3139  -12.2572  -39.6668 H         1 UNK         0.0600 
    184 H184        2.0018  -12.9572  -41.7725 H         1 UNK         0.3000 
    185 H185        5.4210  -12.4343  -42.4421 H         1 UNK         0.0600 
    186 H186        5.6613  -12.7411  -39.9781 H         1 UNK         0.0600 
    187 H187        4.3991  -13.9667  -39.9905 H         1 UNK         0.0600 
    188 H188        5.9244  -14.2543  -40.8294 H         1 UNK         0.0600 
    189 H189        3.7430  -14.7842  -42.2056 H         1 UNK         0.3000 
    190 H190       -0.5514  -23.1491  -45.2496 H         1 UNK         0.3000 
    191 H191       -3.2284  -23.3745  -46.2817 H         1 UNK         0.0600 
    192 H192       -2.6048  -21.8948  -44.3567 H         1 UNK         0.0600 
    193 H193       -3.8755  -23.0296  -43.9241 H         1 UNK         0.0600 
    194 H194       -2.2258  -23.3176  -43.3875 H         1 UNK         0.0600 
    195 H195       -0.9325  -25.6876  -44.8889 H         1 UNK         0.3000 
    196 H196       -2.8657  -27.7642  -44.3021 H         1 UNK         0.0600 
    197 H197       -0.8613  -29.1834  -44.0557 H         1 UNK         0.0600 
    198 H198       -0.6044  -27.6559  -43.2259 H         1 UNK         0.0600 
    199 H199        0.1547  -27.9517  -44.7902 H         1 UNK         0.0600 
    200 H200       -1.1387  -26.6776  -47.1632 H         1 UNK         0.3000 
    201 H201       -1.9773  -28.9531  -48.8435 H         1 UNK         0.0600 
    202 H202       -0.7358  -27.7337  -50.6020 H         1 UNK         0.0600 
    203 H203        0.2700  -27.8963  -49.1722 H         1 UNK         0.0600 
    204 H204       -0.5018  -26.3542  -49.5397 H         1 UNK         0.0600 
    205 H205       -3.4234  -26.2169  -47.5886 H         1 UNK         0.3000 
    206 H206       -5.2217  -25.0024  -47.9085 H         1 UNK         0.0600 
    207 H207       -6.3181  -27.2478  -48.1722 H         1 UNK         0.0600 
    208 H208       -7.1619  -25.9841  -49.0477 H         1 UNK         0.0600 
    209 H209       -6.1443  -27.1172  -49.9223 H         1 UNK         0.0600 
    210 H210       -2.8984  -24.3019  -49.4582 H         1 UNK         0.3000 
    211 H211       -3.3658  -23.7459  -52.1420 H         1 UNK         0.0600 
    212 H212       -1.4330  -22.1776  -51.9200 H         1 UNK         0.0600 
    213 H213       -1.1309  -23.6834  -51.0644 H         1 UNK         0.0600 
    214 H214       -1.5792  -22.2298  -50.1685 H         1 UNK         0.0600 
    215 H215       -4.0493  -21.6287  -49.3495 H         1 UNK         0.3000 
    216 H216       -4.8610  -19.3500  -50.8986 H         1 UNK         0.0600 
    217 H217       -5.6804  -18.5084  -48.6839 H         1 UNK         0.0600 
    218 H218       -4.0353  -19.1107  -48.5930 H         1 UNK         0.0600 
    219 H219       -5.3670  -20.0847  -47.9658 H         1 UNK         0.0600 
    220 H220       -6.6026  -22.1539  -49.5964 H         1 UNK         0.3000 
    221 H221       -9.2681  -21.1173  -50.1249 H         1 UNK         0.0600 
    222 H222       -8.2983  -23.9531  -49.4895 H         1 UNK         0.0600 
    223 H223       -8.8529  -22.7661  -48.3095 H         1 UNK         0.0600 
    224 H224       -9.9723  -23.4169  -49.4973 H         1 UNK         0.0600 
    225 H225       -6.9573  -23.2944  -51.7581 H         1 UNK         0.3000 
    226 H226       -8.6110  -23.9288  -54.0187 H         1 UNK         0.0600 
    227 H227       -6.4628  -24.8295  -54.9219 H         1 UNK         0.0600 
    228 H228       -5.5682  -24.0315  -53.6335 H         1 UNK         0.0600 
    229 H229       -6.6948  -25.3329  -53.2544 H         1 UNK         0.0600 
    230 H230       -6.9167  -21.0858  -53.1800 H         1 UNK         0.3000 
    231 H231       -6.3929  -19.1584  -54.1091 H         1 UNK         0.0600 
    232 H232       -8.1637  -19.8932  -56.5000 H         1 UNK         0.0600 
    233 H233       -7.6163  -18.2852  -56.0509 H         1 UNK         0.0600 
    234 H234       -8.7339  -19.1481  -55.0068 H         1 UNK         0.0600 
    235 H235       -4.6063  -21.2280  -54.2925 H         1 UNK         0.3000 
    236 H236       -3.2862  -21.2078  -56.9259 H         1 UNK         0.0600 
    237 H237       -1.7442  -22.7964  -55.8113 H         1 UNK         0.0600 
    238 H238       -2.4984  -22.4887  -54.2529 H         1 UNK         0.0600 
    239 H239       -3.4069  -23.2918  -55.5328 H         1 UNK         0.0600 
    240 H240       -3.4126  -19.1035  -54.3009 H         1 UNK         0.3000 
    241 H241       -0.9570  -17.7240  -55.0306 H         1 UNK         0.0600 
    242 H242       -0.8548  -15.4779  -53.8901 H         1 UNK         0.3800 
    243 H243       -2.4014  -14.7046  -53.6992 H         1 UNK         0.3800 
    244 H244       -0.1532  -17.5592  -52.6887 H         1 UNK         0.0800 
    245 H245       -0.1418  -19.2016  -53.2473 H         1 UNK         0.0800 
    246 H246       -1.0647  -16.9056  -50.4836 H         1 UNK         0.0800 
    247 H247       -1.6807  -18.0460  -49.3206 H         1 UNK         0.0800 
@<TRIPOS>BOND
     1    1    2 1    
     2    1  127 1    
     3    1  128 1    
     4    1  129 1    
     5    2    3 2    
     6    2    4 am   BACKBONE|DICT|INTERRES
     7    4    5 1    
     8    4  130 1    
     9    5    6 1    
    10    5   65 1    
    11    5  131 1    
    12    6    7 1    
    13    6  132 1    
    14    6  133 1    
    15    7    8 1    
    16    8    9 1    
    17    8  134 1    
    18    8  135 1    
    19    9   10 ar   
    20    9   14 ar   
    21   10   11 ar   
    22   10  136 1    
    23   11   12 ar   
    24   11  126 1    
    25   12   13 ar   
    26   12  137 1    
    27   13   14 ar   
    28   13   15 1    
    29   14  138 1    
    30   15   16 1    
    31   15  139 1    
    32   15  140 1    
    33   16   17 1    
    34   17   18 1    
    35   17  141 1    
    36   17  142 1    
    37   18   19 1    
    38   18   67 1    
    39   18  143 1    
    40   19   20 am   BACKBONE|DICT|INTERRES
    41   19  144 1    
    42   20   21 2    
    43   20   22 1    
    44   22   23 1    
    45   22   24 1    
    46   22  145 1    
    47   23  146 1    
    48   23  147 1    
    49   23  148 1    
    50   24   25 am   BACKBONE|DICT|INTERRES
    51   24  149 1    
    52   25   26 2    
    53   25   27 1    
    54   27   28 1    
    55   27   29 1    
    56   27  150 1    
    57   28  151 1    
    58   28  152 1    
    59   28  153 1    
    60   29   30 am   BACKBONE|DICT|INTERRES
    61   29  154 1    
    62   30   31 2    
    63   30   32 1    
    64   32   33 1    
    65   32   34 1    
    66   32  155 1    
    67   33  156 1    
    68   33  157 1    
    69   33  158 1    
    70   34   35 am   BACKBONE|DICT|INTERRES
    71   34  159 1    
    72   35   36 2    
    73   35   37 1    
    74   37   38 1    
    75   37   39 1    
    76   37  160 1    
    77   38  161 1    
    78   38  162 1    
    79   38  163 1    
    80   39   40 am   BACKBONE|DICT|INTERRES
    81   39  164 1    
    82   40   41 2    
    83   40   42 1    
    84   42   43 1    
    85   42   44 1    
    86   42  165 1    
    87   43  166 1    
    88   43  167 1    
    89   43  168 1    
    90   44   45 am   BACKBONE|DICT|INTERRES
    91   44  169 1    
    92   45   46 2    
    93   45   47 1    
    94   47   48 1    
    95   47   49 1    
    96   47  170 1    
    97   48  171 1    
    98   48  172 1    
    99   48  173 1    
   100   49   50 am   BACKBONE|DICT|INTERRES
   101   49  174 1    
   102   50   51 2    
   103   50   52 1    
   104   52   53 1    
   105   52   54 1    
   106   52  175 1    
   107   53  176 1    
   108   53  177 1    
   109   53  178 1    
   110   54   55 am   BACKBONE|DICT|INTERRES
   111   54  179 1    
   112   55   56 2    
   113   55   57 1    
   114   57   58 1    
   115   57   59 1    
   116   57  180 1    
   117   58  181 1    
   118   58  182 1    
   119   58  183 1    
   120   59   60 am   BACKBONE|DICT|INTERRES
   121   59  184 1    
   122   60   61 2    
   123   60   62 1    
   124   62   63 1    
   125   62   64 1    
   126   62  185 1    
   127   63  186 1    
   128   63  187 1    
   129   63  188 1    
   130   64   65 am   BACKBONE|DICT|INTERRES
   131   64  189 1    
   132   65   66 2    
   133   67   68 2    
   134   67   69 am   BACKBONE|DICT|INTERRES
   135   69   70 1    
   136   69  190 1    
   137   70   71 1    
   138   70   72 1    
   139   70  191 1    
   140   71  192 1    
   141   71  193 1    
   142   71  194 1    
   143   72   73 2    
   144   72   74 am   BACKBONE|DICT|INTERRES
   145   74   75 1    
   146   74  195 1    
   147   75   76 1    
   148   75   77 1    
   149   75  196 1    
   150   76  197 1    
   151   76  198 1    
   152   76  199 1    
   153   77   78 2    
   154   77   79 am   BACKBONE|DICT|INTERRES
   155   79   80 1    
   156   79  200 1    
   157   80   81 1    
   158   80   82 1    
   159   80  201 1    
   160   81  202 1    
   161   81  203 1    
   162   81  204 1    
   163   82   83 2    
   164   82   84 am   BACKBONE|DICT|INTERRES
   165   84   85 1    
   166   84  205 1    
   167   85   86 1    
   168   85   87 1    
   169   85  206 1    
   170   86  207 1    
   171   86  208 1    
   172   86  209 1    
   173   87   88 2    
   174   87   89 am   BACKBONE|DICT|INTERRES
   175   89   90 1    
   176   89  210 1    
   177   90   91 1    
   178   90   92 1    
   179   90  211 1    
   180   91  212 1    
   181   91  213 1    
   182   91  214 1    
   183   92   93 2    
   184   92   94 am   BACKBONE|DICT|INTERRES
   185   94   95 1    
   186   94  215 1    
   187   95   96 1    
   188   95   97 1    
   189   95  216 1    
   190   96  217 1    
   191   96  218 1    
   192   96  219 1    
   193   97   98 2    
   194   97   99 am   BACKBONE|DICT|INTERRES
   195   99  100 1    
   196   99  220 1    
   197  100  101 1    
   198  100  102 1    
   199  100  221 1    
   200  101  222 1    
   201  101  223 1    
   202  101  224 1    
   203  102  103 2    
   204  102  104 am   BACKBONE|DICT|INTERRES
   205  104  105 1    
   206  104  225 1    
   207  105  106 1    
   208  105  107 1    
   209  105  226 1    
   210  106  227 1    
   211  106  228 1    
   212  106  229 1    
   213  107  108 2    
   214  107  109 am   BACKBONE|DICT|INTERRES
   215  109  110 1    
   216  109  230 1    
   217  110  111 1    
   218  110  112 1    
   219  110  231 1    
   220  111  232 1    
   221  111  233 1    
   222  111  234 1    
   223  112  113 2    
   224  112  114 am   BACKBONE|DICT|INTERRES
   225  114  115 1    
   226  114  235 1    
   227  115  116 1    
   228  115  117 1    
   229  115  236 1    
   230  116  237 1    
   231  116  238 1    
   232  116  239 1    
   233  117  118 2    
   234  117  119 am   BACKBONE|DICT|INTERRES
   235  119  120 1    
   236  119  240 1    
   237  120  121 1    
   238  120  124 1    
   239  120  241 1    
   240  121  122 am   BACKBONE|DICT|INTERRES
   241  121  123 2    
   242  122  242 1    
   243  122  243 1    
   244  124  125 1    
   245  124  244 1    
   246  124  245 1    
   247  125  126 1    
   248  126  246 1    
   249  126  247 1    
@<TRIPOS>SUBSTRUCTURE
     1 UNK         1 GROUP             0       ****    0 ROOT    
