@<TRIPOS>MOLECULE
3R540
247   249    1
SMALL
USER_CHARGES


@<TRIPOS>ATOM
      1 CA          5.7251  -16.8221  -45.3174 C.3       0 UNK        -0.1800 
      2 C           6.0546  -15.6379  -46.2162 C.2       0 UNK         0.5000 
      3 O           7.1442  -15.0769  -46.1056 O.2       0 UNK        -0.5000 
      4 N           5.1233  -15.2662  -47.1050 N.am      1 UNK        -0.5000 
      5 CA          5.2407  -14.1607  -48.0665 C.3       1 UNK         0.1400 
      6 C6          6.3993  -14.3541  -49.0918 C.3       23 UNK        -0.0398 
      7 S7          5.9716  -13.7001  -50.7450 S.3       23 UNK        -0.2404 
      8 C8          5.4939  -15.2131  -51.6453 C.3       23 UNK        -0.0205 
      9 C9          4.3123  -15.9095  -50.9880 C.ar      23 UNK        -0.0193 
     10 C10         3.0047  -15.4848  -51.2422 C.ar      23 UNK        -0.1150 
     11 C11         1.9250  -16.0892  -50.5909 C.ar      23 UNK        -0.0193 
     12 C12         2.1651  -17.1089  -49.6644 C.ar      23 UNK        -0.1150 
     13 C13         3.4639  -17.5665  -49.4328 C.ar      23 UNK        -0.0193 
     14 C14         4.5312  -16.9678  -50.1028 C.ar      23 UNK        -0.1150 
     15 C15         3.7258  -18.6850  -48.4392 C.3       23 UNK        -0.0205 
     16 S16         4.2983  -20.2146  -49.2495 S.3       23 UNK        -0.2404 
     17 C17         2.7597  -20.8751  -49.9812 C.3       23 UNK        -0.0398 
     18 CA          2.0783  -21.9172  -49.0562 C.3       11 UNK         0.1400 
     19 N           1.6362  -21.2976  -47.8043 N.am      11 UNK        -0.5000 
     20 C           2.0023  -21.6802  -46.5772 C.2       10 UNK         0.5000 
     21 O           2.6778  -22.6852  -46.3522 O.2       10 UNK        -0.5000 
     22 CA          1.5706  -20.7933  -45.3921 C.3       10 UNK         0.1400 
     23 CB          2.7916  -20.0663  -44.8014 C.3       10 UNK        -0.1800 
     24 N           0.5333  -19.8000  -45.6860 N.am      10 UNK        -0.5000 
     25 C          -0.7441  -20.0728  -45.9856 C.2       9 UNK         0.5000 
     26 O          -1.1547  -21.2102  -46.2209 O.2       9 UNK        -0.5000 
     27 CA         -1.7400  -18.8964  -46.0125 C.3       9 UNK         0.1400 
     28 CB         -2.7708  -19.0506  -44.8832 C.3       9 UNK        -0.1800 
     29 N          -1.0847  -17.5937  -45.8662 N.am      9 UNK        -0.5000 
     30 C          -1.0371  -16.6452  -46.8124 C.2       8 UNK         0.5000 
     31 O          -1.5625  -16.7611  -47.9177 O.2       8 UNK        -0.5000 
     32 CA         -0.3077  -15.3255  -46.4854 C.3       8 UNK         0.1400 
     33 CB         -1.3138  -14.1702  -46.3629 C.3       8 UNK        -0.1800 
     34 N           0.4895  -15.3753  -45.2632 N.am      8 UNK        -0.5000 
     35 C           1.6476  -16.0280  -45.1210 C.2       7 UNK         0.5000 
     36 O           2.2067  -16.6451  -46.0274 O.2       7 UNK        -0.5000 
     37 CA          2.2605  -16.0173  -43.7102 C.3       7 UNK         0.1400 
     38 CB          3.1180  -14.7600  -43.5107 C.3       7 UNK        -0.1800 
     39 N           1.2515  -16.0838  -42.6491 N.am      7 UNK        -0.5000 
     40 C           0.4433  -17.1287  -42.4205 C.2       6 UNK         0.5000 
     41 O           0.4401  -18.1514  -43.1023 O.2       6 UNK        -0.5000 
     42 CA         -0.5578  -16.9868  -41.2610 C.3       6 UNK         0.1400 
     43 CB          0.1501  -17.1190  -39.9038 C.3       6 UNK        -0.1800 
     44 N          -1.2799  -15.7170  -41.3151 N.am      6 UNK        -0.5000 
     45 C          -2.1909  -15.4077  -42.2484 C.2       5 UNK         0.5000 
     46 O          -2.5665  -16.1851  -43.1246 O.2       5 UNK        -0.5000 
     47 CA         -2.7586  -13.9764  -42.2162 C.3       5 UNK         0.1400 
     48 CB         -4.0074  -13.9130  -41.3239 C.3       5 UNK        -0.1800 
     49 N          -1.8004  -12.9548  -41.7797 N.am      5 UNK        -0.5000 
     50 C          -0.6363  -12.6887  -42.3862 C.2       4 UNK         0.5000 
     51 O          -0.1784  -13.3568  -43.3146 O.2       4 UNK        -0.5000 
     52 CA          0.1675  -11.4920  -41.8475 C.3       4 UNK         0.1400 
     53 CB          1.2933  -11.9765  -40.9209 C.3       4 UNK        -0.1800 
     54 N           0.7494  -10.7085  -42.9369 N.am      4 UNK        -0.5000 
     55 C           0.0461  -10.0382  -43.8612 C.2       3 UNK         0.5000 
     56 O          -1.1796   -9.9164  -43.8272 O.2       3 UNK        -0.5000 
     57 CA          0.8324   -9.3758  -45.0114 C.3       3 UNK         0.1400 
     58 CB          0.8614   -7.8493  -44.8327 C.3       3 UNK        -0.1800 
     59 N           2.2098   -9.8560  -45.1593 N.am      3 UNK        -0.5000 
     60 C           2.5578  -11.0634  -45.6211 C.2       2 UNK         0.5000 
     61 O           1.7506  -11.9387  -45.9422 O.2       2 UNK        -0.5000 
     62 CA          4.0652  -11.3270  -45.7420 C.3       2 UNK         0.1400 
     63 CB          4.7418  -11.4244  -44.3627 C.3       2 UNK        -0.1800 
     64 N           4.2747  -12.5683  -46.4799 N.am      2 UNK        -0.5000 
     65 C           5.2613  -12.7874  -47.3552 C.2       1 UNK         0.5000 
     66 O           6.1518  -11.9671  -47.5884 O.2       1 UNK        -0.5000 
     67 C           0.9100  -22.6581  -49.7448 C.2       11 UNK         0.5000 
     68 O           0.9780  -22.9238  -50.9463 O.2       11 UNK        -0.5000 
     69 N          -0.1393  -22.9878  -48.9768 N.am      12 UNK        -0.5000 
     70 CA         -1.3163  -23.7312  -49.4217 C.3       12 UNK         0.1400 
     71 CB         -2.3486  -23.7413  -48.2846 C.3       12 UNK        -0.1800 
     72 C          -1.0007  -25.1818  -49.8313 C.2       12 UNK         0.5000 
     73 O          -0.0923  -25.8041  -49.2745 O.2       12 UNK        -0.5000 
     74 N          -1.8135  -25.7049  -50.7543 N.am      13 UNK        -0.5000 
     75 CA         -1.8837  -27.1222  -51.1039 C.3       13 UNK         0.1400 
     76 CB         -2.2733  -27.2394  -52.5886 C.3       13 UNK        -0.1800 
     77 C          -2.9095  -27.8417  -50.2047 C.2       13 UNK         0.5000 
     78 O          -3.5814  -27.2031  -49.3891 O.2       13 UNK        -0.5000 
     79 N          -3.0535  -29.1591  -50.4047 N.am      14 UNK        -0.5000 
     80 CA         -3.9709  -30.0467  -49.6748 C.3       14 UNK         0.1400 
     81 CB         -3.7423  -31.4901  -50.1500 C.3       14 UNK        -0.1800 
     82 C          -5.4677  -29.6761  -49.7805 C.2       14 UNK         0.5000 
     83 O          -6.2590  -30.1141  -48.9448 O.2       14 UNK        -0.5000 
     84 N          -5.8258  -28.8595  -50.7813 N.am      15 UNK        -0.5000 
     85 CA         -7.1518  -28.2641  -50.9633 C.3       15 UNK         0.1400 
     86 CB         -7.2317  -27.6860  -52.3860 C.3       15 UNK        -0.1800 
     87 C          -7.5010  -27.1761  -49.9212 C.2       15 UNK         0.5000 
     88 O          -8.6688  -26.7956  -49.8380 O.2       15 UNK        -0.5000 
     89 N          -6.4962  -26.7067  -49.1635 N.am      16 UNK        -0.5000 
     90 CA         -6.4965  -25.6002  -48.2003 C.3       16 UNK         0.1400 
     91 CB         -7.6751  -25.6660  -47.2080 C.3       16 UNK        -0.1800 
     92 C          -6.4006  -24.2301  -48.8932 C.2       16 UNK         0.5000 
     93 O          -6.7080  -24.1006  -50.0807 O.2       16 UNK        -0.5000 
     94 N          -5.9411  -23.2291  -48.1291 N.am      17 UNK        -0.5000 
     95 CA         -5.5271  -21.9019  -48.5975 C.3       17 UNK         0.1400 
     96 CB         -5.0907  -21.0542  -47.3909 C.3       17 UNK        -0.1800 
     97 C          -6.5701  -21.1383  -49.4295 C.2       17 UNK         0.5000 
     98 O          -6.1946  -20.4661  -50.3900 O.2       17 UNK        -0.5000 
     99 N          -7.8497  -21.2768  -49.0614 N.am      18 UNK        -0.5000 
    100 CA        -8.9817  -20.6333  -49.7290 C.3       18 UNK         0.1400 
    101 CB       -10.2349  -20.8003  -48.8560 C.3       18 UNK        -0.1800 
    102 C         -9.2447  -21.1608  -51.1529 C.2       18 UNK         0.5000 
    103 O         -9.7501  -20.4081  -51.9865 O.2       18 UNK        -0.5000 
    104 N         -8.9067  -22.4321  -51.4040 N.am      19 UNK        -0.5000 
    105 CA        -9.0713  -23.0882  -52.7000 C.3       19 UNK         0.1400 
    106 CB        -9.5751  -24.5206  -52.4759 C.3       19 UNK        -0.1800 
    107 C         -7.7548  -23.1021  -53.4912 C.2       19 UNK         0.5000 
    108 O         -7.7748  -22.8920  -54.7044 O.2       19 UNK        -0.5000 
    109 N         -6.6375  -23.3556  -52.7965 N.am      20 UNK        -0.5000 
    110 CA        -5.3025  -23.4658  -53.3816 C.3       20 UNK         0.1400 
    111 CB        -4.3647  -24.1190  -52.3540 C.3       20 UNK        -0.1800 
    112 C         -4.7179  -22.1189  -53.8432 C.2       20 UNK         0.5000 
    113 O         -3.9626  -22.1031  -54.8158 O.2       20 UNK        -0.5000 
    114 N         -5.0697  -21.0402  -53.1248 N.am      21 UNK        -0.5000 
    115 CA        -4.4913  -19.6916  -53.1506 C.3       21 UNK         0.1400 
    116 CB        -4.4867  -19.0733  -54.5621 C.3       21 UNK        -0.1800 
    117 C         -3.0906  -19.6643  -52.5064 C.2       21 UNK         0.5000 
    118 O         -2.2832  -20.5696  -52.7229 O.2       21 UNK        -0.5000 
    119 N         -2.8333  -18.6249  -51.7023 N.am      22 UNK        -0.5000 
    120 CA        -1.6030  -18.4348  -50.9080 C.3       22 UNK         0.1400 
    121 C         -1.3668  -19.4943  -49.7856 C.2       22 UNK         0.5000 
    122 N         -2.3495  -20.3074  -49.4234 N.am      22 UNK        -0.7600 
    123 O         -0.2951  -19.5551  -49.1911 O.2       22 UNK        -0.5000 
    124 C124       -0.3415  -18.1854  -51.7878 C.3       23 UNK        -0.0398 
    125 S125       -0.2191  -16.4506  -52.3425 S.3       23 UNK        -0.2404 
    126 C126        0.5013  -15.6326  -50.8761 C.3       23 UNK        -0.0205 
    127 H127        6.4645  -17.6114  -45.4521 H         1 UNK         0.0600 
    128 H128        4.7437  -17.2403  -45.5361 H         1 UNK         0.0600 
    129 H129        5.7390  -16.5162  -44.2714 H         1 UNK         0.0600 
    130 H130        4.2441  -15.7675  -47.1292 H         1 UNK         0.3000 
    131 H131        4.2987  -14.1886  -48.6166 H         1 UNK         0.0600 
    132 H132        7.3266  -13.8912  -48.7509 H         1 UNK         0.0800 
    133 H133        6.6487  -15.4092  -49.1945 H         1 UNK         0.0800 
    134 H134        6.3508  -15.8858  -51.7063 H         1 UNK         0.0800 
    135 H135        5.2395  -14.9498  -52.6730 H         1 UNK         0.0800 
    136 H136        2.8285  -14.6772  -51.9390 H         1 UNK         0.1150 
    137 H137        1.3369  -17.5590  -49.1357 H         1 UNK         0.1150 
    138 H138        5.5366  -17.3163  -49.9134 H         1 UNK         0.1150 
    139 H139        4.4925  -18.3588  -47.7363 H         1 UNK         0.0800 
    140 H140        2.8349  -18.8826  -47.8437 H         1 UNK         0.0800 
    141 H141        3.0337  -21.3280  -50.9352 H         1 UNK         0.0800 
    142 H142        2.0811  -20.0566  -50.2198 H         1 UNK         0.0800 
    143 H143        2.8178  -22.6925  -48.8466 H         1 UNK         0.0600 
    144 H144        1.0160  -20.5017  -47.9169 H         1 UNK         0.3000 
    145 H145        1.1747  -21.4635  -44.6265 H         1 UNK         0.0600 
    146 H146        3.1865  -19.3175  -45.4877 H         1 UNK         0.0600 
    147 H147        2.5405  -19.5642  -43.8680 H         1 UNK         0.0600 
    148 H148        3.5993  -20.7648  -44.5791 H         1 UNK         0.0600 
    149 H149        0.7844  -18.8359  -45.5214 H         1 UNK         0.3000 
    150 H150       -2.2753  -18.9528  -46.9608 H         1 UNK         0.0600 
    151 H151       -3.2994  -20.0017  -44.9566 H         1 UNK         0.0600 
    152 H152       -3.5198  -18.2596  -44.9254 H         1 UNK         0.0600 
    153 H153       -2.2980  -19.0103  -43.9010 H         1 UNK         0.0600 
    154 H154       -0.6617  -17.4063  -44.9661 H         1 UNK         0.3000 
    155 H155        0.3621  -15.1087  -47.3203 H         1 UNK         0.0600 
    156 H156       -1.9004  -14.0598  -47.2756 H         1 UNK         0.0600 
    157 H157       -2.0101  -14.3336  -45.5396 H         1 UNK         0.0600 
    158 H158       -0.8049  -13.2219  -46.1866 H         1 UNK         0.0600 
    159 H159        0.1481  -14.8230  -44.4798 H         1 UNK         0.3000 
    160 H160        2.9050  -16.8940  -43.6201 H         1 UNK         0.0600 
    161 H161        3.6142  -14.7675  -42.5403 H         1 UNK         0.0600 
    162 H162        3.8942  -14.6886  -44.2721 H         1 UNK         0.0600 
    163 H163        2.5159  -13.8531  -43.5755 H         1 UNK         0.0600 
    164 H164        1.1386  -15.2556  -42.0844 H         1 UNK         0.3000 
    165 H165       -1.2837  -17.7987  -41.3450 H         1 UNK         0.0600 
    166 H166       -0.5670  -17.0998  -39.0829 H         1 UNK         0.0600 
    167 H167        0.6925  -18.0631  -39.8380 H         1 UNK         0.0600 
    168 H168        0.8689  -16.3152  -39.7397 H         1 UNK         0.0600 
    169 H169       -1.0355  -15.0165  -40.6311 H         1 UNK         0.3000 
    170 H170       -3.0576  -13.7255  -43.2360 H         1 UNK         0.0600 
    171 H171       -4.7499  -14.6479  -41.6382 H         1 UNK         0.0600 
    172 H172       -3.7668  -14.1154  -40.2795 H         1 UNK         0.0600 
    173 H173       -4.4814  -12.9327  -41.3766 H         1 UNK         0.0600 
    174 H174       -2.0954  -12.3673  -41.0132 H         1 UNK         0.3000 
    175 H175       -0.4991  -10.8404  -41.2790 H         1 UNK         0.0600 
    176 H176        2.0052  -12.6126  -41.4480 H         1 UNK         0.0600 
    177 H177        1.8447  -11.1363  -40.4984 H         1 UNK         0.0600 
    178 H178        0.8927  -12.5531  -40.0862 H         1 UNK         0.0600 
    179 H179        1.7478  -10.7743  -43.0593 H         1 UNK         0.3000 
    180 H180        0.2956   -9.5995  -45.9358 H         1 UNK         0.0600 
    181 H181        1.3988   -7.5606  -43.9286 H         1 UNK         0.0600 
    182 H182       -0.1485   -7.4438  -44.7574 H         1 UNK         0.0600 
    183 H183        1.3418   -7.3611  -45.6809 H         1 UNK         0.0600 
    184 H184        2.9368   -9.1986  -44.9156 H         1 UNK         0.3000 
    185 H185        4.4971  -10.4904  -46.2956 H         1 UNK         0.0600 
    186 H186        5.8041  -11.6487  -44.4615 H         1 UNK         0.0600 
    187 H187        4.6618  -10.4846  -43.8158 H         1 UNK         0.0600 
    188 H188        4.2948  -12.2013  -43.7441 H         1 UNK         0.0600 
    189 H189        3.5271  -13.2428  -46.3841 H         1 UNK         0.3000 
    190 H190       -0.1064  -22.7329  -47.9994 H         1 UNK         0.3000 
    191 H191       -1.7385  -23.2039  -50.2803 H         1 UNK         0.0600 
    192 H192       -1.9669  -24.2564  -47.4020 H         1 UNK         0.0600 
    193 H193       -3.2622  -24.2523  -48.5898 H         1 UNK         0.0600 
    194 H194       -2.6203  -22.7326  -47.9835 H         1 UNK         0.0600 
    195 H195       -2.5636  -25.1333  -51.1112 H         1 UNK         0.3000 
    196 H196       -0.9080  -27.5905  -50.9583 H         1 UNK         0.0600 
    197 H197       -2.2101  -28.2716  -52.9344 H         1 UNK         0.0600 
    198 H198       -1.6045  -26.6522  -53.2184 H         1 UNK         0.0600 
    199 H199       -3.2916  -26.8963  -52.7724 H         1 UNK         0.0600 
    200 H200       -2.4753  -29.6059  -51.1020 H         1 UNK         0.3000 
    201 H201       -3.7051  -29.9900  -48.6174 H         1 UNK         0.0600 
    202 H202       -2.7110  -31.8024  -49.9846 H         1 UNK         0.0600 
    203 H203       -3.9625  -31.6024  -51.2124 H         1 UNK         0.0600 
    204 H204       -4.3811  -32.1880  -49.6070 H         1 UNK         0.0600 
    205 H205       -5.1083  -28.5635  -51.4255 H         1 UNK         0.3000 
    206 H206       -7.8965  -29.0573  -50.8719 H         1 UNK         0.0600 
    207 H207       -6.9920  -28.4406  -53.1354 H         1 UNK         0.0600 
    208 H208       -8.2377  -27.3267  -52.6042 H         1 UNK         0.0600 
    209 H209       -6.5472  -26.8473  -52.5199 H         1 UNK         0.0600 
    210 H210       -5.5698  -27.0785  -49.3483 H         1 UNK         0.3000 
    211 H211       -5.5765  -25.7299  -47.6281 H         1 UNK         0.0600 
    212 H212       -8.6216  -25.3944  -47.6760 H         1 UNK         0.0600 
    213 H213       -7.5220  -24.9779  -46.3761 H         1 UNK         0.0600 
    214 H214       -7.7813  -26.6651  -46.7853 H         1 UNK         0.0600 
    215 H215       -5.7472  -23.4248  -47.1577 H         1 UNK         0.3000 
    216 H216       -4.6613  -22.0535  -49.2436 H         1 UNK         0.0600 
    217 H217       -4.7417  -20.0695  -47.7053 H         1 UNK         0.0600 
    218 H218       -5.9136  -20.8993  -46.6921 H         1 UNK         0.0600 
    219 H219       -4.2753  -21.5247  -46.8422 H         1 UNK         0.0600 
    220 H220       -8.0600  -21.8642  -48.2679 H         1 UNK         0.3000 
    221 H221       -8.7622  -19.5665  -49.8103 H         1 UNK         0.0600 
    222 H222      -10.4918  -21.8514  -48.7180 H         1 UNK         0.0600 
    223 H223      -10.0921  -20.3563  -47.8707 H         1 UNK         0.0600 
    224 H224      -11.0963  -20.3089  -49.3105 H         1 UNK         0.0600 
    225 H225       -8.4469  -22.9692  -50.6789 H         1 UNK         0.3000 
    226 H226       -9.8177  -22.5635  -53.3002 H         1 UNK         0.0600 
    227 H227      -10.5383  -24.5252  -51.9657 H         1 UNK         0.0600 
    228 H228       -9.7034  -25.0458  -53.4231 H         1 UNK         0.0600 
    229 H229       -8.8748  -25.0956  -51.8714 H         1 UNK         0.0600 
    230 H230       -6.7102  -23.5583  -51.8014 H         1 UNK         0.3000 
    231 H231       -5.3653  -24.1217  -54.2525 H         1 UNK         0.0600 
    232 H232       -3.3743  -24.2741  -52.7838 H         1 UNK         0.0600 
    233 H233       -4.7452  -25.0886  -52.0326 H         1 UNK         0.0600 
    234 H234       -4.2472  -23.4953  -51.4667 H         1 UNK         0.0600 
    235 H235       -5.6960  -21.1952  -52.3436 H         1 UNK         0.3000 
    236 H236       -5.1554  -19.0850  -52.5330 H         1 UNK         0.0600 
    237 H237       -4.2272  -18.0151  -54.5170 H         1 UNK         0.0600 
    238 H238       -5.4679  -19.1490  -55.0308 H         1 UNK         0.0600 
    239 H239       -3.7601  -19.5523  -55.2187 H         1 UNK         0.0600 
    240 H240       -3.5456  -17.9214  -51.5692 H         1 UNK         0.3000 
    241 H241       -1.7903  -17.5247  -50.3418 H         1 UNK         0.0600 
    242 H242       -3.2419  -20.2578  -49.8844 H         1 UNK         0.3800 
    243 H243       -2.1758  -20.9642  -48.6815 H         1 UNK         0.3800 
    244 H244       -0.3473  -18.8246  -52.6702 H         1 UNK         0.0800 
    245 H245        0.5817  -18.4466  -51.2768 H         1 UNK         0.0800 
    246 H246       -0.1340  -15.8094  -50.0079 H         1 UNK         0.0800 
    247 H247        0.4920  -14.5538  -51.0383 H         1 UNK         0.0800 
@<TRIPOS>BOND
     1    1    2 1    
     2    1  127 1    
     3    1  128 1    
     4    1  129 1    
     5    2    3 2    
     6    2    4 am   BACKBONE|DICT|INTERRES
     7    4    5 1    
     8    4  130 1    
     9    5    6 1    
    10    5   65 1    
    11    5  131 1    
    12    6    7 1    
    13    6  132 1    
    14    6  133 1    
    15    7    8 1    
    16    8    9 1    
    17    8  134 1    
    18    8  135 1    
    19    9   10 ar   
    20    9   14 ar   
    21   10   11 ar   
    22   10  136 1    
    23   11   12 ar   
    24   11  126 1    
    25   12   13 ar   
    26   12  137 1    
    27   13   14 ar   
    28   13   15 1    
    29   14  138 1    
    30   15   16 1    
    31   15  139 1    
    32   15  140 1    
    33   16   17 1    
    34   17   18 1    
    35   17  141 1    
    36   17  142 1    
    37   18   19 1    
    38   18   67 1    
    39   18  143 1    
    40   19   20 am   BACKBONE|DICT|INTERRES
    41   19  144 1    
    42   20   21 2    
    43   20   22 1    
    44   22   23 1    
    45   22   24 1    
    46   22  145 1    
    47   23  146 1    
    48   23  147 1    
    49   23  148 1    
    50   24   25 am   BACKBONE|DICT|INTERRES
    51   24  149 1    
    52   25   26 2    
    53   25   27 1    
    54   27   28 1    
    55   27   29 1    
    56   27  150 1    
    57   28  151 1    
    58   28  152 1    
    59   28  153 1    
    60   29   30 am   BACKBONE|DICT|INTERRES
    61   29  154 1    
    62   30   31 2    
    63   30   32 1    
    64   32   33 1    
    65   32   34 1    
    66   32  155 1    
    67   33  156 1    
    68   33  157 1    
    69   33  158 1    
    70   34   35 am   BACKBONE|DICT|INTERRES
    71   34  159 1    
    72   35   36 2    
    73   35   37 1    
    74   37   38 1    
    75   37   39 1    
    76   37  160 1    
    77   38  161 1    
    78   38  162 1    
    79   38  163 1    
    80   39   40 am   BACKBONE|DICT|INTERRES
    81   39  164 1    
    82   40   41 2    
    83   40   42 1    
    84   42   43 1    
    85   42   44 1    
    86   42  165 1    
    87   43  166 1    
    88   43  167 1    
    89   43  168 1    
    90   44   45 am   BACKBONE|DICT|INTERRES
    91   44  169 1    
    92   45   46 2    
    93   45   47 1    
    94   47   48 1    
    95   47   49 1    
    96   47  170 1    
    97   48  171 1    
    98   48  172 1    
    99   48  173 1    
   100   49   50 am   BACKBONE|DICT|INTERRES
   101   49  174 1    
   102   50   51 2    
   103   50   52 1    
   104   52   53 1    
   105   52   54 1    
   106   52  175 1    
   107   53  176 1    
   108   53  177 1    
   109   53  178 1    
   110   54   55 am   BACKBONE|DICT|INTERRES
   111   54  179 1    
   112   55   56 2    
   113   55   57 1    
   114   57   58 1    
   115   57   59 1    
   116   57  180 1    
   117   58  181 1    
   118   58  182 1    
   119   58  183 1    
   120   59   60 am   BACKBONE|DICT|INTERRES
   121   59  184 1    
   122   60   61 2    
   123   60   62 1    
   124   62   63 1    
   125   62   64 1    
   126   62  185 1    
   127   63  186 1    
   128   63  187 1    
   129   63  188 1    
   130   64   65 am   BACKBONE|DICT|INTERRES
   131   64  189 1    
   132   65   66 2    
   133   67   68 2    
   134   67   69 am   BACKBONE|DICT|INTERRES
   135   69   70 1    
   136   69  190 1    
   137   70   71 1    
   138   70   72 1    
   139   70  191 1    
   140   71  192 1    
   141   71  193 1    
   142   71  194 1    
   143   72   73 2    
   144   72   74 am   BACKBONE|DICT|INTERRES
   145   74   75 1    
   146   74  195 1    
   147   75   76 1    
   148   75   77 1    
   149   75  196 1    
   150   76  197 1    
   151   76  198 1    
   152   76  199 1    
   153   77   78 2    
   154   77   79 am   BACKBONE|DICT|INTERRES
   155   79   80 1    
   156   79  200 1    
   157   80   81 1    
   158   80   82 1    
   159   80  201 1    
   160   81  202 1    
   161   81  203 1    
   162   81  204 1    
   163   82   83 2    
   164   82   84 am   BACKBONE|DICT|INTERRES
   165   84   85 1    
   166   84  205 1    
   167   85   86 1    
   168   85   87 1    
   169   85  206 1    
   170   86  207 1    
   171   86  208 1    
   172   86  209 1    
   173   87   88 2    
   174   87   89 am   BACKBONE|DICT|INTERRES
   175   89   90 1    
   176   89  210 1    
   177   90   91 1    
   178   90   92 1    
   179   90  211 1    
   180   91  212 1    
   181   91  213 1    
   182   91  214 1    
   183   92   93 2    
   184   92   94 am   BACKBONE|DICT|INTERRES
   185   94   95 1    
   186   94  215 1    
   187   95   96 1    
   188   95   97 1    
   189   95  216 1    
   190   96  217 1    
   191   96  218 1    
   192   96  219 1    
   193   97   98 2    
   194   97   99 am   BACKBONE|DICT|INTERRES
   195   99  100 1    
   196   99  220 1    
   197  100  101 1    
   198  100  102 1    
   199  100  221 1    
   200  101  222 1    
   201  101  223 1    
   202  101  224 1    
   203  102  103 2    
   204  102  104 am   BACKBONE|DICT|INTERRES
   205  104  105 1    
   206  104  225 1    
   207  105  106 1    
   208  105  107 1    
   209  105  226 1    
   210  106  227 1    
   211  106  228 1    
   212  106  229 1    
   213  107  108 2    
   214  107  109 am   BACKBONE|DICT|INTERRES
   215  109  110 1    
   216  109  230 1    
   217  110  111 1    
   218  110  112 1    
   219  110  231 1    
   220  111  232 1    
   221  111  233 1    
   222  111  234 1    
   223  112  113 2    
   224  112  114 am   BACKBONE|DICT|INTERRES
   225  114  115 1    
   226  114  235 1    
   227  115  116 1    
   228  115  117 1    
   229  115  236 1    
   230  116  237 1    
   231  116  238 1    
   232  116  239 1    
   233  117  118 2    
   234  117  119 am   BACKBONE|DICT|INTERRES
   235  119  120 1    
   236  119  240 1    
   237  120  121 1    
   238  120  124 1    
   239  120  241 1    
   240  121  122 am   BACKBONE|DICT|INTERRES
   241  121  123 2    
   242  122  242 1    
   243  122  243 1    
   244  124  125 1    
   245  124  244 1    
   246  124  245 1    
   247  125  126 1    
   248  126  246 1    
   249  126  247 1    
@<TRIPOS>SUBSTRUCTURE
     1 UNK         1 GROUP             0       ****    0 ROOT    
