@<TRIPOS>MOLECULE
3R540
247   249    1
SMALL
USER_CHARGES


@<TRIPOS>ATOM
      1 CA          0.7229  -10.1408  -44.4339 C.3       0 UNK        -0.1800 
      2 C           1.6336  -11.0325  -45.2651 C.2       0 UNK         0.5000 
      3 O           2.8174  -10.7313  -45.4180 O.2       0 UNK        -0.5000 
      4 N           1.0780  -12.1082  -45.8361 N.am      1 UNK        -0.5000 
      5 CA          1.7081  -13.0792  -46.7412 C.3       1 UNK         0.1400 
      6 C6          3.0126  -13.7387  -46.2022 C.3       23 UNK        -0.0398 
      7 S7          3.0181  -15.5576  -46.3604 S.3       23 UNK        -0.2404 
      8 C8          3.4076  -15.8084  -48.1194 C.3       23 UNK        -0.0205 
      9 C9          2.4475  -16.8077  -48.7460 C.ar      23 UNK        -0.0193 
     10 C10         1.1259  -16.4405  -49.0140 C.ar      23 UNK        -0.1150 
     11 C11         0.2313  -17.3496  -49.5838 C.ar      23 UNK        -0.0193 
     12 C12         0.6689  -18.6399  -49.8916 C.ar      23 UNK        -0.1150 
     13 C13         1.9901  -19.0195  -49.6312 C.ar      23 UNK        -0.0193 
     14 C14         2.8744  -18.1001  -49.0596 C.ar      23 UNK        -0.1150 
     15 C15         2.4672  -20.4232  -49.9682 C.3       23 UNK        -0.0205 
     16 S16         2.7463  -21.4242  -48.4738 S.3       23 UNK        -0.2404 
     17 C17         1.0785  -21.4724  -47.7355 C.3       23 UNK        -0.0398 
     18 CA          0.6342  -22.9075  -47.3792 C.3       11 UNK         0.1400 
     19 N           1.5434  -23.5603  -46.4352 N.am      11 UNK        -0.5000 
     20 C           1.5444  -24.8687  -46.1520 C.2       10 UNK         0.5000 
     21 O           0.7749  -25.6813  -46.6639 O.2       10 UNK        -0.5000 
     22 CA          2.5495  -25.3354  -45.0840 C.3       10 UNK         0.1400 
     23 CB          3.9424  -25.5335  -45.7003 C.3       10 UNK        -0.1800 
     24 N           2.6424  -24.4011  -43.9604 N.am      10 UNK        -0.5000 
     25 C           1.6491  -24.1727  -43.0902 C.2       9 UNK         0.5000 
     26 O           0.5630  -24.7516  -43.1257 O.2       9 UNK        -0.5000 
     27 CA          1.8939  -23.0799  -42.0318 C.3       9 UNK         0.1400 
     28 CB          2.6629  -23.6533  -40.8322 C.3       9 UNK        -0.1800 
     29 N           2.5936  -21.8912  -42.5364 N.am      9 UNK        -0.5000 
     30 C           2.1608  -21.1227  -43.5445 C.2       8 UNK         0.5000 
     31 O           1.1835  -21.4031  -44.2417 O.2       8 UNK        -0.5000 
     32 CA          2.9613  -19.8404  -43.8459 C.3       8 UNK         0.1400 
     33 CB          4.1205  -20.1453  -44.8061 C.3       8 UNK        -0.1800 
     34 N           2.0979  -18.8289  -44.4566 N.am      8 UNK        -0.5000 
     35 C           1.1072  -18.2002  -43.8121 C.2       7 UNK         0.5000 
     36 O           0.9441  -18.2456  -42.5892 O.2       7 UNK        -0.5000 
     37 CA          0.0796  -17.4844  -44.7071 C.3       7 UNK         0.1400 
     38 CB         -0.9427  -18.5073  -45.2233 C.3       7 UNK        -0.1800 
     39 N          -0.6616  -16.4357  -44.0133 N.am      7 UNK        -0.5000 
     40 C          -0.1624  -15.3009  -43.5151 C.2       6 UNK         0.5000 
     41 O           1.0257  -14.9835  -43.5757 O.2       6 UNK        -0.5000 
     42 CA         -1.1968  -14.3472  -42.8844 C.3       6 UNK         0.1400 
     43 CB         -0.5520  -13.0996  -42.2560 C.3       6 UNK        -0.1800 
     44 N          -2.1867  -13.9182  -43.8736 N.am      6 UNK        -0.5000 
     45 C          -3.2470  -14.6201  -44.2892 C.2       5 UNK         0.5000 
     46 O          -3.5250  -15.7432  -43.8662 O.2       5 UNK        -0.5000 
     47 CA         -4.1400  -13.9671  -45.3616 C.3       5 UNK         0.1400 
     48 CB         -4.7207  -12.6216  -44.8819 C.3       5 UNK        -0.1800 
     49 N          -3.5030  -13.8313  -46.6773 N.am      5 UNK        -0.5000 
     50 C          -2.4382  -13.0939  -47.0242 C.2       4 UNK         0.5000 
     51 O          -1.7604  -12.4415  -46.2230 O.2       4 UNK        -0.5000 
     52 CA         -2.0423  -13.0978  -48.5185 C.3       4 UNK         0.1400 
     53 CB         -3.1942  -13.4627  -49.4809 C.3       4 UNK        -0.1800 
     54 N          -1.4111  -11.8368  -48.9209 N.am      4 UNK        -0.5000 
     55 C          -1.9563  -10.6086  -48.9084 C.2       3 UNK         0.5000 
     56 O          -3.1390  -10.3901  -48.6415 O.2       3 UNK        -0.5000 
     57 CA         -1.0207   -9.4215  -49.2288 C.3       3 UNK         0.1400 
     58 CB         -1.3506   -8.1872  -48.3699 C.3       3 UNK        -0.1800 
     59 N           0.3795   -9.7790  -49.0020 N.am      3 UNK        -0.5000 
     60 C           1.3154   -9.9528  -49.9439 C.2       2 UNK         0.5000 
     61 O           1.1387   -9.7308  -51.1418 O.2       2 UNK        -0.5000 
     62 CA          2.6714  -10.5102  -49.4601 C.3       2 UNK         0.1400 
     63 CB          3.6648   -9.3670  -49.2049 C.3       2 UNK        -0.1800 
     64 N           2.5546  -11.3213  -48.2430 N.am      2 UNK        -0.5000 
     65 C           1.8845  -12.4779  -48.1500 C.2       1 UNK         0.5000 
     66 O           1.3416  -13.0166  -49.1131 O.2       1 UNK        -0.5000 
     67 C          -0.8107  -22.9060  -46.8498 C.2       11 UNK         0.5000 
     68 O          -1.7328  -23.1598  -47.6206 O.2       11 UNK        -0.5000 
     69 N          -0.9787  -22.6593  -45.5434 N.am      12 UNK        -0.5000 
     70 CA         -2.2585  -22.7175  -44.8390 C.3       12 UNK         0.1400 
     71 CB         -2.0755  -22.2009  -43.4037 C.3       12 UNK        -0.1800 
     72 C          -2.8687  -24.1312  -44.8339 C.2       12 UNK         0.5000 
     73 O          -4.0779  -24.2676  -45.0208 O.2       12 UNK        -0.5000 
     74 N          -2.0210  -25.1524  -44.6413 N.am      13 UNK        -0.5000 
     75 CA         -2.4006  -26.5643  -44.6909 C.3       13 UNK         0.1400 
     76 CB         -1.2598  -27.4228  -44.1231 C.3       13 UNK        -0.1800 
     77 C          -2.7807  -27.0265  -46.1100 C.2       13 UNK         0.5000 
     78 O          -3.7703  -27.7423  -46.2692 O.2       13 UNK        -0.5000 
     79 N          -1.9947  -26.6071  -47.1111 N.am      14 UNK        -0.5000 
     80 CA         -2.2258  -26.8948  -48.5275 C.3       14 UNK         0.1400 
     81 CB         -0.9636  -26.5282  -49.3203 C.3       14 UNK        -0.1800 
     82 C          -3.4519  -26.1606  -49.1007 C.2       14 UNK         0.5000 
     83 O          -4.1750  -26.7321  -49.9187 O.2       14 UNK        -0.5000 
     84 N          -3.6534  -24.9082  -48.6684 N.am      15 UNK        -0.5000 
     85 CA         -4.6933  -23.9743  -49.0972 C.3       15 UNK         0.1400 
     86 CB         -6.0700  -24.4124  -48.5516 C.3       15 UNK        -0.1800 
     87 C          -4.6427  -23.7607  -50.6227 C.2       15 UNK         0.5000 
     88 O          -3.5970  -23.3586  -51.1358 O.2       15 UNK        -0.5000 
     89 N          -5.7314  -24.0907  -51.3307 N.am      16 UNK        -0.5000 
     90 CA         -5.8722  -23.9858  -52.7850 C.3       16 UNK         0.1400 
     91 CB         -7.3108  -24.3535  -53.1766 C.3       16 UNK        -0.1800 
     92 C          -4.8538  -24.8016  -53.6060 C.2       16 UNK         0.5000 
     93 O          -4.6258  -24.4651  -54.7683 O.2       16 UNK        -0.5000 
     94 N          -4.2361  -25.8274  -53.0004 N.am      17 UNK        -0.5000 
     95 CA         -3.1350  -26.5809  -53.6044 C.3       17 UNK         0.1400 
     96 CB         -2.9437  -27.9066  -52.8523 C.3       17 UNK        -0.1800 
     97 C          -1.8155  -25.7816  -53.6595 C.2       17 UNK         0.5000 
     98 O          -0.9612  -26.1030  -54.4865 O.2       17 UNK        -0.5000 
     99 N          -1.6726  -24.7599  -52.8024 N.am      18 UNK        -0.5000 
    100 CA        -0.5584  -23.8155  -52.8131 C.3       18 UNK         0.1400 
    101 CB        -0.0855  -23.5471  -51.3751 C.3       18 UNK        -0.1800 
    102 C         -0.9744  -22.5176  -53.5229 C.2       18 UNK         0.5000 
    103 O         -0.3522  -22.1488  -54.5197 O.2       18 UNK        -0.5000 
    104 N         -2.0296  -21.8657  -53.0189 N.am      19 UNK        -0.5000 
    105 CA        -2.6078  -20.6379  -53.5569 C.3       19 UNK         0.1400 
    106 CB        -1.6689  -19.4364  -53.3307 C.3       19 UNK        -0.1800 
    107 C         -3.9550  -20.3996  -52.8667 C.2       19 UNK         0.5000 
    108 O         -3.9955  -20.3216  -51.6393 O.2       19 UNK        -0.5000 
    109 N         -5.0275  -20.2562  -53.6565 N.am      20 UNK        -0.5000 
    110 CA        -6.4150  -20.1114  -53.1911 C.3       20 UNK         0.1400 
    111 CB        -7.3562  -20.2350  -54.3992 C.3       20 UNK        -0.1800 
    112 C         -6.7136  -18.8285  -52.3878 C.2       20 UNK         0.5000 
    113 O         -7.7583  -18.7528  -51.7400 O.2       20 UNK        -0.5000 
    114 N         -5.7941  -17.8553  -52.4203 N.am      21 UNK        -0.5000 
    115 CA        -5.8071  -16.6663  -51.5667 C.3       21 UNK         0.1400 
    116 CB        -4.8135  -15.6424  -52.1377 C.3       21 UNK        -0.1800 
    117 C         -5.4725  -16.9732  -50.0901 C.2       21 UNK         0.5000 
    118 O         -5.7530  -16.1387  -49.2283 O.2       21 UNK        -0.5000 
    119 N         -4.8742  -18.1416  -49.8282 N.am      22 UNK        -0.5000 
    120 CA        -4.4569  -18.6242  -48.5077 C.3       22 UNK         0.1400 
    121 C         -5.1068  -19.9951  -48.1679 C.2       22 UNK         0.5000 
    122 N         -4.9858  -20.4475  -46.9263 N.am      22 UNK        -0.7600 
    123 O         -5.7351  -20.6505  -48.9960 O.2       22 UNK        -0.5000 
    124 C124       -2.9094  -18.6717  -48.4092 C.3       23 UNK        -0.0398 
    125 S125       -2.2076  -16.9841  -48.3523 S.3       23 UNK        -0.2404 
    126 C126       -1.2006  -16.9222  -49.8637 C.3       23 UNK        -0.0205 
    127 H127       -0.3158  -10.4702  -44.4775 H         1 UNK         0.0600 
    128 H128        0.7671   -9.1148  -44.7991 H         1 UNK         0.0600 
    129 H129        1.0410  -10.1471  -43.3914 H         1 UNK         0.0600 
    130 H130        0.0750  -12.2405  -45.7329 H         1 UNK         0.3000 
    131 H131        0.9506  -13.8592  -46.8367 H         1 UNK         0.0600 
    132 H132        3.9142  -13.3251  -46.6577 H         1 UNK         0.0800 
    133 H133        3.1146  -13.5390  -45.1347 H         1 UNK         0.0800 
    134 H134        3.3602  -14.8711  -48.6724 H         1 UNK         0.0800 
    135 H135        4.4382  -16.1561  -48.2046 H         1 UNK         0.0800 
    136 H136        0.7850  -15.4471  -48.7674 H         1 UNK         0.1150 
    137 H137       -0.0189  -19.3486  -50.3300 H         1 UNK         0.1150 
    138 H138        3.8934  -18.3970  -48.8539 H         1 UNK         0.1150 
    139 H139        1.7529  -20.9260  -50.6187 H         1 UNK         0.0800 
    140 H140        3.3998  -20.3604  -50.5306 H         1 UNK         0.0800 
    141 H141        1.0823  -20.8320  -46.8529 H         1 UNK         0.0800 
    142 H142        0.3626  -21.0304  -48.4298 H         1 UNK         0.0800 
    143 H143        0.6388  -23.4952  -48.2998 H         1 UNK         0.0600 
    144 H144        2.1740  -22.9537  -45.9329 H         1 UNK         0.3000 
    145 H145        2.2052  -26.2983  -44.7003 H         1 UNK         0.0600 
    146 H146        4.6440  -25.9339  -44.9683 H         1 UNK         0.0600 
    147 H147        3.9036  -26.2387  -46.5316 H         1 UNK         0.0600 
    148 H148        4.3525  -24.5978  -46.0826 H         1 UNK         0.0600 
    149 H149        3.5003  -23.8784  -43.8637 H         1 UNK         0.3000 
    150 H150        0.9147  -22.7510  -41.6777 H         1 UNK         0.0600 
    151 H151        2.1554  -24.5289  -40.4250 H         1 UNK         0.0600 
    152 H152        2.7411  -22.9223  -40.0272 H         1 UNK         0.0600 
    153 H153        3.6729  -23.9583  -41.1090 H         1 UNK         0.0600 
    154 H154        3.4152  -21.6057  -42.0233 H         1 UNK         0.3000 
    155 H155        3.3645  -19.4427  -42.9124 H         1 UNK         0.0600 
    156 H156        4.6964  -19.2461  -45.0265 H         1 UNK         0.0600 
    157 H157        3.7636  -20.5531  -45.7521 H         1 UNK         0.0600 
    158 H158        4.8081  -20.8730  -44.3735 H         1 UNK         0.0600 
    159 H159        2.1457  -18.7547  -45.4617 H         1 UNK         0.3000 
    160 H160        0.5891  -17.0292  -45.5579 H         1 UNK         0.0600 
    161 H161       -0.4897  -19.1944  -45.9381 H         1 UNK         0.0600 
    162 H162       -1.7751  -18.0109  -45.7170 H         1 UNK         0.0600 
    163 H163       -1.3595  -19.1024  -44.4107 H         1 UNK         0.0600 
    164 H164       -1.6606  -16.5790  -43.9188 H         1 UNK         0.3000 
    165 H165       -1.7052  -14.8947  -42.0880 H         1 UNK         0.0600 
    166 H166       -1.3023  -12.4519  -41.8024 H         1 UNK         0.0600 
    167 H167        0.1538  -13.3783  -41.4726 H         1 UNK         0.0600 
    168 H168       -0.0062  -12.5154  -42.9955 H         1 UNK         0.0600 
    169 H169       -1.9863  -13.0613  -44.3778 H         1 UNK         0.3000 
    170 H170       -4.9832  -14.6431  -45.5130 H         1 UNK         0.0600 
    171 H171       -5.2391  -12.7389  -43.9295 H         1 UNK         0.0600 
    172 H172       -3.9502  -11.8630  -44.7418 H         1 UNK         0.0600 
    173 H173       -5.4433  -12.2305  -45.5982 H         1 UNK         0.0600 
    174 H174       -3.9511  -14.3612  -47.4126 H         1 UNK         0.3000 
    175 H175       -1.2740  -13.8648  -48.6208 H         1 UNK         0.0600 
    176 H176       -2.8708  -13.3930  -50.5195 H         1 UNK         0.0600 
    177 H177       -3.5338  -14.4860  -49.3263 H         1 UNK         0.0600 
    178 H178       -4.0565  -12.8070  -49.3566 H         1 UNK         0.0600 
    179 H179       -0.4303  -11.9178  -49.1607 H         1 UNK         0.3000 
    180 H180       -1.1841   -9.1621  -50.2765 H         1 UNK         0.0600 
    181 H181       -0.6785   -7.3594  -48.5965 H         1 UNK         0.0600 
    182 H182       -2.3665   -7.8366  -48.5560 H         1 UNK         0.0600 
    183 H183       -1.2667   -8.4056  -47.3045 H         1 UNK         0.0600 
    184 H184        0.6288   -9.9948  -48.0481 H         1 UNK         0.3000 
    185 H185        3.0706  -11.1454  -50.2535 H         1 UNK         0.0600 
    186 H186        4.6475   -9.7523  -48.9325 H         1 UNK         0.0600 
    187 H187        3.7929   -8.7535  -50.0977 H         1 UNK         0.0600 
    188 H188        3.3263   -8.7120  -48.4010 H         1 UNK         0.0600 
    189 H189        2.9336  -10.9281  -47.3863 H         1 UNK         0.3000 
    190 H190       -0.1652  -22.3954  -44.9910 H         1 UNK         0.3000 
    191 H191       -2.9530  -22.0534  -45.3571 H         1 UNK         0.0600 
    192 H192       -3.0290  -22.1723  -42.8752 H         1 UNK         0.0600 
    193 H193       -1.6658  -21.1917  -43.3929 H         1 UNK         0.0600 
    194 H194       -1.4013  -22.8369  -42.8299 H         1 UNK         0.0600 
    195 H195       -1.0498  -24.9486  -44.4317 H         1 UNK         0.3000 
    196 H196       -3.2751  -26.7010  -44.0514 H         1 UNK         0.0600 
    197 H197       -1.5229  -28.4811  -44.1362 H         1 UNK         0.0600 
    198 H198       -1.0428  -27.1541  -43.0890 H         1 UNK         0.0600 
    199 H199       -0.3406  -27.3048  -44.6976 H         1 UNK         0.0600 
    200 H200       -1.1604  -26.0730  -46.8878 H         1 UNK         0.3000 
    201 H201       -2.3996  -27.9672  -48.6376 H         1 UNK         0.0600 
    202 H202       -0.1152  -27.1407  -49.0150 H         1 UNK         0.0600 
    203 H203       -0.6935  -25.4845  -49.1622 H         1 UNK         0.0600 
    204 H204       -1.1038  -26.6746  -50.3911 H         1 UNK         0.0600 
    205 H205       -2.9401  -24.4883  -48.0774 H         1 UNK         0.3000 
    206 H206       -4.4423  -23.0144  -48.6456 H         1 UNK         0.0600 
    207 H207       -6.0421  -24.4987  -47.4650 H         1 UNK         0.0600 
    208 H208       -6.8397  -23.6781  -48.7931 H         1 UNK         0.0600 
    209 H209       -6.3857  -25.3778  -48.9484 H         1 UNK         0.0600 
    210 H210       -6.5293  -24.4524  -50.8292 H         1 UNK         0.3000 
    211 H211       -5.7048  -22.9436  -53.0506 H         1 UNK         0.0600 
    212 H212       -7.5506  -25.3816  -52.9029 H         1 UNK         0.0600 
    213 H213       -7.4614  -24.2558  -54.2527 H         1 UNK         0.0600 
    214 H214       -8.0324  -23.6970  -52.6899 H         1 UNK         0.0600 
    215 H215       -4.4638  -26.0437  -52.0368 H         1 UNK         0.3000 
    216 H216       -3.4116  -26.8218  -54.6331 H         1 UNK         0.0600 
    217 H217       -2.1788  -28.5187  -53.3318 H         1 UNK         0.0600 
    218 H218       -3.8647  -28.4896  -52.8385 H         1 UNK         0.0600 
    219 H219       -2.6329  -27.7474  -51.8212 H         1 UNK         0.0600 
    220 H220       -2.4465  -24.5199  -52.1905 H         1 UNK         0.3000 
    221 H221        0.2895  -24.2328  -53.3605 H         1 UNK         0.0600 
    222 H222       -0.8977  -23.2247  -50.7222 H         1 UNK         0.0600 
    223 H223        0.3615  -24.4415  -50.9439 H         1 UNK         0.0600 
    224 H224        0.6800  -22.7733  -51.3592 H         1 UNK         0.0600 
    225 H225       -2.5221  -22.2536  -52.2148 H         1 UNK         0.3000 
    226 H226       -2.7717  -20.7690  -54.6284 H         1 UNK         0.0600 
    227 H227       -0.7375  -19.5424  -53.8862 H         1 UNK         0.0600 
    228 H228       -2.1347  -18.5067  -53.6595 H         1 UNK         0.0600 
    229 H229       -1.4166  -19.3232  -52.2768 H         1 UNK         0.0600 
    230 H230       -4.9026  -20.3025  -54.6579 H         1 UNK         0.3000 
    231 H231       -6.6259  -20.9397  -52.5125 H         1 UNK         0.0600 
    232 H232       -8.4009  -20.1679  -54.0924 H         1 UNK         0.0600 
    233 H233       -7.2298  -21.1946  -54.9012 H         1 UNK         0.0600 
    234 H234       -7.1771  -19.4451  -55.1296 H         1 UNK         0.0600 
    235 H235       -4.9721  -17.9982  -52.9872 H         1 UNK         0.3000 
    236 H236       -6.8073  -16.2291  -51.5968 H         1 UNK         0.0600 
    237 H237       -3.7864  -16.0071  -52.0898 H         1 UNK         0.0600 
    238 H238       -5.0403  -15.4068  -53.1776 H         1 UNK         0.0600 
    239 H239       -4.8574  -14.7070  -51.5794 H         1 UNK         0.0600 
    240 H240       -4.7297  -18.8109  -50.5784 H         1 UNK         0.3000 
    241 H241       -4.8278  -17.9397  -47.7425 H         1 UNK         0.0600 
    242 H242       -5.4205  -21.3242  -46.6877 H         1 UNK         0.3800 
    243 H243       -4.5212  -19.9138  -46.2096 H         1 UNK         0.3800 
    244 H244       -2.4898  -19.2354  -49.2442 H         1 UNK         0.0800 
    245 H245       -2.5880  -19.1968  -47.5105 H         1 UNK         0.0800 
    246 H246       -1.6523  -17.5320  -50.6468 H         1 UNK         0.0800 
    247 H247       -1.2023  -15.8994  -50.2431 H         1 UNK         0.0800 
@<TRIPOS>BOND
     1    1    2 1    
     2    1  127 1    
     3    1  128 1    
     4    1  129 1    
     5    2    3 2    
     6    2    4 am   BACKBONE|DICT|INTERRES
     7    4    5 1    
     8    4  130 1    
     9    5    6 1    
    10    5   65 1    
    11    5  131 1    
    12    6    7 1    
    13    6  132 1    
    14    6  133 1    
    15    7    8 1    
    16    8    9 1    
    17    8  134 1    
    18    8  135 1    
    19    9   10 ar   
    20    9   14 ar   
    21   10   11 ar   
    22   10  136 1    
    23   11   12 ar   
    24   11  126 1    
    25   12   13 ar   
    26   12  137 1    
    27   13   14 ar   
    28   13   15 1    
    29   14  138 1    
    30   15   16 1    
    31   15  139 1    
    32   15  140 1    
    33   16   17 1    
    34   17   18 1    
    35   17  141 1    
    36   17  142 1    
    37   18   19 1    
    38   18   67 1    
    39   18  143 1    
    40   19   20 am   BACKBONE|DICT|INTERRES
    41   19  144 1    
    42   20   21 2    
    43   20   22 1    
    44   22   23 1    
    45   22   24 1    
    46   22  145 1    
    47   23  146 1    
    48   23  147 1    
    49   23  148 1    
    50   24   25 am   BACKBONE|DICT|INTERRES
    51   24  149 1    
    52   25   26 2    
    53   25   27 1    
    54   27   28 1    
    55   27   29 1    
    56   27  150 1    
    57   28  151 1    
    58   28  152 1    
    59   28  153 1    
    60   29   30 am   BACKBONE|DICT|INTERRES
    61   29  154 1    
    62   30   31 2    
    63   30   32 1    
    64   32   33 1    
    65   32   34 1    
    66   32  155 1    
    67   33  156 1    
    68   33  157 1    
    69   33  158 1    
    70   34   35 am   BACKBONE|DICT|INTERRES
    71   34  159 1    
    72   35   36 2    
    73   35   37 1    
    74   37   38 1    
    75   37   39 1    
    76   37  160 1    
    77   38  161 1    
    78   38  162 1    
    79   38  163 1    
    80   39   40 am   BACKBONE|DICT|INTERRES
    81   39  164 1    
    82   40   41 2    
    83   40   42 1    
    84   42   43 1    
    85   42   44 1    
    86   42  165 1    
    87   43  166 1    
    88   43  167 1    
    89   43  168 1    
    90   44   45 am   BACKBONE|DICT|INTERRES
    91   44  169 1    
    92   45   46 2    
    93   45   47 1    
    94   47   48 1    
    95   47   49 1    
    96   47  170 1    
    97   48  171 1    
    98   48  172 1    
    99   48  173 1    
   100   49   50 am   BACKBONE|DICT|INTERRES
   101   49  174 1    
   102   50   51 2    
   103   50   52 1    
   104   52   53 1    
   105   52   54 1    
   106   52  175 1    
   107   53  176 1    
   108   53  177 1    
   109   53  178 1    
   110   54   55 am   BACKBONE|DICT|INTERRES
   111   54  179 1    
   112   55   56 2    
   113   55   57 1    
   114   57   58 1    
   115   57   59 1    
   116   57  180 1    
   117   58  181 1    
   118   58  182 1    
   119   58  183 1    
   120   59   60 am   BACKBONE|DICT|INTERRES
   121   59  184 1    
   122   60   61 2    
   123   60   62 1    
   124   62   63 1    
   125   62   64 1    
   126   62  185 1    
   127   63  186 1    
   128   63  187 1    
   129   63  188 1    
   130   64   65 am   BACKBONE|DICT|INTERRES
   131   64  189 1    
   132   65   66 2    
   133   67   68 2    
   134   67   69 am   BACKBONE|DICT|INTERRES
   135   69   70 1    
   136   69  190 1    
   137   70   71 1    
   138   70   72 1    
   139   70  191 1    
   140   71  192 1    
   141   71  193 1    
   142   71  194 1    
   143   72   73 2    
   144   72   74 am   BACKBONE|DICT|INTERRES
   145   74   75 1    
   146   74  195 1    
   147   75   76 1    
   148   75   77 1    
   149   75  196 1    
   150   76  197 1    
   151   76  198 1    
   152   76  199 1    
   153   77   78 2    
   154   77   79 am   BACKBONE|DICT|INTERRES
   155   79   80 1    
   156   79  200 1    
   157   80   81 1    
   158   80   82 1    
   159   80  201 1    
   160   81  202 1    
   161   81  203 1    
   162   81  204 1    
   163   82   83 2    
   164   82   84 am   BACKBONE|DICT|INTERRES
   165   84   85 1    
   166   84  205 1    
   167   85   86 1    
   168   85   87 1    
   169   85  206 1    
   170   86  207 1    
   171   86  208 1    
   172   86  209 1    
   173   87   88 2    
   174   87   89 am   BACKBONE|DICT|INTERRES
   175   89   90 1    
   176   89  210 1    
   177   90   91 1    
   178   90   92 1    
   179   90  211 1    
   180   91  212 1    
   181   91  213 1    
   182   91  214 1    
   183   92   93 2    
   184   92   94 am   BACKBONE|DICT|INTERRES
   185   94   95 1    
   186   94  215 1    
   187   95   96 1    
   188   95   97 1    
   189   95  216 1    
   190   96  217 1    
   191   96  218 1    
   192   96  219 1    
   193   97   98 2    
   194   97   99 am   BACKBONE|DICT|INTERRES
   195   99  100 1    
   196   99  220 1    
   197  100  101 1    
   198  100  102 1    
   199  100  221 1    
   200  101  222 1    
   201  101  223 1    
   202  101  224 1    
   203  102  103 2    
   204  102  104 am   BACKBONE|DICT|INTERRES
   205  104  105 1    
   206  104  225 1    
   207  105  106 1    
   208  105  107 1    
   209  105  226 1    
   210  106  227 1    
   211  106  228 1    
   212  106  229 1    
   213  107  108 2    
   214  107  109 am   BACKBONE|DICT|INTERRES
   215  109  110 1    
   216  109  230 1    
   217  110  111 1    
   218  110  112 1    
   219  110  231 1    
   220  111  232 1    
   221  111  233 1    
   222  111  234 1    
   223  112  113 2    
   224  112  114 am   BACKBONE|DICT|INTERRES
   225  114  115 1    
   226  114  235 1    
   227  115  116 1    
   228  115  117 1    
   229  115  236 1    
   230  116  237 1    
   231  116  238 1    
   232  116  239 1    
   233  117  118 2    
   234  117  119 am   BACKBONE|DICT|INTERRES
   235  119  120 1    
   236  119  240 1    
   237  120  121 1    
   238  120  124 1    
   239  120  241 1    
   240  121  122 am   BACKBONE|DICT|INTERRES
   241  121  123 2    
   242  122  242 1    
   243  122  243 1    
   244  124  125 1    
   245  124  244 1    
   246  124  245 1    
   247  125  126 1    
   248  126  246 1    
   249  126  247 1    
@<TRIPOS>SUBSTRUCTURE
     1 UNK         1 GROUP             0       ****    0 ROOT    
