@<TRIPOS>MOLECULE
3R540
247   249    1
SMALL
USER_CHARGES


@<TRIPOS>ATOM
      1 CA          7.6842  -12.0689  -46.7131 C.3       0 UNK        -0.1800 
      2 C           6.2440  -12.4722  -46.4333 C.2       0 UNK         0.5000 
      3 O           5.6670  -12.0377  -45.4365 O.2       0 UNK        -0.5000 
      4 N           5.6513  -13.2868  -47.3172 N.am      1 UNK        -0.5000 
      5 CA          4.2761  -13.7972  -47.2127 C.3       1 UNK         0.1400 
      6 C6          3.9926  -14.9179  -48.2422 C.3       23 UNK        -0.0398 
      7 S7          4.1947  -14.4047  -49.9869 S.3       23 UNK        -0.2404 
      8 C8          4.8316  -15.9309  -50.7556 C.3       23 UNK        -0.0205 
      9 C9          3.9300  -17.1342  -50.5077 C.ar      23 UNK        -0.0193 
     10 C10         2.5937  -17.1147  -50.9143 C.ar      23 UNK        -0.1150 
     11 C11         1.7589  -18.2031  -50.6539 C.ar      23 UNK        -0.0193 
     12 C12         2.2756  -19.3324  -50.0128 C.ar      23 UNK        -0.1150 
     13 C13         3.6173  -19.3745  -49.6065 C.ar      23 UNK        -0.0193 
     14 C14         4.4316  -18.2657  -49.8583 C.ar      23 UNK        -0.1150 
     15 C15         4.2493  -20.5757  -48.8971 C.3       23 UNK        -0.0205 
     16 S16         3.1454  -21.9802  -48.5211 S.3       23 UNK        -0.2404 
     17 C17         2.1784  -21.3096  -47.1268 C.3       23 UNK        -0.0398 
     18 CA          0.8843  -22.1161  -46.8689 C.3       11 UNK         0.1400 
     19 N           0.3425  -21.8825  -45.5301 N.am      11 UNK        -0.5000 
     20 C          -0.6392  -22.6050  -44.9714 C.2       10 UNK         0.5000 
     21 O          -1.1449  -23.5954  -45.4988 O.2       10 UNK        -0.5000 
     22 CA         -1.1795  -22.1104  -43.6176 C.3       10 UNK         0.1400 
     23 CB         -0.2905  -22.5983  -42.4644 C.3       10 UNK        -0.1800 
     24 N          -1.3061  -20.6527  -43.5639 N.am      10 UNK        -0.5000 
     25 C          -2.1301  -19.9353  -44.3419 C.2       9 UNK         0.5000 
     26 O          -2.9167  -20.4370  -45.1452 O.2       9 UNK        -0.5000 
     27 CA         -2.0184  -18.4019  -44.2472 C.3       9 UNK         0.1400 
     28 CB         -2.7654  -17.8684  -43.0162 C.3       9 UNK        -0.1800 
     29 N          -0.6299  -17.9413  -44.2152 N.am      9 UNK        -0.5000 
     30 C           0.2535  -18.1069  -45.2094 C.2       8 UNK         0.5000 
     31 O          -0.0197  -18.6274  -46.2892 O.2       8 UNK        -0.5000 
     32 CA          1.7013  -17.6732  -44.9282 C.3       8 UNK         0.1400 
     33 CB          1.8790  -16.1613  -45.1367 C.3       8 UNK        -0.1800 
     34 N           2.1246  -18.0457  -43.5778 N.am      8 UNK        -0.5000 
     35 C           2.3333  -19.3074  -43.1750 C.2       7 UNK         0.5000 
     36 O           2.2247  -20.2849  -43.9144 O.2       7 UNK        -0.5000 
     37 CA          2.6835  -19.5147  -41.6899 C.3       7 UNK         0.1400 
     38 CB          4.1846  -19.2932  -41.4522 C.3       7 UNK        -0.1800 
     39 N           1.9173  -18.6386  -40.8028 N.am      7 UNK        -0.5000 
     40 C           0.5926  -18.7223  -40.6142 C.2       6 UNK         0.5000 
     41 O          -0.1185  -19.5800  -41.1358 O.2       6 UNK        -0.5000 
     42 CA         -0.0536  -17.6274  -39.7426 C.3       6 UNK         0.1400 
     43 CB         -0.0031  -18.0189  -38.2585 C.3       6 UNK        -0.1800 
     44 N           0.5543  -16.3034  -39.9191 N.am      6 UNK        -0.5000 
     45 C           0.6185  -15.6471  -41.0852 C.2       5 UNK         0.5000 
     46 O           0.1851  -16.1058  -42.1448 O.2       5 UNK        -0.5000 
     47 CA          1.3459  -14.2887  -41.0703 C.3       5 UNK         0.1400 
     48 CB          2.8664  -14.4998  -40.9822 C.3       5 UNK        -0.1800 
     49 N           1.0648  -13.4977  -42.2675 N.am      5 UNK        -0.5000 
     50 C          -0.1206  -12.9602  -42.5839 C.2       4 UNK         0.5000 
     51 O          -1.1080  -12.9946  -41.8463 O.2       4 UNK        -0.5000 
     52 CA         -0.1901  -12.2644  -43.9596 C.3       4 UNK         0.1400 
     53 CB         -1.4647  -11.4165  -44.1525 C.3       4 UNK        -0.1800 
     54 N           1.0121  -11.4786  -44.2619 N.am      4 UNK        -0.5000 
     55 C           1.4826  -10.4179  -43.5822 C.2       3 UNK         0.5000 
     56 O           0.9496   -9.9587  -42.5714 O.2       3 UNK        -0.5000 
     57 CA          2.7711   -9.7497  -44.1100 C.3       3 UNK         0.1400 
     58 CB          3.9678  -10.1323  -43.2254 C.3       3 UNK        -0.1800 
     59 N           3.0816  -10.0911  -45.4995 N.am      3 UNK        -0.5000 
     60 C           2.3621   -9.7033  -46.5640 C.2       2 UNK         0.5000 
     61 O           1.4247   -8.9076  -46.4947 O.2       2 UNK        -0.5000 
     62 CA          2.7196  -10.3246  -47.9314 C.3       2 UNK         0.1400 
     63 CB          3.4487   -9.2998  -48.8140 C.3       2 UNK        -0.1800 
     64 N           3.5364  -11.5382  -47.8514 N.am      2 UNK        -0.5000 
     65 C           3.1963  -12.6909  -47.2546 C.2       1 UNK         0.5000 
     66 O           2.1106  -12.8789  -46.7030 O.2       1 UNK        -0.5000 
     67 C          -0.1820  -21.8833  -47.9596 C.2       11 UNK         0.5000 
     68 O          -0.3399  -22.7361  -48.8298 O.2       11 UNK        -0.5000 
     69 N          -0.9379  -20.7792  -47.8671 N.am      12 UNK        -0.5000 
     70 CA         -2.0423  -20.4502  -48.7723 C.3       12 UNK         0.1400 
     71 CB         -2.6028  -19.0598  -48.4325 C.3       12 UNK        -0.1800 
     72 C          -3.1685  -21.4978  -48.7660 C.2       12 UNK         0.5000 
     73 O          -3.6925  -21.8266  -49.8275 O.2       12 UNK        -0.5000 
     74 N          -3.4950  -22.0284  -47.5804 N.am      13 UNK        -0.5000 
     75 CA         -4.4662  -23.1078  -47.3990 C.3       13 UNK         0.1400 
     76 CB         -4.7911  -23.2471  -45.9046 C.3       13 UNK        -0.1800 
     77 C          -4.0052  -24.4584  -47.9844 C.2       13 UNK         0.5000 
     78 O          -4.8534  -25.2886  -48.3094 O.2       13 UNK        -0.5000 
     79 N          -2.6874  -24.6629  -48.1074 N.am      14 UNK        -0.5000 
     80 CA         -2.0916  -25.8454  -48.7244 C.3       14 UNK         0.1400 
     81 CB         -0.7314  -26.1341  -48.0699 C.3       14 UNK        -0.1800 
     82 C          -1.9449  -25.6786  -50.2469 C.2       14 UNK         0.5000 
     83 O          -2.2699  -26.6080  -50.9864 O.2       14 UNK        -0.5000 
     84 N          -1.4560  -24.5084  -50.6822 N.am      15 UNK        -0.5000 
     85 CA         -1.1506  -24.1319  -52.0642 C.3       15 UNK         0.1400 
     86 CB         -0.5462  -22.7189  -52.0706 C.3       15 UNK        -0.1800 
     87 C          -2.3688  -24.2316  -53.0023 C.2       15 UNK         0.5000 
     88 O          -3.1872  -23.3107  -53.0548 O.2       15 UNK        -0.5000 
     89 N          -2.4612  -25.3762  -53.6971 N.am      16 UNK        -0.5000 
     90 CA         -3.5643  -25.8163  -54.5604 C.3       16 UNK         0.1400 
     91 CB         -3.6674  -24.9266  -55.8173 C.3       16 UNK        -0.1800 
     92 C          -4.9039  -25.9931  -53.8069 C.2       16 UNK         0.5000 
     93 O          -5.9674  -25.9388  -54.4263 O.2       16 UNK        -0.5000 
     94 N          -4.8114  -26.2305  -52.4887 N.am      17 UNK        -0.5000 
     95 CA         -5.8801  -26.3016  -51.4885 C.3       17 UNK         0.1400 
     96 CB         -6.9021  -27.4038  -51.8363 C.3       17 UNK        -0.1800 
     97 C          -6.5765  -24.9475  -51.2388 C.2       17 UNK         0.5000 
     98 O          -6.4573  -24.0060  -52.0258 O.2       17 UNK        -0.5000 
     99 N          -7.3423  -24.8819  -50.1424 N.am      18 UNK        -0.5000 
    100 CA        -8.0916  -23.7004  -49.7010 C.3       18 UNK         0.1400 
    101 CB        -8.6468  -23.9638  -48.2933 C.3       18 UNK        -0.1800 
    102 C         -9.2156  -23.2619  -50.6646 C.2       18 UNK         0.5000 
    103 O         -9.6993  -22.1360  -50.5531 O.2       18 UNK        -0.5000 
    104 N         -9.5953  -24.1400  -51.6037 N.am      19 UNK        -0.5000 
    105 CA       -10.4867  -23.8354  -52.7221 C.3       19 UNK         0.1400 
    106 CB       -10.8966  -25.1473  -53.4087 C.3       19 UNK        -0.1800 
    107 C         -9.8510  -22.8663  -53.7400 C.2       19 UNK         0.5000 
    108 O        -10.5628  -22.0318  -54.3003 O.2       19 UNK        -0.5000 
    109 N         -8.5317  -22.9827  -53.9504 N.am      20 UNK        -0.5000 
    110 CA        -7.7459  -22.0746  -54.7864 C.3       20 UNK         0.1400 
    111 CB        -6.6315  -22.8606  -55.4865 C.3       20 UNK        -0.1800 
    112 C         -7.1357  -20.9397  -53.9501 C.2       20 UNK         0.5000 
    113 O         -7.0407  -19.8156  -54.4434 O.2       20 UNK        -0.5000 
    114 N         -6.7287  -21.2575  -52.7111 N.am      21 UNK        -0.5000 
    115 CA        -6.1678  -20.3590  -51.6985 C.3       21 UNK         0.1400 
    116 CB        -7.2635  -19.4238  -51.1470 C.3       21 UNK        -0.1800 
    117 C         -4.9284  -19.5942  -52.2071 C.2       21 UNK         0.5000 
    118 O         -4.8951  -18.3634  -52.1498 O.2       21 UNK        -0.5000 
    119 N         -3.9485  -20.3390  -52.7364 N.am      22 UNK        -0.5000 
    120 CA        -2.7312  -19.8299  -53.3939 C.3       22 UNK         0.1400 
    121 C         -2.9464  -19.2983  -54.8446 C.2       22 UNK         0.5000 
    122 N         -4.1581  -19.2824  -55.3890 N.am      22 UNK        -0.7600 
    123 O         -1.9877  -18.9168  -55.5097 O.2       22 UNK        -0.5000 
    124 C124       -1.9355  -18.8242  -52.5062 C.3       23 UNK        -0.0398 
    125 S125       -0.1307  -19.0853  -52.4996 S.3       23 UNK        -0.2404 
    126 C126        0.2833  -18.1348  -51.0054 C.3       23 UNK        -0.0205 
    127 H127        8.3275  -12.3844  -45.8917 H         1 UNK         0.0600 
    128 H128        7.7580  -10.9857  -46.8089 H         1 UNK         0.0600 
    129 H129        8.0600  -12.5189  -47.6324 H         1 UNK         0.0600 
    130 H130        6.1665  -13.5955  -48.1298 H         1 UNK         0.3000 
    131 H131        4.1952  -14.2489  -46.2223 H         1 UNK         0.0600 
    132 H132        2.9829  -15.3123  -48.1159 H         1 UNK         0.0800 
    133 H133        4.6602  -15.7567  -48.0408 H         1 UNK         0.0800 
    134 H134        4.9242  -15.7733  -51.8309 H         1 UNK         0.0800 
    135 H135        5.8406  -16.1170  -50.3843 H         1 UNK         0.0800 
    136 H136        2.1981  -16.2373  -51.4066 H         1 UNK         0.1150 
    137 H137        1.6145  -20.1664  -49.8305 H         1 UNK         0.1150 
    138 H138        5.4659  -18.2852  -49.5439 H         1 UNK         0.1150 
    139 H139        5.0589  -20.9509  -49.5246 H         1 UNK         0.0800 
    140 H140        4.7128  -20.2398  -47.9682 H         1 UNK         0.0800 
    141 H141        1.9594  -20.2530  -47.2875 H         1 UNK         0.0800 
    142 H142        2.8240  -21.3540  -46.2492 H         1 UNK         0.0800 
    143 H143        1.1480  -23.1758  -46.9042 H         1 UNK         0.0600 
    144 H144        0.7478  -21.1164  -45.0026 H         1 UNK         0.3000 
    145 H145       -2.1756  -22.5370  -43.4825 H         1 UNK         0.0600 
    146 H146       -0.7134  -22.3232  -41.4981 H         1 UNK         0.0600 
    147 H147       -0.1923  -23.6845  -42.4792 H         1 UNK         0.0600 
    148 H148        0.7130  -22.1762  -42.5223 H         1 UNK         0.0600 
    149 H149       -0.7314  -20.1712  -42.8783 H         1 UNK         0.3000 
    150 H150       -2.4870  -17.9789  -45.1380 H         1 UNK         0.0600 
    151 H151       -3.8176  -18.1539  -43.0452 H         1 UNK         0.0600 
    152 H152       -2.7230  -16.7799  -42.9704 H         1 UNK         0.0600 
    153 H153       -2.3452  -18.2577  -42.0891 H         1 UNK         0.0600 
    154 H154       -0.3267  -17.4521  -43.3768 H         1 UNK         0.3000 
    155 H155        2.3484  -18.1887  -45.6413 H         1 UNK         0.0600 
    156 H156        1.2408  -15.5779  -44.4741 H         1 UNK         0.0600 
    157 H157        1.6245  -15.8786  -46.1586 H         1 UNK         0.0600 
    158 H158        2.9106  -15.8592  -44.9594 H         1 UNK         0.0600 
    159 H159        2.1602  -17.3051  -42.8937 H         1 UNK         0.3000 
    160 H160        2.4464  -20.5495  -41.4335 H         1 UNK         0.0600 
    161 H161        4.4807  -18.2653  -41.6656 H         1 UNK         0.0600 
    162 H162        4.7809  -19.9462  -42.0909 H         1 UNK         0.0600 
    163 H163        4.4568  -19.5138  -40.4199 H         1 UNK         0.0600 
    164 H164        2.4249  -17.9036  -40.3333 H         1 UNK         0.3000 
    165 H165       -1.1017  -17.5500  -40.0383 H         1 UNK         0.0600 
    166 H166       -0.5406  -17.2985  -37.6417 H         1 UNK         0.0600 
    167 H167       -0.4666  -18.9930  -38.0961 H         1 UNK         0.0600 
    168 H168        1.0223  -18.0778  -37.8913 H         1 UNK         0.0600 
    169 H169        0.9407  -15.8727  -39.0914 H         1 UNK         0.3000 
    170 H170        1.0106  -13.7251  -40.1974 H         1 UNK         0.0600 
    171 H171        3.1399  -15.0447  -40.0780 H         1 UNK         0.0600 
    172 H172        3.2451  -15.0660  -41.8344 H         1 UNK         0.0600 
    173 H173        3.3948  -13.5464  -40.9535 H         1 UNK         0.0600 
    174 H174        1.8125  -13.4201  -42.9396 H         1 UNK         0.3000 
    175 H175       -0.2186  -13.0664  -44.6989 H         1 UNK         0.0600 
    176 H176       -1.5410  -10.6217  -43.4101 H         1 UNK         0.0600 
    177 H177       -1.4847  -10.9558  -45.1402 H         1 UNK         0.0600 
    178 H178       -2.3602  -12.0327  -44.0642 H         1 UNK         0.0600 
    179 H179        1.5255  -11.7856  -45.0820 H         1 UNK         0.3000 
    180 H180        2.6304   -8.6686  -44.0485 H         1 UNK         0.0600 
    181 H181        4.1461  -11.2084  -43.2349 H         1 UNK         0.0600 
    182 H182        3.7991   -9.8372  -42.1890 H         1 UNK         0.0600 
    183 H183        4.8807   -9.6386  -43.5593 H         1 UNK         0.0600 
    184 H184        3.8499  -10.7362  -45.6409 H         1 UNK         0.3000 
    185 H185        1.7798  -10.5921  -48.4186 H         1 UNK         0.0600 
    186 H186        2.8573   -8.3905  -48.9296 H         1 UNK         0.0600 
    187 H187        4.4104   -9.0140  -48.3860 H         1 UNK         0.0600 
    188 H188        3.6291   -9.6964  -49.8134 H         1 UNK         0.0600 
    189 H189        4.4555  -11.4848  -48.2656 H         1 UNK         0.3000 
    190 H190       -0.7224  -20.0937  -47.1461 H         1 UNK         0.3000 
    191 H191       -1.6317  -20.4231  -49.7822 H         1 UNK         0.0600 
    192 H192       -1.8249  -18.2972  -48.4434 H         1 UNK         0.0600 
    193 H193       -3.3646  -18.7607  -49.1536 H         1 UNK         0.0600 
    194 H194       -3.0642  -19.0428  -47.4453 H         1 UNK         0.0600 
    195 H195       -3.0602  -21.6555  -46.7417 H         1 UNK         0.3000 
    196 H196       -5.3831  -22.8249  -47.9202 H         1 UNK         0.0600 
    197 H197       -5.5436  -24.0190  -45.7382 H         1 UNK         0.0600 
    198 H198       -5.1850  -22.3153  -45.4981 H         1 UNK         0.0600 
    199 H199       -3.9079  -23.5177  -45.3254 H         1 UNK         0.0600 
    200 H200       -2.0516  -23.9358  -47.8057 H         1 UNK         0.3000 
    201 H201       -2.7334  -26.7103  -48.5430 H         1 UNK         0.0600 
    202 H202       -0.8384  -26.2921  -46.9965 H         1 UNK         0.0600 
    203 H203       -0.0253  -25.3166  -48.2158 H         1 UNK         0.0600 
    204 H204       -0.2811  -27.0347  -48.4890 H         1 UNK         0.0600 
    205 H205       -1.1946  -23.8168  -49.9820 H         1 UNK         0.3000 
    206 H206       -0.3820  -24.8169  -52.4271 H         1 UNK         0.0600 
    207 H207        0.3879  -22.6846  -51.5096 H         1 UNK         0.0600 
    208 H208       -0.3255  -22.3892  -53.0864 H         1 UNK         0.0600 
    209 H209       -1.2269  -21.9929  -51.6254 H         1 UNK         0.0600 
    210 H210       -1.7499  -26.0755  -53.5325 H         1 UNK         0.3000 
    211 H211       -3.2969  -26.8177  -54.9001 H         1 UNK         0.0600 
    212 H212       -3.8624  -23.8848  -55.5675 H         1 UNK         0.0600 
    213 H213       -4.4666  -25.2621  -56.4791 H         1 UNK         0.0600 
    214 H214       -2.7415  -24.9578  -56.3914 H         1 UNK         0.0600 
    215 H215       -3.8743  -26.2683  -52.0995 H         1 UNK         0.3000 
    216 H216       -5.3856  -26.5859  -50.5592 H         1 UNK         0.0600 
    217 H217       -7.5793  -27.5889  -51.0020 H         1 UNK         0.0600 
    218 H218       -6.4037  -28.3470  -52.0600 H         1 UNK         0.0600 
    219 H219       -7.5166  -27.1370  -52.6966 H         1 UNK         0.0600 
    220 H220       -7.3738  -25.6822  -49.5270 H         1 UNK         0.3000 
    221 H221       -7.3867  -22.8689  -49.6375 H         1 UNK         0.0600 
    222 H222       -9.3444  -24.8022  -48.2874 H         1 UNK         0.0600 
    223 H223       -7.8450  -24.1872  -47.5889 H         1 UNK         0.0600 
    224 H224       -9.1782  -23.0909  -47.9117 H         1 UNK         0.0600 
    225 H225       -9.1581  -25.0491  -51.6053 H         1 UNK         0.3000 
    226 H226      -11.3860  -23.3608  -52.3238 H         1 UNK         0.0600 
    227 H227      -11.4086  -25.8132  -52.7139 H         1 UNK         0.0600 
    228 H228      -11.5793  -24.9566  -54.2378 H         1 UNK         0.0600 
    229 H229      -10.0329  -25.6793  -53.8102 H         1 UNK         0.0600 
    230 H230       -8.0048  -23.6680  -53.4217 H         1 UNK         0.3000 
    231 H231       -8.3805  -21.6304  -55.5562 H         1 UNK         0.0600 
    232 H232       -7.0327  -23.6874  -56.0726 H         1 UNK         0.0600 
    233 H233       -5.9314  -23.2711  -54.7595 H         1 UNK         0.0600 
    234 H234       -6.0642  -22.2205  -56.1633 H         1 UNK         0.0600 
    235 H235       -6.7460  -22.2411  -52.4492 H         1 UNK         0.3000 
    236 H236       -5.8394  -20.9935  -50.8768 H         1 UNK         0.0600 
    237 H237       -6.8780  -18.8089  -50.3329 H         1 UNK         0.0600 
    238 H238       -7.6464  -18.7505  -51.9146 H         1 UNK         0.0600 
    239 H239       -8.1047  -19.9913  -50.7513 H         1 UNK         0.0600 
    240 H240       -4.0418  -21.3503  -52.7358 H         1 UNK         0.3000 
    241 H241       -2.1204  -20.7223  -53.5239 H         1 UNK         0.0600 
    242 H242       -4.2659  -18.9437  -56.3317 H         1 UNK         0.3800 
    243 H243       -4.9791  -19.5414  -54.8570 H         1 UNK         0.3800 
    244 H244       -2.1459  -17.7910  -52.7888 H         1 UNK         0.0800 
    245 H245       -2.2650  -18.9060  -51.4713 H         1 UNK         0.0800 
    246 H246       -0.0283  -17.0980  -51.1426 H         1 UNK         0.0800 
    247 H247       -0.2875  -18.5149  -50.1606 H         1 UNK         0.0800 
@<TRIPOS>BOND
     1    1    2 1    
     2    1  127 1    
     3    1  128 1    
     4    1  129 1    
     5    2    3 2    
     6    2    4 am   BACKBONE|DICT|INTERRES
     7    4    5 1    
     8    4  130 1    
     9    5    6 1    
    10    5   65 1    
    11    5  131 1    
    12    6    7 1    
    13    6  132 1    
    14    6  133 1    
    15    7    8 1    
    16    8    9 1    
    17    8  134 1    
    18    8  135 1    
    19    9   10 ar   
    20    9   14 ar   
    21   10   11 ar   
    22   10  136 1    
    23   11   12 ar   
    24   11  126 1    
    25   12   13 ar   
    26   12  137 1    
    27   13   14 ar   
    28   13   15 1    
    29   14  138 1    
    30   15   16 1    
    31   15  139 1    
    32   15  140 1    
    33   16   17 1    
    34   17   18 1    
    35   17  141 1    
    36   17  142 1    
    37   18   19 1    
    38   18   67 1    
    39   18  143 1    
    40   19   20 am   BACKBONE|DICT|INTERRES
    41   19  144 1    
    42   20   21 2    
    43   20   22 1    
    44   22   23 1    
    45   22   24 1    
    46   22  145 1    
    47   23  146 1    
    48   23  147 1    
    49   23  148 1    
    50   24   25 am   BACKBONE|DICT|INTERRES
    51   24  149 1    
    52   25   26 2    
    53   25   27 1    
    54   27   28 1    
    55   27   29 1    
    56   27  150 1    
    57   28  151 1    
    58   28  152 1    
    59   28  153 1    
    60   29   30 am   BACKBONE|DICT|INTERRES
    61   29  154 1    
    62   30   31 2    
    63   30   32 1    
    64   32   33 1    
    65   32   34 1    
    66   32  155 1    
    67   33  156 1    
    68   33  157 1    
    69   33  158 1    
    70   34   35 am   BACKBONE|DICT|INTERRES
    71   34  159 1    
    72   35   36 2    
    73   35   37 1    
    74   37   38 1    
    75   37   39 1    
    76   37  160 1    
    77   38  161 1    
    78   38  162 1    
    79   38  163 1    
    80   39   40 am   BACKBONE|DICT|INTERRES
    81   39  164 1    
    82   40   41 2    
    83   40   42 1    
    84   42   43 1    
    85   42   44 1    
    86   42  165 1    
    87   43  166 1    
    88   43  167 1    
    89   43  168 1    
    90   44   45 am   BACKBONE|DICT|INTERRES
    91   44  169 1    
    92   45   46 2    
    93   45   47 1    
    94   47   48 1    
    95   47   49 1    
    96   47  170 1    
    97   48  171 1    
    98   48  172 1    
    99   48  173 1    
   100   49   50 am   BACKBONE|DICT|INTERRES
   101   49  174 1    
   102   50   51 2    
   103   50   52 1    
   104   52   53 1    
   105   52   54 1    
   106   52  175 1    
   107   53  176 1    
   108   53  177 1    
   109   53  178 1    
   110   54   55 am   BACKBONE|DICT|INTERRES
   111   54  179 1    
   112   55   56 2    
   113   55   57 1    
   114   57   58 1    
   115   57   59 1    
   116   57  180 1    
   117   58  181 1    
   118   58  182 1    
   119   58  183 1    
   120   59   60 am   BACKBONE|DICT|INTERRES
   121   59  184 1    
   122   60   61 2    
   123   60   62 1    
   124   62   63 1    
   125   62   64 1    
   126   62  185 1    
   127   63  186 1    
   128   63  187 1    
   129   63  188 1    
   130   64   65 am   BACKBONE|DICT|INTERRES
   131   64  189 1    
   132   65   66 2    
   133   67   68 2    
   134   67   69 am   BACKBONE|DICT|INTERRES
   135   69   70 1    
   136   69  190 1    
   137   70   71 1    
   138   70   72 1    
   139   70  191 1    
   140   71  192 1    
   141   71  193 1    
   142   71  194 1    
   143   72   73 2    
   144   72   74 am   BACKBONE|DICT|INTERRES
   145   74   75 1    
   146   74  195 1    
   147   75   76 1    
   148   75   77 1    
   149   75  196 1    
   150   76  197 1    
   151   76  198 1    
   152   76  199 1    
   153   77   78 2    
   154   77   79 am   BACKBONE|DICT|INTERRES
   155   79   80 1    
   156   79  200 1    
   157   80   81 1    
   158   80   82 1    
   159   80  201 1    
   160   81  202 1    
   161   81  203 1    
   162   81  204 1    
   163   82   83 2    
   164   82   84 am   BACKBONE|DICT|INTERRES
   165   84   85 1    
   166   84  205 1    
   167   85   86 1    
   168   85   87 1    
   169   85  206 1    
   170   86  207 1    
   171   86  208 1    
   172   86  209 1    
   173   87   88 2    
   174   87   89 am   BACKBONE|DICT|INTERRES
   175   89   90 1    
   176   89  210 1    
   177   90   91 1    
   178   90   92 1    
   179   90  211 1    
   180   91  212 1    
   181   91  213 1    
   182   91  214 1    
   183   92   93 2    
   184   92   94 am   BACKBONE|DICT|INTERRES
   185   94   95 1    
   186   94  215 1    
   187   95   96 1    
   188   95   97 1    
   189   95  216 1    
   190   96  217 1    
   191   96  218 1    
   192   96  219 1    
   193   97   98 2    
   194   97   99 am   BACKBONE|DICT|INTERRES
   195   99  100 1    
   196   99  220 1    
   197  100  101 1    
   198  100  102 1    
   199  100  221 1    
   200  101  222 1    
   201  101  223 1    
   202  101  224 1    
   203  102  103 2    
   204  102  104 am   BACKBONE|DICT|INTERRES
   205  104  105 1    
   206  104  225 1    
   207  105  106 1    
   208  105  107 1    
   209  105  226 1    
   210  106  227 1    
   211  106  228 1    
   212  106  229 1    
   213  107  108 2    
   214  107  109 am   BACKBONE|DICT|INTERRES
   215  109  110 1    
   216  109  230 1    
   217  110  111 1    
   218  110  112 1    
   219  110  231 1    
   220  111  232 1    
   221  111  233 1    
   222  111  234 1    
   223  112  113 2    
   224  112  114 am   BACKBONE|DICT|INTERRES
   225  114  115 1    
   226  114  235 1    
   227  115  116 1    
   228  115  117 1    
   229  115  236 1    
   230  116  237 1    
   231  116  238 1    
   232  116  239 1    
   233  117  118 2    
   234  117  119 am   BACKBONE|DICT|INTERRES
   235  119  120 1    
   236  119  240 1    
   237  120  121 1    
   238  120  124 1    
   239  120  241 1    
   240  121  122 am   BACKBONE|DICT|INTERRES
   241  121  123 2    
   242  122  242 1    
   243  122  243 1    
   244  124  125 1    
   245  124  244 1    
   246  124  245 1    
   247  125  126 1    
   248  126  246 1    
   249  126  247 1    
@<TRIPOS>SUBSTRUCTURE
     1 UNK         1 GROUP             0       ****    0 ROOT    
