@<TRIPOS>MOLECULE
3R540
247   249    1
SMALL
USER_CHARGES


@<TRIPOS>ATOM
      1 CA         -2.2326  -11.0717  -47.3948 C.3       0 UNK        -0.1800 
      2 C          -0.9829  -11.4696  -46.6233 C.2       0 UNK         0.5000 
      3 O          -0.6959  -10.8888  -45.5758 O.2       0 UNK        -0.5000 
      4 N          -0.2462  -12.4726  -47.1218 N.am      1 UNK        -0.5000 
      5 CA          1.0015  -12.9781  -46.5308 C.3       1 UNK         0.1400 
      6 C6          1.7936  -13.8772  -47.5077 C.3       23 UNK        -0.0398 
      7 S7          0.9275  -15.3988  -48.0304 S.3       23 UNK        -0.2404 
      8 C8          2.1552  -16.0105  -49.2215 C.3       23 UNK        -0.0205 
      9 C9          1.7908  -17.3698  -49.7970 C.ar      23 UNK        -0.0193 
     10 C10         0.7937  -17.4768  -50.7700 C.ar      23 UNK        -0.1150 
     11 C11         0.5214  -18.7060  -51.3778 C.ar      23 UNK        -0.0193 
     12 C12         1.2524  -19.8375  -50.9968 C.ar      23 UNK        -0.1150 
     13 C13         2.2624  -19.7402  -50.0329 C.ar      23 UNK        -0.0193 
     14 C14         2.5110  -18.5074  -49.4222 C.ar      23 UNK        -0.1150 
     15 C15         3.1592  -20.9336  -49.7237 C.3       23 UNK        -0.0205 
     16 S16         2.2851  -22.3294  -48.9542 S.3       23 UNK        -0.2404 
     17 C17         1.8636  -21.6538  -47.3125 C.3       23 UNK        -0.0398 
     18 CA          0.4921  -22.1689  -46.8207 C.3       11 UNK         0.1400 
     19 N           0.3113  -21.9840  -45.3806 N.am      11 UNK        -0.5000 
     20 C          -0.6993  -22.5067  -44.6711 C.2       10 UNK         0.5000 
     21 O          -1.5625  -23.2444  -45.1467 O.2       10 UNK        -0.5000 
     22 CA         -0.7909  -22.0960  -43.1915 C.3       10 UNK         0.1400 
     23 CB          0.1840  -22.9150  -42.3327 C.3       10 UNK        -0.1800 
     24 N          -0.5435  -20.6688  -42.9910 N.am      10 UNK        -0.5000 
     25 C          -1.2962  -19.6858  -43.5048 C.2       9 UNK         0.5000 
     26 O          -2.3103  -19.8749  -44.1751 O.2       9 UNK        -0.5000 
     27 CA         -0.8074  -18.2484  -43.2650 C.3       9 UNK         0.1400 
     28 CB         -1.1226  -17.8100  -41.8243 C.3       9 UNK        -0.1800 
     29 N           0.6214  -18.0861  -43.5472 N.am      9 UNK        -0.5000 
     30 C           1.1914  -18.3027  -44.7436 C.2       8 UNK         0.5000 
     31 O           0.5656  -18.6150  -45.7541 O.2       8 UNK        -0.5000 
     32 CA          2.7265  -18.2379  -44.8110 C.3       8 UNK         0.1400 
     33 CB          3.2246  -16.7968  -44.9823 C.3       8 UNK        -0.1800 
     34 N           3.3450  -18.8406  -43.6323 N.am      8 UNK        -0.5000 
     35 C           3.3130  -20.1514  -43.3525 C.2       7 UNK         0.5000 
     36 O           2.8114  -20.9978  -44.0927 O.2       7 UNK        -0.5000 
     37 CA          3.8923  -20.5729  -41.9900 C.3       7 UNK         0.1400 
     38 CB          5.4200  -20.7101  -42.0675 C.3       7 UNK        -0.1800 
     39 N           3.5407  -19.6281  -40.9277 N.am      7 UNK        -0.5000 
     40 C           2.2932  -19.4298  -40.4776 C.2       6 UNK         0.5000 
     41 O           1.3220  -20.0782  -40.8640 O.2       6 UNK        -0.5000 
     42 CA          2.0894  -18.2892  -39.4624 C.3       6 UNK         0.1400 
     43 CB          2.2297  -18.8149  -38.0264 C.3       6 UNK        -0.1800 
     44 N           3.0188  -17.1748  -39.6654 N.am      6 UNK        -0.5000 
     45 C           3.0062  -16.3581  -40.7269 C.2       5 UNK         0.5000 
     46 O           2.1904  -16.4388  -41.6477 O.2       5 UNK        -0.5000 
     47 CA          4.1502  -15.3419  -40.8043 C.3       5 UNK         0.1400 
     48 CB          5.3626  -15.9664  -41.5226 C.3       5 UNK        -0.1800 
     49 N           3.7180  -14.1362  -41.5065 N.am      5 UNK        -0.5000 
     50 C           4.3396  -12.9524  -41.4169 C.2       4 UNK         0.5000 
     51 O           5.3279  -12.7547  -40.7082 O.2       4 UNK        -0.5000 
     52 CA          3.7782  -11.7881  -42.2486 C.3       4 UNK         0.1400 
     53 CB          4.3559  -11.8128  -43.6731 C.3       4 UNK        -0.1800 
     54 N           2.3170  -11.7947  -42.3068 N.am      4 UNK        -0.5000 
     55 C           1.5264  -11.2459  -41.3718 C.2       3 UNK         0.5000 
     56 O           1.9573  -10.7157  -40.3468 O.2       3 UNK        -0.5000 
     57 CA          0.0035  -11.2572  -41.6187 C.3       3 UNK         0.1400 
     58 CB         -0.4669   -9.8824  -42.1181 C.3       3 UNK        -0.1800 
     59 N          -0.4151  -12.2727  -42.5823 N.am      3 UNK        -0.5000 
     60 C          -0.5078  -13.5811  -42.3081 C.2       2 UNK         0.5000 
     61 O          -0.3391  -14.0535  -41.1843 O.2       2 UNK        -0.5000 
     62 CA         -0.8191  -14.5231  -43.4892 C.3       2 UNK         0.1400 
     63 CB         -2.3180  -14.8603  -43.5246 C.3       2 UNK        -0.1800 
     64 N          -0.4269  -13.9957  -44.7958 N.am      2 UNK        -0.5000 
     65 C           0.8173  -13.6470  -45.1510 C.2       1 UNK         0.5000 
     66 O           1.7912  -13.7809  -44.4112 O.2       1 UNK        -0.5000 
     67 C          -0.6770  -21.5679  -47.6260 C.2       11 UNK         0.5000 
     68 O          -1.2555  -22.2696  -48.4535 O.2       11 UNK        -0.5000 
     69 N          -1.0415  -20.3116  -47.3348 N.am      12 UNK        -0.5000 
     70 CA         -2.1577  -19.6067  -47.9643 C.3       12 UNK         0.1400 
     71 CB         -2.1881  -18.1502  -47.4781 C.3       12 UNK        -0.1800 
     72 C          -3.5144  -20.2961  -47.7290 C.2       12 UNK         0.5000 
     73 O          -4.3160  -20.3780  -48.6582 O.2       12 UNK        -0.5000 
     74 N          -3.7343  -20.8152  -46.5129 N.am      13 UNK        -0.5000 
     75 CA         -4.9177  -21.5934  -46.1463 C.3       13 UNK         0.1400 
     76 CB         -4.9461  -21.8031  -44.6248 C.3       13 UNK        -0.1800 
     77 C          -5.0036  -22.9428  -46.8843 C.2       13 UNK         0.5000 
     78 O          -6.0925  -23.3243  -47.3142 O.2       13 UNK        -0.5000 
     79 N          -3.8634  -23.6334  -47.0267 N.am      14 UNK        -0.5000 
     80 CA         -3.7497  -24.8999  -47.7523 C.3       14 UNK         0.1400 
     81 CB         -2.4072  -25.5663  -47.4135 C.3       14 UNK        -0.1800 
     82 C          -3.9057  -24.7264  -49.2745 C.2       14 UNK         0.5000 
     83 O          -4.5832  -25.5328  -49.9127 O.2       14 UNK        -0.5000 
     84 N          -3.2807  -23.6757  -49.8208 N.am      15 UNK        -0.5000 
     85 CA         -3.3462  -23.2858  -51.2288 C.3       15 UNK         0.1400 
     86 CB         -2.2772  -22.2107  -51.4795 C.3       15 UNK        -0.1800 
     87 C          -4.7483  -22.7921  -51.6369 C.2       15 UNK         0.5000 
     88 O          -5.2205  -23.1161  -52.7295 O.2       15 UNK        -0.5000 
     89 N          -5.3902  -22.0401  -50.7302 N.am      16 UNK        -0.5000 
     90 CA         -6.7434  -21.4884  -50.8083 C.3       16 UNK         0.1400 
     91 CB         -7.7829  -22.6240  -50.6987 C.3       16 UNK        -0.1800 
     92 C          -6.9528  -20.5817  -52.0396 C.2       16 UNK         0.5000 
     93 O          -5.9855  -20.0379  -52.5789 O.2       16 UNK        -0.5000 
     94 N          -8.2103  -20.4304  -52.4739 N.am      17 UNK        -0.5000 
     95 CA         -8.6176  -19.6750  -53.6599 C.3       17 UNK         0.1400 
     96 CB        -10.1063  -19.3079  -53.5226 C.3       17 UNK        -0.1800 
     97 C          -8.3127  -20.4592  -54.9539 C.2       17 UNK         0.5000 
     98 O          -9.2322  -20.8687  -55.6649 O.2       17 UNK        -0.5000 
     99 N          -7.0152  -20.6762  -55.2055 N.am      18 UNK        -0.5000 
    100 CA        -6.4286  -21.4274  -56.3179 C.3       18 UNK         0.1400 
    101 CB        -6.6651  -20.6958  -57.6553 C.3       18 UNK        -0.1800 
    102 C         -6.8570  -22.9099  -56.3485 C.2       18 UNK         0.5000 
    103 O         -7.0477  -23.4717  -57.4292 O.2       18 UNK        -0.5000 
    104 N         -6.9844  -23.5310  -55.1649 N.am      19 UNK        -0.5000 
    105 CA        -7.1977  -24.9753  -55.0278 C.3       19 UNK         0.1400 
    106 CB        -7.7257  -25.3038  -53.6236 C.3       19 UNK        -0.1800 
    107 C         -5.9000  -25.7467  -55.3267 C.2       19 UNK         0.5000 
    108 O         -5.9434  -26.7960  -55.9703 O.2       19 UNK        -0.5000 
    109 N         -4.7695  -25.1712  -54.9056 N.am      20 UNK        -0.5000 
    110 CA        -3.4262  -25.5310  -55.3287 C.3       20 UNK         0.1400 
    111 CB        -2.7700  -26.4435  -54.2807 C.3       20 UNK        -0.1800 
    112 C         -2.6512  -24.2202  -55.5017 C.2       20 UNK         0.5000 
    113 O         -2.7122  -23.3649  -54.6157 O.2       20 UNK        -0.5000 
    114 N         -1.9493  -24.0796  -56.6342 N.am      21 UNK        -0.5000 
    115 CA        -1.1296  -22.9234  -57.0137 C.3       21 UNK         0.1400 
    116 CB         0.1951  -22.9424  -56.2154 C.3       21 UNK        -0.1800 
    117 C         -1.9085  -21.5897  -56.9154 C.2       21 UNK         0.5000 
    118 O         -2.9278  -21.4331  -57.5898 O.2       21 UNK        -0.5000 
    119 N         -1.4215  -20.6707  -56.0765 N.am      22 UNK        -0.5000 
    120 CA        -2.0229  -19.3693  -55.7564 C.3       22 UNK         0.1400 
    121 C         -3.2457  -19.4099  -54.7940 C.2       22 UNK         0.5000 
    122 N         -3.6359  -20.5463  -54.2333 N.am      22 UNK        -0.7600 
    123 O         -3.8651  -18.3766  -54.5586 O.2       22 UNK        -0.5000 
    124 C124       -0.9487  -18.3510  -55.2789 C.3       23 UNK        -0.0398 
    125 S125        0.2911  -19.0123  -54.1048 S.3       23 UNK        -0.2404 
    126 C126       -0.5171  -18.7921  -52.4879 C.3       23 UNK        -0.0205 
    127 H127       -3.1153  -11.1932  -46.7669 H         1 UNK         0.0600 
    128 H128       -2.3659  -11.6778  -48.2913 H         1 UNK         0.0600 
    129 H129       -2.1689  -10.0263  -47.6970 H         1 UNK         0.0600 
    130 H130       -0.5387  -12.9311  -47.9737 H         1 UNK         0.3000 
    131 H131        1.6264  -12.1021  -46.3428 H         1 UNK         0.0600 
    132 H132        2.7535  -14.1539  -47.0676 H         1 UNK         0.0800 
    133 H133        2.0385  -13.3011  -48.4012 H         1 UNK         0.0800 
    134 H134        3.1311  -16.0570  -48.7355 H         1 UNK         0.0800 
    135 H135        2.2539  -15.2918  -50.0365 H         1 UNK         0.0800 
    136 H136        0.2520  -16.5923  -51.0749 H         1 UNK         0.1150 
    137 H137        1.0659  -20.7842  -51.4844 H         1 UNK         0.1150 
    138 H138        3.3018  -18.4210  -48.6904 H         1 UNK         0.1150 
    139 H139        3.6075  -21.2794  -50.6561 H         1 UNK         0.0800 
    140 H140        3.9909  -20.6412  -49.0807 H         1 UNK         0.0800 
    141 H141        1.8904  -20.5632  -47.3238 H         1 UNK         0.0800 
    142 H142        2.6495  -21.9688  -46.6252 H         1 UNK         0.0800 
    143 H143        0.4701  -23.2486  -46.9865 H         1 UNK         0.0600 
    144 H144        1.0039  -21.4170  -44.9026 H         1 UNK         0.3000 
    145 H145       -1.8062  -22.3081  -42.8501 H         1 UNK         0.0600 
    146 H146        0.0677  -22.6812  -41.2743 H         1 UNK         0.0600 
    147 H147        1.2221  -22.7215  -42.6044 H         1 UNK         0.0600 
    148 H148        0.0060  -23.9845  -42.4519 H         1 UNK         0.0600 
    149 H149        0.2464  -20.4219  -42.4006 H         1 UNK         0.3000 
    150 H150       -1.3477  -17.5968  -43.9528 H         1 UNK         0.0600 
    151 H151       -2.1996  -17.7215  -41.6785 H         1 UNK         0.0600 
    152 H152       -0.6801  -16.8453  -41.5810 H         1 UNK         0.0600 
    153 H153       -0.7602  -18.5279  -41.0901 H         1 UNK         0.0600 
    154 H154        1.2083  -17.7736  -42.7809 H         1 UNK         0.3000 
    155 H155        3.0427  -18.8063  -45.6884 H         1 UNK         0.0600 
    156 H156        2.7871  -16.3408  -45.8694 H         1 UNK         0.0600 
    157 H157        4.3075  -16.7636  -45.1010 H         1 UNK         0.0600 
    158 H158        2.9616  -16.1710  -44.1306 H         1 UNK         0.0600 
    159 H159        3.7363  -18.2082  -42.9517 H         1 UNK         0.3000 
    160 H160        3.4722  -21.5481  -41.7347 H         1 UNK         0.0600 
    161 H161        5.9014  -19.7585  -42.2964 H         1 UNK         0.0600 
    162 H162        5.7084  -21.4195  -42.8444 H         1 UNK         0.0600 
    163 H163        5.8307  -21.0763  -41.1264 H         1 UNK         0.0600 
    164 H164        4.2874  -19.0674  -40.5458 H         1 UNK         0.3000 
    165 H165        1.0737  -17.9091  -39.5884 H         1 UNK         0.0600 
    166 H166        2.0144  -18.0333  -37.2976 H         1 UNK         0.0600 
    167 H167        1.5310  -19.6319  -37.8406 H         1 UNK         0.0600 
    168 H168        3.2345  -19.1910  -37.8300 H         1 UNK         0.0600 
    169 H169        3.7268  -17.0476  -38.9563 H         1 UNK         0.3000 
    170 H170        4.4332  -15.0735  -39.7841 H         1 UNK         0.0600 
    171 H171        5.1346  -16.2012  -42.5628 H         1 UNK         0.0600 
    172 H172        6.2199  -15.2935  -41.5152 H         1 UNK         0.0600 
    173 H173        5.6785  -16.8903  -41.0368 H         1 UNK         0.0600 
    174 H174        2.8976  -14.2412  -42.0918 H         1 UNK         0.3000 
    175 H175        4.1069  -10.8569  -41.7815 H         1 UNK         0.0600 
    176 H176        4.1545  -12.7563  -44.1802 H         1 UNK         0.0600 
    177 H177        3.9444  -11.0079  -44.2823 H         1 UNK         0.0600 
    178 H178        5.4386  -11.6837  -43.6520 H         1 UNK         0.0600 
    179 H179        1.9011  -12.2809  -43.0931 H         1 UNK         0.3000 
    180 H180       -0.4852  -11.4568  -40.6627 H         1 UNK         0.0600 
    181 H181       -1.5493   -9.8579  -42.2459 H         1 UNK         0.0600 
    182 H182       -0.0107   -9.6251  -43.0750 H         1 UNK         0.0600 
    183 H183       -0.2060   -9.0969  -41.4076 H         1 UNK         0.0600 
    184 H184       -0.5709  -11.9587  -43.5325 H         1 UNK         0.3000 
    185 H185       -0.2448  -15.4352  -43.3326 H         1 UNK         0.0600 
    186 H186       -2.9240  -13.9684  -43.6889 H         1 UNK         0.0600 
    187 H187       -2.5488  -15.5702  -44.3188 H         1 UNK         0.0600 
    188 H188       -2.6421  -15.3059  -42.5835 H         1 UNK         0.0600 
    189 H189       -1.1669  -13.8421  -45.4646 H         1 UNK         0.3000 
    190 H190       -0.5014  -19.7805  -46.6538 H         1 UNK         0.3000 
    191 H191       -1.9730  -19.5990  -49.0406 H         1 UNK         0.0600 
    192 H192       -1.2615  -17.6343  -47.7309 H         1 UNK         0.0600 
    193 H193       -2.3200  -18.0890  -46.3974 H         1 UNK         0.0600 
    194 H194       -3.0054  -17.5983  -47.9437 H         1 UNK         0.0600 
    195 H195       -3.0498  -20.6527  -45.7790 H         1 UNK         0.3000 
    196 H196       -5.7984  -21.0098  -46.4223 H         1 UNK         0.0600 
    197 H197       -4.9793  -20.8500  -44.0968 H         1 UNK         0.0600 
    198 H198       -4.0675  -22.3470  -44.2768 H         1 UNK         0.0600 
    199 H199       -5.8265  -22.3724  -44.3244 H         1 UNK         0.0600 
    200 H200       -3.0137  -23.2728  -46.6047 H         1 UNK         0.3000 
    201 H201       -4.5489  -25.5603  -47.4094 H         1 UNK         0.0600 
    202 H202       -2.3265  -25.7670  -46.3451 H         1 UNK         0.0600 
    203 H203       -1.5619  -24.9393  -47.6993 H         1 UNK         0.0600 
    204 H204       -2.3013  -26.5193  -47.9333 H         1 UNK         0.0600 
    205 H205       -2.6871  -23.1007  -49.2254 H         1 UNK         0.3000 
    206 H206       -3.1062  -24.1592  -51.8362 H         1 UNK         0.0600 
    207 H207       -2.4908  -21.2947  -50.9277 H         1 UNK         0.0600 
    208 H208       -1.2889  -22.5589  -51.1791 H         1 UNK         0.0600 
    209 H209       -2.2091  -21.9534  -52.5329 H         1 UNK         0.0600 
    210 H210       -4.8719  -21.7490  -49.9070 H         1 UNK         0.3000 
    211 H211       -6.8539  -20.8475  -49.9328 H         1 UNK         0.0600 
    212 H212       -7.8243  -23.2193  -51.6095 H         1 UNK         0.0600 
    213 H213       -8.7833  -22.2348  -50.5086 H         1 UNK         0.0600 
    214 H214       -7.5429  -23.2960  -49.8742 H         1 UNK         0.0600 
    215 H215       -8.9455  -20.9294  -51.9948 H         1 UNK         0.3000 
    216 H216       -8.0487  -18.7435  -53.6995 H         1 UNK         0.0600 
    217 H217      -10.4456  -18.7254  -54.3801 H         1 UNK         0.0600 
    218 H218      -10.2824  -18.7041  -52.6322 H         1 UNK         0.0600 
    219 H219      -10.7375  -20.1950  -53.4563 H         1 UNK         0.0600 
    220 H220       -6.3566  -20.3256  -54.5172 H         1 UNK         0.3000 
    221 H221       -5.3528  -21.4398  -56.1453 H         1 UNK         0.0600 
    222 H222       -7.7183  -20.6938  -57.9371 H         1 UNK         0.0600 
    223 H223       -6.3281  -19.6606  -57.6012 H         1 UNK         0.0600 
    224 H224       -6.1092  -21.1725  -58.4635 H         1 UNK         0.0600 
    225 H225       -6.7475  -23.0278  -54.3187 H         1 UNK         0.3000 
    226 H226       -7.9537  -25.2873  -55.7516 H         1 UNK         0.0600 
    227 H227       -8.6322  -24.7412  -53.4007 H         1 UNK         0.0600 
    228 H228       -7.9726  -26.3629  -53.5431 H         1 UNK         0.0600 
    229 H229       -6.9894  -25.0848  -52.8502 H         1 UNK         0.0600 
    230 H230       -4.8265  -24.3165  -54.3571 H         1 UNK         0.3000 
    231 H231       -3.4618  -26.0523  -56.2878 H         1 UNK         0.0600 
    232 H232       -1.7537  -26.7070  -54.5757 H         1 UNK         0.0600 
    233 H233       -3.3282  -27.3725  -54.1646 H         1 UNK         0.0600 
    234 H234       -2.7154  -25.9632  -53.3038 H         1 UNK         0.0600 
    235 H235       -1.9924  -24.8199  -57.3202 H         1 UNK         0.3000 
    236 H236       -0.8810  -23.0501  -58.0683 H         1 UNK         0.0600 
    237 H237        0.0300  -22.8421  -55.1416 H         1 UNK         0.0600 
    238 H238        0.7310  -23.8778  -56.3769 H         1 UNK         0.0600 
    239 H239        0.8607  -22.1377  -56.5305 H         1 UNK         0.0600 
    240 H240       -0.5956  -20.8977  -55.5416 H         1 UNK         0.3000 
    241 H241       -2.4305  -18.9752  -56.6893 H         1 UNK         0.0600 
    242 H242       -4.4088  -20.5070  -53.5774 H         1 UNK         0.3800 
    243 H243       -3.1710  -21.4291  -54.4203 H         1 UNK         0.3800 
    244 H244       -1.3975  -17.4437  -54.8707 H         1 UNK         0.0800 
    245 H245       -0.3889  -18.0140  -56.1521 H         1 UNK         0.0800 
    246 H246       -1.1922  -19.6273  -52.3020 H         1 UNK         0.0800 
    247 H247       -1.1343  -17.8925  -52.5012 H         1 UNK         0.0800 
@<TRIPOS>BOND
     1    1    2 1    
     2    1  127 1    
     3    1  128 1    
     4    1  129 1    
     5    2    3 2    
     6    2    4 am   BACKBONE|DICT|INTERRES
     7    4    5 1    
     8    4  130 1    
     9    5    6 1    
    10    5   65 1    
    11    5  131 1    
    12    6    7 1    
    13    6  132 1    
    14    6  133 1    
    15    7    8 1    
    16    8    9 1    
    17    8  134 1    
    18    8  135 1    
    19    9   10 ar   
    20    9   14 ar   
    21   10   11 ar   
    22   10  136 1    
    23   11   12 ar   
    24   11  126 1    
    25   12   13 ar   
    26   12  137 1    
    27   13   14 ar   
    28   13   15 1    
    29   14  138 1    
    30   15   16 1    
    31   15  139 1    
    32   15  140 1    
    33   16   17 1    
    34   17   18 1    
    35   17  141 1    
    36   17  142 1    
    37   18   19 1    
    38   18   67 1    
    39   18  143 1    
    40   19   20 am   BACKBONE|DICT|INTERRES
    41   19  144 1    
    42   20   21 2    
    43   20   22 1    
    44   22   23 1    
    45   22   24 1    
    46   22  145 1    
    47   23  146 1    
    48   23  147 1    
    49   23  148 1    
    50   24   25 am   BACKBONE|DICT|INTERRES
    51   24  149 1    
    52   25   26 2    
    53   25   27 1    
    54   27   28 1    
    55   27   29 1    
    56   27  150 1    
    57   28  151 1    
    58   28  152 1    
    59   28  153 1    
    60   29   30 am   BACKBONE|DICT|INTERRES
    61   29  154 1    
    62   30   31 2    
    63   30   32 1    
    64   32   33 1    
    65   32   34 1    
    66   32  155 1    
    67   33  156 1    
    68   33  157 1    
    69   33  158 1    
    70   34   35 am   BACKBONE|DICT|INTERRES
    71   34  159 1    
    72   35   36 2    
    73   35   37 1    
    74   37   38 1    
    75   37   39 1    
    76   37  160 1    
    77   38  161 1    
    78   38  162 1    
    79   38  163 1    
    80   39   40 am   BACKBONE|DICT|INTERRES
    81   39  164 1    
    82   40   41 2    
    83   40   42 1    
    84   42   43 1    
    85   42   44 1    
    86   42  165 1    
    87   43  166 1    
    88   43  167 1    
    89   43  168 1    
    90   44   45 am   BACKBONE|DICT|INTERRES
    91   44  169 1    
    92   45   46 2    
    93   45   47 1    
    94   47   48 1    
    95   47   49 1    
    96   47  170 1    
    97   48  171 1    
    98   48  172 1    
    99   48  173 1    
   100   49   50 am   BACKBONE|DICT|INTERRES
   101   49  174 1    
   102   50   51 2    
   103   50   52 1    
   104   52   53 1    
   105   52   54 1    
   106   52  175 1    
   107   53  176 1    
   108   53  177 1    
   109   53  178 1    
   110   54   55 am   BACKBONE|DICT|INTERRES
   111   54  179 1    
   112   55   56 2    
   113   55   57 1    
   114   57   58 1    
   115   57   59 1    
   116   57  180 1    
   117   58  181 1    
   118   58  182 1    
   119   58  183 1    
   120   59   60 am   BACKBONE|DICT|INTERRES
   121   59  184 1    
   122   60   61 2    
   123   60   62 1    
   124   62   63 1    
   125   62   64 1    
   126   62  185 1    
   127   63  186 1    
   128   63  187 1    
   129   63  188 1    
   130   64   65 am   BACKBONE|DICT|INTERRES
   131   64  189 1    
   132   65   66 2    
   133   67   68 2    
   134   67   69 am   BACKBONE|DICT|INTERRES
   135   69   70 1    
   136   69  190 1    
   137   70   71 1    
   138   70   72 1    
   139   70  191 1    
   140   71  192 1    
   141   71  193 1    
   142   71  194 1    
   143   72   73 2    
   144   72   74 am   BACKBONE|DICT|INTERRES
   145   74   75 1    
   146   74  195 1    
   147   75   76 1    
   148   75   77 1    
   149   75  196 1    
   150   76  197 1    
   151   76  198 1    
   152   76  199 1    
   153   77   78 2    
   154   77   79 am   BACKBONE|DICT|INTERRES
   155   79   80 1    
   156   79  200 1    
   157   80   81 1    
   158   80   82 1    
   159   80  201 1    
   160   81  202 1    
   161   81  203 1    
   162   81  204 1    
   163   82   83 2    
   164   82   84 am   BACKBONE|DICT|INTERRES
   165   84   85 1    
   166   84  205 1    
   167   85   86 1    
   168   85   87 1    
   169   85  206 1    
   170   86  207 1    
   171   86  208 1    
   172   86  209 1    
   173   87   88 2    
   174   87   89 am   BACKBONE|DICT|INTERRES
   175   89   90 1    
   176   89  210 1    
   177   90   91 1    
   178   90   92 1    
   179   90  211 1    
   180   91  212 1    
   181   91  213 1    
   182   91  214 1    
   183   92   93 2    
   184   92   94 am   BACKBONE|DICT|INTERRES
   185   94   95 1    
   186   94  215 1    
   187   95   96 1    
   188   95   97 1    
   189   95  216 1    
   190   96  217 1    
   191   96  218 1    
   192   96  219 1    
   193   97   98 2    
   194   97   99 am   BACKBONE|DICT|INTERRES
   195   99  100 1    
   196   99  220 1    
   197  100  101 1    
   198  100  102 1    
   199  100  221 1    
   200  101  222 1    
   201  101  223 1    
   202  101  224 1    
   203  102  103 2    
   204  102  104 am   BACKBONE|DICT|INTERRES
   205  104  105 1    
   206  104  225 1    
   207  105  106 1    
   208  105  107 1    
   209  105  226 1    
   210  106  227 1    
   211  106  228 1    
   212  106  229 1    
   213  107  108 2    
   214  107  109 am   BACKBONE|DICT|INTERRES
   215  109  110 1    
   216  109  230 1    
   217  110  111 1    
   218  110  112 1    
   219  110  231 1    
   220  111  232 1    
   221  111  233 1    
   222  111  234 1    
   223  112  113 2    
   224  112  114 am   BACKBONE|DICT|INTERRES
   225  114  115 1    
   226  114  235 1    
   227  115  116 1    
   228  115  117 1    
   229  115  236 1    
   230  116  237 1    
   231  116  238 1    
   232  116  239 1    
   233  117  118 2    
   234  117  119 am   BACKBONE|DICT|INTERRES
   235  119  120 1    
   236  119  240 1    
   237  120  121 1    
   238  120  124 1    
   239  120  241 1    
   240  121  122 am   BACKBONE|DICT|INTERRES
   241  121  123 2    
   242  122  242 1    
   243  122  243 1    
   244  124  125 1    
   245  124  244 1    
   246  124  245 1    
   247  125  126 1    
   248  126  246 1    
   249  126  247 1    
@<TRIPOS>SUBSTRUCTURE
     1 UNK         1 GROUP             0       ****    0 ROOT    
