@<TRIPOS>MOLECULE
3R540
247   249    1
SMALL
USER_CHARGES


@<TRIPOS>ATOM
      1 CA          2.1992  -13.7446  -47.8606 C.3       0 UNK        -0.1800 
      2 C           3.0241  -15.0207  -47.9470 C.2       0 UNK         0.5000 
      3 O           2.5935  -16.0664  -47.4657 O.2       0 UNK        -0.5000 
      4 N           4.2175  -14.9299  -48.5466 N.am      1 UNK        -0.5000 
      5 CA          5.2059  -15.9969  -48.7673 C.3       1 UNK         0.1400 
      6 C6          4.6905  -17.1813  -49.6302 C.3       23 UNK        -0.0398 
      7 S7          4.3795  -16.6692  -51.3550 S.3       23 UNK        -0.2404 
      8 C8          3.3939  -18.0728  -51.9883 C.3       23 UNK        -0.0205 
      9 C9          1.8769  -17.9785  -51.8014 C.ar      23 UNK        -0.0193 
     10 C10         1.0763  -18.9505  -52.4133 C.ar      23 UNK        -0.1150 
     11 C11        -0.3152  -18.9302  -52.2781 C.ar      23 UNK        -0.0193 
     12 C12        -0.9110  -17.9143  -51.5272 C.ar      23 UNK        -0.1150 
     13 C13        -0.1310  -16.9390  -50.9043 C.ar      23 UNK        -0.0193 
     14 C14         1.2585  -16.9743  -51.0439 C.ar      23 UNK        -0.1150 
     15 C15        -0.7886  -15.8619  -50.0578 C.3       23 UNK        -0.0205 
     16 S16        -0.7598  -16.2926  -48.2904 S.3       23 UNK        -0.2404 
     17 C17        -1.8989  -17.7134  -48.2190 C.3       23 UNK        -0.0398 
     18 CA         -1.1668  -19.0783  -48.2006 C.3       11 UNK         0.1400 
     19 N          -0.3155  -19.2605  -47.0196 N.am      11 UNK        -0.5000 
     20 C           0.4977  -20.3123  -46.8294 C.2       10 UNK         0.5000 
     21 O           0.6198  -21.2307  -47.6378 O.2       10 UNK        -0.5000 
     22 CA          1.2884  -20.3930  -45.5121 C.3       10 UNK         0.1400 
     23 CB          2.7326  -19.9318  -45.7339 C.3       10 UNK        -0.1800 
     24 N           0.6921  -19.6250  -44.4222 N.am      10 UNK        -0.5000 
     25 C          -0.4884  -19.9032  -43.8502 C.2       9 UNK         0.5000 
     26 O          -1.1847  -20.8702  -44.1646 O.2       9 UNK        -0.5000 
     27 CA         -0.9957  -18.9197  -42.7755 C.3       9 UNK         0.1400 
     28 CB         -0.7465  -19.4838  -41.3697 C.3       9 UNK        -0.1800 
     29 N          -0.4187  -17.5734  -42.8655 N.am      9 UNK        -0.5000 
     30 C          -0.5509  -16.7520  -43.9169 C.2       8 UNK         0.5000 
     31 O          -1.1486  -17.0626  -44.9483 O.2       8 UNK        -0.5000 
     32 CA          0.0958  -15.3637  -43.7644 C.3       8 UNK         0.1400 
     33 CB         -0.1144  -14.4445  -44.9837 C.3       8 UNK        -0.1800 
     34 N          -0.3188  -14.7087  -42.5199 N.am      8 UNK        -0.5000 
     35 C          -1.5499  -14.2905  -42.1881 C.2       7 UNK         0.5000 
     36 O          -2.5354  -14.3890  -42.9208 O.2       7 UNK        -0.5000 
     37 CA         -1.6829  -13.6331  -40.7989 C.3       7 UNK         0.1400 
     38 CB         -3.1458  -13.4623  -40.3364 C.3       7 UNK        -0.1800 
     39 N          -0.8743  -14.2991  -39.7727 N.am      7 UNK        -0.5000 
     40 C          -1.0246  -15.5431  -39.2896 C.2       6 UNK         0.5000 
     41 O          -1.9104  -16.3147  -39.6580 O.2       6 UNK        -0.5000 
     42 CA         -0.0091  -16.0044  -38.2216 C.3       6 UNK         0.1400 
     43 CB          0.3369  -17.4973  -38.3609 C.3       6 UNK        -0.1800 
     44 N           1.2299  -15.2307  -38.2989 N.am      6 UNK        -0.5000 
     45 C           1.5804  -14.2260  -37.4847 C.2       5 UNK         0.5000 
     46 O           0.9156  -13.8723  -36.5108 O.2       5 UNK        -0.5000 
     47 CA          2.8796  -13.4665  -37.8289 C.3       5 UNK         0.1400 
     48 CB          4.0328  -13.9456  -36.9340 C.3       5 UNK        -0.1800 
     49 N           3.2850  -13.5962  -39.2319 N.am      5 UNK        -0.5000 
     50 C           2.6104  -13.1072  -40.2823 C.2       4 UNK         0.5000 
     51 O           1.5728  -12.4521  -40.1841 O.2       4 UNK        -0.5000 
     52 CA          3.1456  -13.4795  -41.6788 C.3       4 UNK         0.1400 
     53 CB          4.1598  -12.4355  -42.1672 C.3       4 UNK        -0.1800 
     54 N           3.7568  -14.8120  -41.7371 N.am      4 UNK        -0.5000 
     55 C           3.1337  -15.9669  -41.4603 C.2       3 UNK         0.5000 
     56 O           1.9561  -16.0314  -41.0985 O.2       3 UNK        -0.5000 
     57 CA          3.9748  -17.2511  -41.6141 C.3       3 UNK         0.1400 
     58 CB          3.1162  -18.5321  -41.6051 C.3       3 UNK        -0.1800 
     59 N           4.8575  -17.2298  -42.7878 N.am      3 UNK        -0.5000 
     60 C           4.4857  -17.1145  -44.0711 C.2       2 UNK         0.5000 
     61 O           3.3189  -16.9604  -44.4388 O.2       2 UNK        -0.5000 
     62 CA          5.6176  -17.2097  -45.1067 C.3       2 UNK         0.1400 
     63 CB          6.1911  -18.6404  -45.1820 C.3       2 UNK        -0.1800 
     64 N           5.1349  -16.7835  -46.4181 N.am      2 UNK        -0.5000 
     65 C           5.8996  -16.4792  -47.4724 C.2       1 UNK         0.5000 
     66 O           7.1301  -16.5403  -47.4498 O.2       1 UNK        -0.5000 
     67 C          -2.1875  -20.2222  -48.3482 C.2       11 UNK         0.5000 
     68 O          -2.3343  -20.7706  -49.4394 O.2       11 UNK        -0.5000 
     69 N          -2.8403  -20.5903  -47.2360 N.am      12 UNK        -0.5000 
     70 CA         -3.8081  -21.6853  -47.1776 C.3       12 UNK         0.1400 
     71 CB         -4.5441  -21.6464  -45.8307 C.3       12 UNK        -0.1800 
     72 C          -3.1541  -23.0589  -47.4007 C.2       12 UNK         0.5000 
     73 O          -3.7394  -23.9041  -48.0790 O.2       12 UNK        -0.5000 
     74 N          -1.9446  -23.2401  -46.8520 N.am      13 UNK        -0.5000 
     75 CA         -1.1366  -24.4493  -47.0013 C.3       13 UNK         0.1400 
     76 CB          0.0370  -24.4118  -46.0107 C.3       13 UNK        -0.1800 
     77 C          -0.6374  -24.6422  -48.4437 C.2       13 UNK         0.5000 
     78 O          -0.7593  -25.7422  -48.9822 O.2       13 UNK        -0.5000 
     79 N          -0.1250  -23.5643  -49.0548 N.am      14 UNK        -0.5000 
     80 CA          0.3414  -23.5279  -50.4423 C.3       14 UNK         0.1400 
     81 CB          1.0613  -22.1959  -50.7034 C.3       14 UNK        -0.1800 
     82 C          -0.7932  -23.7411  -51.4600 C.2       14 UNK         0.5000 
     83 O          -0.5842  -24.4081  -52.4736 O.2       14 UNK        -0.5000 
     84 N          -1.9779  -23.1941  -51.1583 N.am      15 UNK        -0.5000 
     85 CA         -3.1967  -23.3682  -51.9468 C.3       15 UNK         0.1400 
     86 CB         -4.2107  -22.2957  -51.5224 C.3       15 UNK        -0.1800 
     87 C          -3.8326  -24.7610  -51.7822 C.2       15 UNK         0.5000 
     88 O          -4.6528  -25.1466  -52.6135 O.2       15 UNK        -0.5000 
     89 N          -3.5019  -25.4583  -50.6836 N.am      16 UNK        -0.5000 
     90 CA         -4.1534  -26.6729  -50.1779 C.3       16 UNK         0.1400 
     91 CB         -3.8715  -27.8753  -51.1017 C.3       16 UNK        -0.1800 
     92 C          -5.6586  -26.4370  -49.9195 C.2       16 UNK         0.5000 
     93 O          -6.4941  -27.2682  -50.2770 O.2       16 UNK        -0.5000 
     94 N          -5.9616  -25.2563  -49.3581 N.am      17 UNK        -0.5000 
     95 CA         -7.2774  -24.6502  -49.1181 C.3       17 UNK         0.1400 
     96 CB         -8.1343  -25.5312  -48.1879 C.3       17 UNK        -0.1800 
     97 C          -8.0594  -24.2341  -50.3867 C.2       17 UNK         0.5000 
     98 O          -9.0830  -23.5610  -50.2557 O.2       17 UNK        -0.5000 
     99 N          -7.5806  -24.5913  -51.5858 N.am      18 UNK        -0.5000 
    100 CA        -8.1818  -24.2456  -52.8720 C.3       18 UNK         0.1400 
    101 CB        -7.9607  -25.4083  -53.8558 C.3       18 UNK        -0.1800 
    102 C         -7.5806  -22.9235  -53.3760 C.2       18 UNK         0.5000 
    103 O         -6.7283  -22.9275  -54.2650 O.2       18 UNK        -0.5000 
    104 N         -8.0137  -21.8095  -52.7680 N.am      19 UNK        -0.5000 
    105 CA        -7.4922  -20.4486  -52.9641 C.3       19 UNK         0.1400 
    106 CB        -8.3073  -19.4741  -52.1019 C.3       19 UNK        -0.1800 
    107 C         -7.4410  -19.9578  -54.4255 C.2       19 UNK         0.5000 
    108 O         -6.5865  -19.1361  -54.7584 O.2       19 UNK        -0.5000 
    109 N         -8.3087  -20.5060  -55.2871 N.am      20 UNK        -0.5000 
    110 CA        -8.3330  -20.2824  -56.7357 C.3       20 UNK         0.1400 
    111 CB        -9.5334  -21.0365  -57.3284 C.3       20 UNK        -0.1800 
    112 C         -7.0315  -20.6792  -57.4695 C.2       20 UNK         0.5000 
    113 O         -6.8063  -20.2082  -58.5849 O.2       20 UNK        -0.5000 
    114 N         -6.1925  -21.5148  -56.8389 N.am      21 UNK        -0.5000 
    115 CA        -4.8737  -21.9138  -57.3311 C.3       21 UNK         0.1400 
    116 CB        -4.3680  -23.0963  -56.4889 C.3       21 UNK        -0.1800 
    117 C         -3.8269  -20.7793  -57.3296 C.2       21 UNK         0.5000 
    118 O         -2.8211  -20.9050  -58.0304 O.2       21 UNK        -0.5000 
    119 N         -4.0513  -19.7127  -56.5503 N.am      22 UNK        -0.5000 
    120 CA        -3.0948  -18.6059  -56.3705 C.3       22 UNK         0.1400 
    121 C         -3.7349  -17.2107  -56.1242 C.2       22 UNK         0.5000 
    122 N         -5.0092  -17.0936  -55.7747 N.am      22 UNK        -0.7600 
    123 O         -3.0615  -16.1966  -56.2877 O.2       22 UNK        -0.5000 
    124 C124       -1.9911  -18.9405  -55.3298 C.3       23 UNK        -0.0398 
    125 S125       -2.6654  -19.4704  -53.7191 S.3       23 UNK        -0.2404 
    126 C126       -1.1607  -20.0509  -52.8718 C.3       23 UNK        -0.0205 
    127 H127        2.6289  -12.9427  -48.4613 H         1 UNK         0.0600 
    128 H128        2.1448  -13.4046  -46.8268 H         1 UNK         0.0600 
    129 H129        1.1852  -13.9255  -48.2158 H         1 UNK         0.0600 
    130 H130        4.5049  -14.0261  -48.8946 H         1 UNK         0.3000 
    131 H131        5.9986  -15.5141  -49.3418 H         1 UNK         0.0600 
    132 H132        5.4290  -17.9845  -49.6614 H         1 UNK         0.0800 
    133 H133        3.7849  -17.6171  -49.2058 H         1 UNK         0.0800 
    134 H134        3.5991  -18.1575  -53.0564 H         1 UNK         0.0800 
    135 H135        3.7527  -18.9982  -51.5354 H         1 UNK         0.0800 
    136 H136        1.5442  -19.7406  -52.9840 H         1 UNK         0.1150 
    137 H137       -1.9844  -17.9015  -51.4032 H         1 UNK         0.1150 
    138 H138        1.8451  -16.2189  -50.5430 H         1 UNK         0.1150 
    139 H139       -0.2626  -14.9166  -50.1982 H         1 UNK         0.0800 
    140 H140       -1.8166  -15.6888  -50.3796 H         1 UNK         0.0800 
    141 H141       -2.5133  -17.6010  -47.3241 H         1 UNK         0.0800 
    142 H142       -2.5886  -17.6509  -49.0622 H         1 UNK         0.0800 
    143 H143       -0.5088  -19.1290  -49.0695 H         1 UNK         0.0600 
    144 H144       -0.3700  -18.5350  -46.3133 H         1 UNK         0.3000 
    145 H145        1.3114  -21.4397  -45.2032 H         1 UNK         0.0600 
    146 H146        3.3041  -19.9700  -44.8066 H         1 UNK         0.0600 
    147 H147        3.2389  -20.5721  -46.4574 H         1 UNK         0.0600 
    148 H148        2.7714  -18.9125  -46.1199 H         1 UNK         0.0600 
    149 H149        1.1851  -18.7919  -44.1340 H         1 UNK         0.3000 
    150 H150       -2.0741  -18.8222  -42.9154 H         1 UNK         0.0600 
    151 H151       -1.1801  -20.4792  -41.2648 H         1 UNK         0.0600 
    152 H152       -1.2036  -18.8530  -40.6077 H         1 UNK         0.0600 
    153 H153        0.3177  -19.5655  -41.1492 H         1 UNK         0.0600 
    154 H154        0.0852  -17.2361  -42.0558 H         1 UNK         0.3000 
    155 H155        1.1687  -15.5353  -43.6818 H         1 UNK         0.0600 
    156 H156        0.3593  -13.4744  -44.8353 H         1 UNK         0.0600 
    157 H157       -1.1701  -14.2780  -45.1980 H         1 UNK         0.0600 
    158 H158        0.3297  -14.8907  -45.8732 H         1 UNK         0.0600 
    159 H159        0.3945  -14.6689  -41.8035 H         1 UNK         0.3000 
    160 H160       -1.2613  -12.6324  -40.9050 H         1 UNK         0.0600 
    161 H161       -3.6690  -14.4169  -40.2767 H         1 UNK         0.0600 
    162 H162       -3.7020  -12.8304  -41.0297 H         1 UNK         0.0600 
    163 H163       -3.1969  -12.9889  -39.3560 H         1 UNK         0.0600 
    164 H164       -0.0923  -13.7548  -39.4307 H         1 UNK         0.3000 
    165 H165       -0.4841  -15.8605  -37.2494 H         1 UNK         0.0600 
    166 H166        0.7514  -17.7220  -39.3431 H         1 UNK         0.0600 
    167 H167        1.0664  -17.8044  -37.6115 H         1 UNK         0.0600 
    168 H168       -0.5469  -18.1214  -38.2248 H         1 UNK         0.0600 
    169 H169        1.8064  -15.4266  -39.1085 H         1 UNK         0.3000 
    170 H170        2.7033  -12.4082  -37.6254 H         1 UNK         0.0600 
    171 H171        3.7807  -13.8355  -35.8784 H         1 UNK         0.0600 
    172 H172        4.2665  -14.9969  -37.1076 H         1 UNK         0.0600 
    173 H173        4.9383  -13.3653  -37.1120 H         1 UNK         0.0600 
    174 H174        4.1237  -14.1286  -39.4111 H         1 UNK         0.3000 
    175 H175        2.2992  -13.4732  -42.3677 H         1 UNK         0.0600 
    176 H176        5.0512  -12.4145  -41.5391 H         1 UNK         0.0600 
    177 H177        4.4740  -12.6402  -43.1909 H         1 UNK         0.0600 
    178 H178        3.7262  -11.4345  -42.1562 H         1 UNK         0.0600 
    179 H179        4.7197  -14.8522  -42.0376 H         1 UNK         0.3000 
    180 H180        4.6265  -17.2893  -40.7403 H         1 UNK         0.0600 
    181 H181        2.3776  -18.5285  -42.4053 H         1 UNK         0.0600 
    182 H182        2.5801  -18.6354  -40.6618 H         1 UNK         0.0600 
    183 H183        3.7332  -19.4226  -41.7241 H         1 UNK         0.0600 
    184 H184        5.8414  -17.3454  -42.5871 H         1 UNK         0.3000 
    185 H185        6.4057  -16.5237  -44.7896 H         1 UNK         0.0600 
    186 H186        7.1006  -18.6723  -45.7814 H         1 UNK         0.0600 
    187 H187        6.4516  -19.0235  -44.1948 H         1 UNK         0.0600 
    188 H188        5.4814  -19.3359  -45.6276 H         1 UNK         0.0600 
    189 H189        4.1238  -16.6707  -46.4921 H         1 UNK         0.3000 
    190 H190       -2.6260  -20.1232  -46.3663 H         1 UNK         0.3000 
    191 H191       -4.5417  -21.5337  -47.9723 H         1 UNK         0.0600 
    192 H192       -5.0749  -20.7035  -45.6988 H         1 UNK         0.0600 
    193 H193       -5.2828  -22.4466  -45.7665 H         1 UNK         0.0600 
    194 H194       -3.8568  -21.7648  -44.9918 H         1 UNK         0.0600 
    195 H195       -1.5406  -22.4831  -46.3190 H         1 UNK         0.3000 
    196 H196       -1.7655  -25.3054  -46.7476 H         1 UNK         0.0600 
    197 H197        0.6136  -25.3364  -46.0575 H         1 UNK         0.0600 
    198 H198       -0.3146  -24.2989  -44.9849 H         1 UNK         0.0600 
    199 H199        0.7210  -23.5904  -46.2232 H         1 UNK         0.0600 
    200 H200       -0.0201  -22.7007  -48.5253 H         1 UNK         0.3000 
    201 H201        1.0621  -24.3371  -50.5761 H         1 UNK         0.0600 
    202 H202        1.9410  -22.0933  -50.0680 H         1 UNK         0.0600 
    203 H203        0.4106  -21.3432  -50.5064 H         1 UNK         0.0600 
    204 H204        1.3968  -22.1247  -51.7387 H         1 UNK         0.0600 
    205 H205       -2.0500  -22.5962  -50.3411 H         1 UNK         0.3000 
    206 H206       -2.9599  -23.2247  -53.0031 H         1 UNK         0.0600 
    207 H207       -3.8173  -21.2907  -51.6652 H         1 UNK         0.0600 
    208 H208       -5.1191  -22.3703  -52.1145 H         1 UNK         0.0600 
    209 H209       -4.4928  -22.3982  -50.4740 H         1 UNK         0.0600 
    210 H210       -2.8258  -25.0423  -50.0567 H         1 UNK         0.3000 
    211 H211       -3.7016  -26.8839  -49.2075 H         1 UNK         0.0600 
    212 H212       -4.3418  -27.7583  -52.0784 H         1 UNK         0.0600 
    213 H213       -4.2516  -28.7993  -50.6650 H         1 UNK         0.0600 
    214 H214       -2.8008  -28.0066  -51.2586 H         1 UNK         0.0600 
    215 H215       -5.1728  -24.6817  -49.0693 H         1 UNK         0.3000 
    216 H216       -7.0699  -23.7219  -48.5837 H         1 UNK         0.0600 
    217 H217       -7.5926  -25.7874  -47.2774 H         1 UNK         0.0600 
    218 H218       -8.4387  -26.4595  -48.6716 H         1 UNK         0.0600 
    219 H219       -9.0442  -25.0105  -47.8872 H         1 UNK         0.0600 
    220 H220       -6.7057  -25.0984  -51.6332 H         1 UNK         0.3000 
    221 H221       -9.2595  -24.1086  -52.7612 H         1 UNK         0.0600 
    222 H222       -6.9014  -25.6139  -54.0128 H         1 UNK         0.0600 
    223 H223       -8.4266  -26.3241  -53.4921 H         1 UNK         0.0600 
    224 H224       -8.3984  -25.1836  -54.8291 H         1 UNK         0.0600 
    225 H225       -8.7005  -21.9176  -52.0333 H         1 UNK         0.3000 
    226 H226       -6.4643  -20.4420  -52.5975 H         1 UNK         0.0600 
    227 H227       -7.9309  -18.4548  -52.1999 H         1 UNK         0.0600 
    228 H228       -9.3589  -19.4657  -52.3912 H         1 UNK         0.0600 
    229 H229       -8.2507  -19.7388  -51.0458 H         1 UNK         0.0600 
    230 H230       -8.9632  -21.1841  -54.9266 H         1 UNK         0.3000 
    231 H231       -8.4822  -19.2136  -56.9011 H         1 UNK         0.0600 
    232 H232       -9.6087  -20.8701  -58.4038 H         1 UNK         0.0600 
    233 H233      -10.4703  -20.7007  -56.8836 H         1 UNK         0.0600 
    234 H234       -9.4499  -22.1121  -57.1676 H         1 UNK         0.0600 
    235 H235       -6.4570  -21.8827  -55.9291 H         1 UNK         0.3000 
    236 H236       -4.9875  -22.2533  -58.3625 H         1 UNK         0.0600 
    237 H237       -4.2211  -22.8113  -55.4460 H         1 UNK         0.0600 
    238 H238       -3.4137  -23.4669  -56.8649 H         1 UNK         0.0600 
    239 H239       -5.0718  -23.9287  -56.5110 H         1 UNK         0.0600 
    240 H240       -4.8944  -19.6734  -55.9923 H         1 UNK         0.3000 
    241 H241       -2.5855  -18.4724  -57.3271 H         1 UNK         0.0600 
    242 H242       -5.3878  -16.1696  -55.6434 H         1 UNK         0.3800 
    243 H243       -5.5796  -17.8966  -55.5184 H         1 UNK         0.3800 
    244 H244       -1.3215  -18.0924  -55.1756 H         1 UNK         0.0800 
    245 H245       -1.3658  -19.7455  -55.7178 H         1 UNK         0.0800 
    246 H246       -0.5761  -20.6746  -53.5496 H         1 UNK         0.0800 
    247 H247       -1.4672  -20.6946  -52.0499 H         1 UNK         0.0800 
@<TRIPOS>BOND
     1    1    2 1    
     2    1  127 1    
     3    1  128 1    
     4    1  129 1    
     5    2    3 2    
     6    2    4 am   BACKBONE|DICT|INTERRES
     7    4    5 1    
     8    4  130 1    
     9    5    6 1    
    10    5   65 1    
    11    5  131 1    
    12    6    7 1    
    13    6  132 1    
    14    6  133 1    
    15    7    8 1    
    16    8    9 1    
    17    8  134 1    
    18    8  135 1    
    19    9   10 ar   
    20    9   14 ar   
    21   10   11 ar   
    22   10  136 1    
    23   11   12 ar   
    24   11  126 1    
    25   12   13 ar   
    26   12  137 1    
    27   13   14 ar   
    28   13   15 1    
    29   14  138 1    
    30   15   16 1    
    31   15  139 1    
    32   15  140 1    
    33   16   17 1    
    34   17   18 1    
    35   17  141 1    
    36   17  142 1    
    37   18   19 1    
    38   18   67 1    
    39   18  143 1    
    40   19   20 am   BACKBONE|DICT|INTERRES
    41   19  144 1    
    42   20   21 2    
    43   20   22 1    
    44   22   23 1    
    45   22   24 1    
    46   22  145 1    
    47   23  146 1    
    48   23  147 1    
    49   23  148 1    
    50   24   25 am   BACKBONE|DICT|INTERRES
    51   24  149 1    
    52   25   26 2    
    53   25   27 1    
    54   27   28 1    
    55   27   29 1    
    56   27  150 1    
    57   28  151 1    
    58   28  152 1    
    59   28  153 1    
    60   29   30 am   BACKBONE|DICT|INTERRES
    61   29  154 1    
    62   30   31 2    
    63   30   32 1    
    64   32   33 1    
    65   32   34 1    
    66   32  155 1    
    67   33  156 1    
    68   33  157 1    
    69   33  158 1    
    70   34   35 am   BACKBONE|DICT|INTERRES
    71   34  159 1    
    72   35   36 2    
    73   35   37 1    
    74   37   38 1    
    75   37   39 1    
    76   37  160 1    
    77   38  161 1    
    78   38  162 1    
    79   38  163 1    
    80   39   40 am   BACKBONE|DICT|INTERRES
    81   39  164 1    
    82   40   41 2    
    83   40   42 1    
    84   42   43 1    
    85   42   44 1    
    86   42  165 1    
    87   43  166 1    
    88   43  167 1    
    89   43  168 1    
    90   44   45 am   BACKBONE|DICT|INTERRES
    91   44  169 1    
    92   45   46 2    
    93   45   47 1    
    94   47   48 1    
    95   47   49 1    
    96   47  170 1    
    97   48  171 1    
    98   48  172 1    
    99   48  173 1    
   100   49   50 am   BACKBONE|DICT|INTERRES
   101   49  174 1    
   102   50   51 2    
   103   50   52 1    
   104   52   53 1    
   105   52   54 1    
   106   52  175 1    
   107   53  176 1    
   108   53  177 1    
   109   53  178 1    
   110   54   55 am   BACKBONE|DICT|INTERRES
   111   54  179 1    
   112   55   56 2    
   113   55   57 1    
   114   57   58 1    
   115   57   59 1    
   116   57  180 1    
   117   58  181 1    
   118   58  182 1    
   119   58  183 1    
   120   59   60 am   BACKBONE|DICT|INTERRES
   121   59  184 1    
   122   60   61 2    
   123   60   62 1    
   124   62   63 1    
   125   62   64 1    
   126   62  185 1    
   127   63  186 1    
   128   63  187 1    
   129   63  188 1    
   130   64   65 am   BACKBONE|DICT|INTERRES
   131   64  189 1    
   132   65   66 2    
   133   67   68 2    
   134   67   69 am   BACKBONE|DICT|INTERRES
   135   69   70 1    
   136   69  190 1    
   137   70   71 1    
   138   70   72 1    
   139   70  191 1    
   140   71  192 1    
   141   71  193 1    
   142   71  194 1    
   143   72   73 2    
   144   72   74 am   BACKBONE|DICT|INTERRES
   145   74   75 1    
   146   74  195 1    
   147   75   76 1    
   148   75   77 1    
   149   75  196 1    
   150   76  197 1    
   151   76  198 1    
   152   76  199 1    
   153   77   78 2    
   154   77   79 am   BACKBONE|DICT|INTERRES
   155   79   80 1    
   156   79  200 1    
   157   80   81 1    
   158   80   82 1    
   159   80  201 1    
   160   81  202 1    
   161   81  203 1    
   162   81  204 1    
   163   82   83 2    
   164   82   84 am   BACKBONE|DICT|INTERRES
   165   84   85 1    
   166   84  205 1    
   167   85   86 1    
   168   85   87 1    
   169   85  206 1    
   170   86  207 1    
   171   86  208 1    
   172   86  209 1    
   173   87   88 2    
   174   87   89 am   BACKBONE|DICT|INTERRES
   175   89   90 1    
   176   89  210 1    
   177   90   91 1    
   178   90   92 1    
   179   90  211 1    
   180   91  212 1    
   181   91  213 1    
   182   91  214 1    
   183   92   93 2    
   184   92   94 am   BACKBONE|DICT|INTERRES
   185   94   95 1    
   186   94  215 1    
   187   95   96 1    
   188   95   97 1    
   189   95  216 1    
   190   96  217 1    
   191   96  218 1    
   192   96  219 1    
   193   97   98 2    
   194   97   99 am   BACKBONE|DICT|INTERRES
   195   99  100 1    
   196   99  220 1    
   197  100  101 1    
   198  100  102 1    
   199  100  221 1    
   200  101  222 1    
   201  101  223 1    
   202  101  224 1    
   203  102  103 2    
   204  102  104 am   BACKBONE|DICT|INTERRES
   205  104  105 1    
   206  104  225 1    
   207  105  106 1    
   208  105  107 1    
   209  105  226 1    
   210  106  227 1    
   211  106  228 1    
   212  106  229 1    
   213  107  108 2    
   214  107  109 am   BACKBONE|DICT|INTERRES
   215  109  110 1    
   216  109  230 1    
   217  110  111 1    
   218  110  112 1    
   219  110  231 1    
   220  111  232 1    
   221  111  233 1    
   222  111  234 1    
   223  112  113 2    
   224  112  114 am   BACKBONE|DICT|INTERRES
   225  114  115 1    
   226  114  235 1    
   227  115  116 1    
   228  115  117 1    
   229  115  236 1    
   230  116  237 1    
   231  116  238 1    
   232  116  239 1    
   233  117  118 2    
   234  117  119 am   BACKBONE|DICT|INTERRES
   235  119  120 1    
   236  119  240 1    
   237  120  121 1    
   238  120  124 1    
   239  120  241 1    
   240  121  122 am   BACKBONE|DICT|INTERRES
   241  121  123 2    
   242  122  242 1    
   243  122  243 1    
   244  124  125 1    
   245  124  244 1    
   246  124  245 1    
   247  125  126 1    
   248  126  246 1    
   249  126  247 1    
@<TRIPOS>SUBSTRUCTURE
     1 UNK         1 GROUP             0       ****    0 ROOT    
