@<TRIPOS>MOLECULE
3R540
247   249    1
SMALL
USER_CHARGES


@<TRIPOS>ATOM
      1 CA          3.4652  -15.0741  -47.4252 C.3       0 UNK        -0.1800 
      2 C           2.7424  -13.9188  -46.7492 C.2       0 UNK         0.5000 
      3 O           3.1931  -13.4281  -45.7140 O.2       0 UNK        -0.5000 
      4 N           1.6335  -13.4572  -47.3421 N.am      1 UNK        -0.5000 
      5 CA          0.7967  -12.3646  -46.8231 C.3       1 UNK         0.1400 
      6 C6         -0.5607  -12.2534  -47.5579 C.3       23 UNK        -0.0398 
      7 S7         -1.5453  -13.7809  -47.3923 S.3       23 UNK        -0.2404 
      8 C8         -1.4336  -14.4698  -49.0701 C.3       23 UNK        -0.0205 
      9 C9         -1.6922  -15.9665  -49.0569 C.ar      23 UNK        -0.0193 
     10 C10        -3.0014  -16.4575  -49.0567 C.ar      23 UNK        -0.1150 
     11 C11        -3.2470  -17.8343  -49.0457 C.ar      23 UNK        -0.0193 
     12 C12        -2.1619  -18.7177  -49.0382 C.ar      23 UNK        -0.1150 
     13 C13        -0.8498  -18.2391  -49.0373 C.ar      23 UNK        -0.0193 
     14 C14        -0.6194  -16.8621  -49.0434 C.ar      23 UNK        -0.1150 
     15 C15         0.3138  -19.2138  -49.0282 C.3       23 UNK        -0.0205 
     16 S16         0.8480  -19.5723  -47.3273 S.3       23 UNK        -0.2404 
     17 C17         1.8151  -21.0980  -47.5863 C.3       23 UNK        -0.0398 
     18 CA          1.1008  -22.4118  -47.1781 C.3       11 UNK         0.1400 
     19 N           0.9197  -22.5582  -45.7289 N.am      11 UNK        -0.5000 
     20 C           0.7319  -23.7498  -45.1399 C.2       10 UNK         0.5000 
     21 O           0.6853  -24.8126  -45.7602 O.2       10 UNK        -0.5000 
     22 CA          0.5251  -23.7675  -43.6148 C.3       10 UNK         0.1400 
     23 CB          1.8745  -23.6951  -42.8851 C.3       10 UNK        -0.1800 
     24 N          -0.3512  -22.7062  -43.1199 N.am      10 UNK        -0.5000 
     25 C          -1.6225  -22.5119  -43.4939 C.2       9 UNK         0.5000 
     26 O          -2.1921  -23.1895  -44.3496 O.2       9 UNK        -0.5000 
     27 CA         -2.3933  -21.3584  -42.8213 C.3       9 UNK         0.1400 
     28 CB         -1.7715  -20.8742  -41.4917 C.3       9 UNK        -0.1800 
     29 N          -2.5905  -20.2330  -43.7388 N.am      9 UNK        -0.5000 
     30 C          -1.6377  -19.5238  -44.3622 C.2       8 UNK         0.5000 
     31 O          -0.4330  -19.7558  -44.2447 O.2       8 UNK        -0.5000 
     32 CA         -2.1031  -18.3831  -45.2964 C.3       8 UNK         0.1400 
     33 CB         -3.6052  -18.0372  -45.1877 C.3       8 UNK        -0.1800 
     34 N          -1.2956  -17.1683  -45.1602 N.am      8 UNK        -0.5000 
     35 C          -1.0779  -16.4657  -44.0401 C.2       7 UNK         0.5000 
     36 O          -1.5409  -16.7546  -42.9339 O.2       7 UNK        -0.5000 
     37 CA         -0.2063  -15.2043  -44.1857 C.3       7 UNK         0.1400 
     38 CB         -0.9554  -13.9647  -43.6679 C.3       7 UNK        -0.1800 
     39 N           1.0654  -15.3321  -43.4761 N.am      7 UNK        -0.5000 
     40 C           2.0396  -16.1922  -43.8094 C.2       6 UNK         0.5000 
     41 O           1.9606  -16.9570  -44.7701 O.2       6 UNK        -0.5000 
     42 CA          3.3267  -16.1889  -42.9587 C.3       6 UNK         0.1400 
     43 CB          4.5891  -16.2572  -43.8372 C.3       6 UNK        -0.1800 
     44 N           3.4253  -15.0042  -42.1063 N.am      6 UNK        -0.5000 
     45 C           3.2064  -14.9742  -40.7859 C.2       5 UNK         0.5000 
     46 O           2.8839  -15.9589  -40.1209 O.2       5 UNK        -0.5000 
     47 CA          3.3713  -13.6095  -40.0876 C.3       5 UNK         0.1400 
     48 CB          4.7567  -13.5070  -39.4319 C.3       5 UNK        -0.1800 
     49 N           3.1919  -12.4687  -40.9883 N.am      5 UNK        -0.5000 
     50 C           2.0363  -12.1018  -41.5527 C.2       4 UNK         0.5000 
     51 O           0.9770  -12.6986  -41.3652 O.2       4 UNK        -0.5000 
     52 CA          2.0664  -10.8951  -42.5106 C.3       4 UNK         0.1400 
     53 CB          2.0123   -9.5652  -41.7364 C.3       4 UNK        -0.1800 
     54 N           3.1728  -10.9113  -43.4771 N.am      4 UNK        -0.5000 
     55 C           4.4943  -10.7917  -43.2749 C.2       3 UNK         0.5000 
     56 O           5.0076  -10.6553  -42.1638 O.2       3 UNK        -0.5000 
     57 CA          5.4040  -10.8660  -44.5168 C.3       3 UNK         0.1400 
     58 CB          6.1972  -12.1830  -44.5214 C.3       3 UNK        -0.1800 
     59 N           4.6486  -10.7613  -45.7679 N.am      3 UNK        -0.5000 
     60 C           4.3524   -9.6064  -46.3831 C.2       2 UNK         0.5000 
     61 O           4.7435   -8.5062  -45.9918 O.2       2 UNK        -0.5000 
     62 CA          3.4567   -9.6843  -47.6375 C.3       2 UNK         0.1400 
     63 CB          4.3170   -9.7275  -48.9095 C.3       2 UNK        -0.1800 
     64 N           2.5541  -10.8377  -47.6342 N.am      2 UNK        -0.5000 
     65 C           1.5260  -11.0045  -46.7896 C.2       1 UNK         0.5000 
     66 O           1.1812  -10.1587  -45.9647 O.2       1 UNK        -0.5000 
     67 C          -0.2161  -22.6490  -47.9466 C.2       11 UNK         0.5000 
     68 O          -0.1816  -23.2139  -49.0385 O.2       11 UNK        -0.5000 
     69 N          -1.3520  -22.2571  -47.3486 N.am      12 UNK        -0.5000 
     70 CA         -2.6907  -22.4967  -47.8868 C.3       12 UNK         0.1400 
     71 CB         -3.7271  -21.6712  -47.1092 C.3       12 UNK        -0.1800 
     72 C          -3.0455  -23.9913  -47.8657 C.2       12 UNK         0.5000 
     73 O          -3.5792  -24.4988  -48.8508 O.2       12 UNK        -0.5000 
     74 N          -2.6955  -24.6751  -46.7671 N.am      13 UNK        -0.5000 
     75 CA         -2.8317  -26.1211  -46.6031 C.3       13 UNK         0.1400 
     76 CB         -2.5031  -26.5095  -45.1537 C.3       13 UNK        -0.1800 
     77 C          -1.9624  -26.9098  -47.5987 C.2       13 UNK         0.5000 
     78 O          -2.4626  -27.8455  -48.2228 O.2       13 UNK        -0.5000 
     79 N          -0.6993  -26.4910  -47.7708 N.am      14 UNK        -0.5000 
     80 CA          0.2436  -27.0637  -48.7375 C.3       14 UNK         0.1400 
     81 CB          1.6364  -26.4547  -48.5185 C.3       14 UNK        -0.1800 
     82 C          -0.2045  -26.8802  -50.2009 C.2       14 UNK         0.5000 
     83 O          -0.0326  -27.7912  -51.0111 O.2       14 UNK        -0.5000 
     84 N          -0.8038  -25.7208  -50.5004 N.am      15 UNK        -0.5000 
     85 CA         -1.4047  -25.3862  -51.7924 C.3       15 UNK         0.1400 
     86 CB         -1.5359  -23.8580  -51.8760 C.3       15 UNK        -0.1800 
     87 C          -2.7789  -26.0464  -52.0315 C.2       15 UNK         0.5000 
     88 O          -3.3184  -25.9193  -53.1331 O.2       15 UNK        -0.5000 
     89 N          -3.3435  -26.6848  -50.9933 N.am      16 UNK        -0.5000 
     90 CA         -4.6920  -27.2592  -50.9218 C.3       16 UNK         0.1400 
     91 CB         -4.7872  -28.5188  -51.8066 C.3       16 UNK        -0.1800 
     92 C          -5.7895  -26.2191  -51.2349 C.2       16 UNK         0.5000 
     93 O          -6.7812  -26.5424  -51.8918 O.2       16 UNK        -0.5000 
     94 N          -5.5486  -24.9694  -50.8087 N.am      17 UNK        -0.5000 
     95 CA         -6.2549  -23.7190  -51.1085 C.3       17 UNK         0.1400 
     96 CB         -7.7033  -23.7525  -50.5851 C.3       17 UNK        -0.1800 
     97 C          -6.2100  -23.3019  -52.5932 C.2       17 UNK         0.5000 
     98 O          -5.9329  -22.1389  -52.8869 O.2       17 UNK        -0.5000 
     99 N          -6.4899  -24.2491  -53.4947 N.am      18 UNK        -0.5000 
    100 CA        -6.6723  -24.0675  -54.9314 C.3       18 UNK         0.1400 
    101 CB        -7.0898  -25.4074  -55.5558 C.3       18 UNK        -0.1800 
    102 C         -5.4539  -23.4869  -55.6663 C.2       18 UNK         0.5000 
    103 O         -5.6286  -22.5768  -56.4770 O.2       18 UNK        -0.5000 
    104 N         -4.2463  -23.9944  -55.3745 N.am      19 UNK        -0.5000 
    105 CA        -3.0189  -23.5824  -56.0689 C.3       19 UNK         0.1400 
    106 CB        -1.9123  -24.6230  -55.8397 C.3       19 UNK        -0.1800 
    107 C         -2.5401  -22.1680  -55.6850 C.2       19 UNK         0.5000 
    108 O         -1.8237  -21.5402  -56.4652 O.2       19 UNK        -0.5000 
    109 N         -2.9594  -21.6888  -54.5074 N.am      20 UNK        -0.5000 
    110 CA        -2.7056  -20.3365  -54.0081 C.3       20 UNK         0.1400 
    111 CB        -2.3674  -20.4274  -52.5112 C.3       20 UNK        -0.1800 
    112 C         -3.8956  -19.3873  -54.2648 C.2       20 UNK         0.5000 
    113 O         -3.7744  -18.1905  -54.0014 O.2       20 UNK        -0.5000 
    114 N         -5.0104  -19.9302  -54.7811 N.am      21 UNK        -0.5000 
    115 CA        -6.2886  -19.2707  -55.0659 C.3       21 UNK         0.1400 
    116 CB        -6.1363  -18.2646  -56.2257 C.3       21 UNK        -0.1800 
    117 C         -6.9478  -18.6600  -53.8099 C.2       21 UNK         0.5000 
    118 O         -7.5168  -17.5680  -53.8766 O.2       21 UNK        -0.5000 
    119 N         -6.8465  -19.3729  -52.6820 N.am      22 UNK        -0.5000 
    120 CA        -7.4025  -18.9719  -51.3818 C.3       22 UNK         0.1400 
    121 C         -8.9530  -19.0580  -51.3489 C.2       22 UNK         0.5000 
    122 N         -9.6182  -18.1320  -50.6716 N.am      22 UNK        -0.7600 
    123 O         -9.5565  -19.9803  -51.8932 O.2       22 UNK        -0.5000 
    124 C124       -6.7937  -19.7871  -50.2129 C.3       23 UNK        -0.0398 
    125 S125       -4.9735  -19.7174  -50.1780 S.3       23 UNK        -0.2404 
    126 C126       -4.6832  -18.3487  -49.0125 C.3       23 UNK        -0.0205 
    127 H127        4.4930  -14.7911  -47.6515 H         1 UNK         0.0600 
    128 H128        3.4880  -15.9415  -46.7666 H         1 UNK         0.0600 
    129 H129        2.9786  -15.3683  -48.3552 H         1 UNK         0.0600 
    130 H130        1.3085  -13.8942  -48.1912 H         1 UNK         0.3000 
    131 H131        0.5850  -12.6056  -45.7816 H         1 UNK         0.0600 
    132 H132       -0.4166  -12.0079  -48.6114 H         1 UNK         0.0800 
    133 H133       -1.1549  -11.4403  -47.1365 H         1 UNK         0.0800 
    134 H134       -0.4498  -14.2691  -49.4959 H         1 UNK         0.0800 
    135 H135       -2.1562  -13.9688  -49.7161 H         1 UNK         0.0800 
    136 H136       -3.8287  -15.7618  -49.0562 H         1 UNK         0.1150 
    137 H137       -2.3357  -19.7830  -49.0311 H         1 UNK         0.1150 
    138 H138        0.3955  -16.4903  -49.0365 H         1 UNK         0.1150 
    139 H139        0.0207  -20.1359  -49.5326 H         1 UNK         0.0800 
    140 H140        1.1534  -18.8068  -49.5937 H         1 UNK         0.0800 
    141 H141        2.1230  -21.1544  -48.6318 H         1 UNK         0.0800 
    142 H142        2.7427  -21.0015  -47.0207 H         1 UNK         0.0800 
    143 H143        1.7736  -23.2142  -47.4891 H         1 UNK         0.0600 
    144 H144        0.9013  -21.7116  -45.1745 H         1 UNK         0.3000 
    145 H145        0.0550  -24.7201  -43.3620 H         1 UNK         0.0600 
    146 H146        1.7483  -23.8150  -41.8089 H         1 UNK         0.0600 
    147 H147        2.5442  -24.4875  -43.2225 H         1 UNK         0.0600 
    148 H148        2.3771  -22.7431  -43.0607 H         1 UNK         0.0600 
    149 H149        0.0468  -22.0699  -42.4448 H         1 UNK         0.3000 
    150 H150       -3.3854  -21.7509  -42.5936 H         1 UNK         0.0600 
    151 H151       -1.6492  -21.7009  -40.7907 H         1 UNK         0.0600 
    152 H152       -2.4161  -20.1392  -41.0097 H         1 UNK         0.0600 
    153 H153       -0.7957  -20.4080  -41.6315 H         1 UNK         0.0600 
    154 H154       -3.5532  -19.9818  -43.9121 H         1 UNK         0.3000 
    155 H155       -1.9254  -18.7474  -46.3064 H         1 UNK         0.0600 
    156 H156       -3.8686  -17.2391  -45.8824 H         1 UNK         0.0600 
    157 H157       -3.8748  -17.7034  -44.1850 H         1 UNK         0.0600 
    158 H158       -4.2339  -18.8919  -45.4385 H         1 UNK         0.0600 
    159 H159       -0.8135  -16.8834  -46.0011 H         1 UNK         0.3000 
    160 H160        0.0207  -15.0491  -45.2417 H         1 UNK         0.0600 
    161 H161       -1.2143  -14.0624  -42.6128 H         1 UNK         0.0600 
    162 H162       -1.8833  -13.8123  -44.2202 H         1 UNK         0.0600 
    163 H163       -0.3597  -13.0598  -43.7750 H         1 UNK         0.0600 
    164 H164        1.1868  -14.7506  -42.6586 H         1 UNK         0.3000 
    165 H165        3.2986  -17.0929  -42.3474 H         1 UNK         0.0600 
    166 H166        4.6628  -15.3977  -44.5032 H         1 UNK         0.0600 
    167 H167        5.4917  -16.2848  -43.2267 H         1 UNK         0.0600 
    168 H168        4.5925  -17.1547  -44.4569 H         1 UNK         0.0600 
    169 H169        3.6601  -14.1393  -42.5718 H         1 UNK         0.3000 
    170 H170        2.6137  -13.5466  -39.3036 H         1 UNK         0.0600 
    171 H171        4.9213  -14.3281  -38.7329 H         1 UNK         0.0600 
    172 H172        5.5555  -13.5407  -40.1740 H         1 UNK         0.0600 
    173 H173        4.8594  -12.5780  -38.8708 H         1 UNK         0.0600 
    174 H174        4.0138  -11.9094  -41.2037 H         1 UNK         0.3000 
    175 H175        1.1578  -10.9554  -43.1120 H         1 UNK         0.0600 
    176 H176        2.8806   -9.4302  -41.0911 H         1 UNK         0.0600 
    177 H177        1.9650   -8.7159  -42.4180 H         1 UNK         0.0600 
    178 H178        1.1265   -9.5223  -41.1014 H         1 UNK         0.0600 
    179 H179        2.8824  -11.0405  -44.4361 H         1 UNK         0.3000 
    180 H180        6.1189  -10.0433  -44.4499 H         1 UNK         0.0600 
    181 H181        5.5406  -13.0526  -44.5403 H         1 UNK         0.0600 
    182 H182        6.8218  -12.2660  -43.6310 H         1 UNK         0.0600 
    183 H183        6.8576  -12.2428  -45.3866 H         1 UNK         0.0600 
    184 H184        4.2616  -11.6271  -46.1246 H         1 UNK         0.3000 
    185 H185        2.8490   -8.7774  -47.6657 H         1 UNK         0.0600 
    186 H186        4.9845   -8.8661  -48.9590 H         1 UNK         0.0600 
    187 H187        4.9360  -10.6249  -48.9469 H         1 UNK         0.0600 
    188 H188        3.6973   -9.7083  -49.8062 H         1 UNK         0.0600 
    189 H189        2.7733  -11.5868  -48.2746 H         1 UNK         0.3000 
    190 H190       -1.2922  -21.8508  -46.4269 H         1 UNK         0.3000 
    191 H191       -2.7039  -22.1651  -48.9272 H         1 UNK         0.0600 
    192 H192       -4.7175  -21.7784  -47.5536 H         1 UNK         0.0600 
    193 H193       -3.4807  -20.6111  -47.1231 H         1 UNK         0.0600 
    194 H194       -3.8013  -21.9826  -46.0676 H         1 UNK         0.0600 
    195 H195       -2.3156  -24.1618  -45.9760 H         1 UNK         0.3000 
    196 H196       -3.8751  -26.3795  -46.7952 H         1 UNK         0.0600 
    197 H197       -2.6248  -27.5824  -44.9998 H         1 UNK         0.0600 
    198 H198       -3.1646  -26.0022  -44.4512 H         1 UNK         0.0600 
    199 H199       -1.4773  -26.2535  -44.8887 H         1 UNK         0.0600 
    200 H200       -0.3457  -25.7447  -47.1795 H         1 UNK         0.3000 
    201 H201        0.3073  -28.1363  -48.5431 H         1 UNK         0.0600 
    202 H202        1.9929  -26.6389  -47.5049 H         1 UNK         0.0600 
    203 H203        1.6337  -25.3771  -48.6824 H         1 UNK         0.0600 
    204 H204        2.3651  -26.8895  -49.2037 H         1 UNK         0.0600 
    205 H205       -0.8399  -24.9951  -49.7918 H         1 UNK         0.3000 
    206 H206       -0.7374  -25.7207  -52.5890 H         1 UNK         0.0600 
    207 H207       -0.5623  -23.3732  -51.8042 H         1 UNK         0.0600 
    208 H208       -1.9802  -23.5506  -52.8195 H         1 UNK         0.0600 
    209 H209       -2.1668  -23.4641  -51.0788 H         1 UNK         0.0600 
    210 H210       -2.8227  -26.7137  -50.1261 H         1 UNK         0.3000 
    211 H211       -4.8437  -27.5642  -49.8856 H         1 UNK         0.0600 
    212 H212       -4.6961  -28.2769  -52.8660 H         1 UNK         0.0600 
    213 H213       -5.7434  -29.0242  -51.6668 H         1 UNK         0.0600 
    214 H214       -4.0034  -29.2340  -51.5572 H         1 UNK         0.0600 
    215 H215       -4.7134  -24.8435  -50.2383 H         1 UNK         0.3000 
    216 H216       -5.7219  -22.9445  -50.5546 H         1 UNK         0.0600 
    217 H217       -8.2907  -24.5425  -51.0529 H         1 UNK         0.0600 
    218 H218       -8.2178  -22.8128  -50.7878 H         1 UNK         0.0600 
    219 H219       -7.7265  -23.9117  -49.5071 H         1 UNK         0.0600 
    220 H220       -6.6804  -25.1786  -53.1282 H         1 UNK         0.3000 
    221 H221       -7.4962  -23.3630  -55.0624 H         1 UNK         0.0600 
    222 H222       -6.3288  -26.1745  -55.4054 H         1 UNK         0.0600 
    223 H223       -8.0210  -25.7713  -55.1211 H         1 UNK         0.0600 
    224 H224       -7.2502  -25.3074  -56.6301 H         1 UNK         0.0600 
    225 H225       -4.1588  -24.7227  -54.6722 H         1 UNK         0.3000 
    226 H226       -3.2317  -23.5665  -57.1401 H         1 UNK         0.0600 
    227 H227       -2.2420  -25.6210  -56.1287 H         1 UNK         0.0600 
    228 H228       -1.0294  -24.3875  -56.4351 H         1 UNK         0.0600 
    229 H229       -1.5981  -24.6632  -54.7987 H         1 UNK         0.0600 
    230 H230       -3.5681  -22.2670  -53.9451 H         1 UNK         0.3000 
    231 H231       -1.8431  -19.9017  -54.5172 H         1 UNK         0.0600 
    232 H232       -3.1191  -20.9981  -51.9667 H         1 UNK         0.0600 
    233 H233       -1.4056  -20.9162  -52.3571 H         1 UNK         0.0600 
    234 H234       -2.3027  -19.4394  -52.0531 H         1 UNK         0.0600 
    235 H235       -5.0002  -20.9246  -54.9625 H         1 UNK         0.3000 
    236 H236       -6.9628  -20.0591  -55.4036 H         1 UNK         0.0600 
    237 H237       -5.6883  -18.7372  -57.0998 H         1 UNK         0.0600 
    238 H238       -7.1063  -17.8717  -56.5323 H         1 UNK         0.0600 
    239 H239       -5.5129  -17.4149  -55.9464 H         1 UNK         0.0600 
    240 H240       -6.3900  -20.2801  -52.7162 H         1 UNK         0.3000 
    241 H241       -7.1259  -17.9267  -51.2288 H         1 UNK         0.0600 
    242 H242       -9.1469  -17.3673  -50.2132 H         1 UNK         0.3800 
    243 H243      -10.6243  -18.1857  -50.6302 H         1 UNK         0.3800 
    244 H244       -7.1816  -19.4387  -49.2541 H         1 UNK         0.0800 
    245 H245       -7.0831  -20.8341  -50.2920 H         1 UNK         0.0800 
    246 H246       -4.9212  -18.6802  -48.0016 H         1 UNK         0.0800 
    247 H247       -5.3750  -17.5386  -49.2482 H         1 UNK         0.0800 
@<TRIPOS>BOND
     1    1    2 1    
     2    1  127 1    
     3    1  128 1    
     4    1  129 1    
     5    2    3 2    
     6    2    4 am   BACKBONE|DICT|INTERRES
     7    4    5 1    
     8    4  130 1    
     9    5    6 1    
    10    5   65 1    
    11    5  131 1    
    12    6    7 1    
    13    6  132 1    
    14    6  133 1    
    15    7    8 1    
    16    8    9 1    
    17    8  134 1    
    18    8  135 1    
    19    9   10 ar   
    20    9   14 ar   
    21   10   11 ar   
    22   10  136 1    
    23   11   12 ar   
    24   11  126 1    
    25   12   13 ar   
    26   12  137 1    
    27   13   14 ar   
    28   13   15 1    
    29   14  138 1    
    30   15   16 1    
    31   15  139 1    
    32   15  140 1    
    33   16   17 1    
    34   17   18 1    
    35   17  141 1    
    36   17  142 1    
    37   18   19 1    
    38   18   67 1    
    39   18  143 1    
    40   19   20 am   BACKBONE|DICT|INTERRES
    41   19  144 1    
    42   20   21 2    
    43   20   22 1    
    44   22   23 1    
    45   22   24 1    
    46   22  145 1    
    47   23  146 1    
    48   23  147 1    
    49   23  148 1    
    50   24   25 am   BACKBONE|DICT|INTERRES
    51   24  149 1    
    52   25   26 2    
    53   25   27 1    
    54   27   28 1    
    55   27   29 1    
    56   27  150 1    
    57   28  151 1    
    58   28  152 1    
    59   28  153 1    
    60   29   30 am   BACKBONE|DICT|INTERRES
    61   29  154 1    
    62   30   31 2    
    63   30   32 1    
    64   32   33 1    
    65   32   34 1    
    66   32  155 1    
    67   33  156 1    
    68   33  157 1    
    69   33  158 1    
    70   34   35 am   BACKBONE|DICT|INTERRES
    71   34  159 1    
    72   35   36 2    
    73   35   37 1    
    74   37   38 1    
    75   37   39 1    
    76   37  160 1    
    77   38  161 1    
    78   38  162 1    
    79   38  163 1    
    80   39   40 am   BACKBONE|DICT|INTERRES
    81   39  164 1    
    82   40   41 2    
    83   40   42 1    
    84   42   43 1    
    85   42   44 1    
    86   42  165 1    
    87   43  166 1    
    88   43  167 1    
    89   43  168 1    
    90   44   45 am   BACKBONE|DICT|INTERRES
    91   44  169 1    
    92   45   46 2    
    93   45   47 1    
    94   47   48 1    
    95   47   49 1    
    96   47  170 1    
    97   48  171 1    
    98   48  172 1    
    99   48  173 1    
   100   49   50 am   BACKBONE|DICT|INTERRES
   101   49  174 1    
   102   50   51 2    
   103   50   52 1    
   104   52   53 1    
   105   52   54 1    
   106   52  175 1    
   107   53  176 1    
   108   53  177 1    
   109   53  178 1    
   110   54   55 am   BACKBONE|DICT|INTERRES
   111   54  179 1    
   112   55   56 2    
   113   55   57 1    
   114   57   58 1    
   115   57   59 1    
   116   57  180 1    
   117   58  181 1    
   118   58  182 1    
   119   58  183 1    
   120   59   60 am   BACKBONE|DICT|INTERRES
   121   59  184 1    
   122   60   61 2    
   123   60   62 1    
   124   62   63 1    
   125   62   64 1    
   126   62  185 1    
   127   63  186 1    
   128   63  187 1    
   129   63  188 1    
   130   64   65 am   BACKBONE|DICT|INTERRES
   131   64  189 1    
   132   65   66 2    
   133   67   68 2    
   134   67   69 am   BACKBONE|DICT|INTERRES
   135   69   70 1    
   136   69  190 1    
   137   70   71 1    
   138   70   72 1    
   139   70  191 1    
   140   71  192 1    
   141   71  193 1    
   142   71  194 1    
   143   72   73 2    
   144   72   74 am   BACKBONE|DICT|INTERRES
   145   74   75 1    
   146   74  195 1    
   147   75   76 1    
   148   75   77 1    
   149   75  196 1    
   150   76  197 1    
   151   76  198 1    
   152   76  199 1    
   153   77   78 2    
   154   77   79 am   BACKBONE|DICT|INTERRES
   155   79   80 1    
   156   79  200 1    
   157   80   81 1    
   158   80   82 1    
   159   80  201 1    
   160   81  202 1    
   161   81  203 1    
   162   81  204 1    
   163   82   83 2    
   164   82   84 am   BACKBONE|DICT|INTERRES
   165   84   85 1    
   166   84  205 1    
   167   85   86 1    
   168   85   87 1    
   169   85  206 1    
   170   86  207 1    
   171   86  208 1    
   172   86  209 1    
   173   87   88 2    
   174   87   89 am   BACKBONE|DICT|INTERRES
   175   89   90 1    
   176   89  210 1    
   177   90   91 1    
   178   90   92 1    
   179   90  211 1    
   180   91  212 1    
   181   91  213 1    
   182   91  214 1    
   183   92   93 2    
   184   92   94 am   BACKBONE|DICT|INTERRES
   185   94   95 1    
   186   94  215 1    
   187   95   96 1    
   188   95   97 1    
   189   95  216 1    
   190   96  217 1    
   191   96  218 1    
   192   96  219 1    
   193   97   98 2    
   194   97   99 am   BACKBONE|DICT|INTERRES
   195   99  100 1    
   196   99  220 1    
   197  100  101 1    
   198  100  102 1    
   199  100  221 1    
   200  101  222 1    
   201  101  223 1    
   202  101  224 1    
   203  102  103 2    
   204  102  104 am   BACKBONE|DICT|INTERRES
   205  104  105 1    
   206  104  225 1    
   207  105  106 1    
   208  105  107 1    
   209  105  226 1    
   210  106  227 1    
   211  106  228 1    
   212  106  229 1    
   213  107  108 2    
   214  107  109 am   BACKBONE|DICT|INTERRES
   215  109  110 1    
   216  109  230 1    
   217  110  111 1    
   218  110  112 1    
   219  110  231 1    
   220  111  232 1    
   221  111  233 1    
   222  111  234 1    
   223  112  113 2    
   224  112  114 am   BACKBONE|DICT|INTERRES
   225  114  115 1    
   226  114  235 1    
   227  115  116 1    
   228  115  117 1    
   229  115  236 1    
   230  116  237 1    
   231  116  238 1    
   232  116  239 1    
   233  117  118 2    
   234  117  119 am   BACKBONE|DICT|INTERRES
   235  119  120 1    
   236  119  240 1    
   237  120  121 1    
   238  120  124 1    
   239  120  241 1    
   240  121  122 am   BACKBONE|DICT|INTERRES
   241  121  123 2    
   242  122  242 1    
   243  122  243 1    
   244  124  125 1    
   245  124  244 1    
   246  124  245 1    
   247  125  126 1    
   248  126  246 1    
   249  126  247 1    
@<TRIPOS>SUBSTRUCTURE
     1 UNK         1 GROUP             0       ****    0 ROOT    
