@<TRIPOS>MOLECULE
3R540
247   249    1
SMALL
USER_CHARGES


@<TRIPOS>ATOM
      1 CA         -2.2347  -13.2064  -47.8303 C.3       0 UNK        -0.1800 
      2 C          -0.7267  -13.0558  -47.9562 C.2       0 UNK         0.5000 
      3 O          -0.2472  -11.9773  -48.3046 O.2       0 UNK        -0.5000 
      4 N           0.0235  -14.1259  -47.6613 N.am      1 UNK        -0.5000 
      5 CA          1.4895  -14.2026  -47.7649 C.3       1 UNK         0.1400 
      6 C6          2.0325  -15.6233  -47.4727 C.3       23 UNK        -0.0398 
      7 S7          1.2112  -16.9322  -48.4415 S.3       23 UNK        -0.2404 
      8 C8          2.3867  -17.1813  -49.8092 C.3       23 UNK        -0.0205 
      9 C9          2.0768  -18.4411  -50.6098 C.ar      23 UNK        -0.0193 
     10 C10         0.8545  -18.5752  -51.2767 C.ar      23 UNK        -0.1150 
     11 C11         0.5652  -19.7226  -52.0227 C.ar      23 UNK        -0.0193 
     12 C12         1.5279  -20.7349  -52.1087 C.ar      23 UNK        -0.1150 
     13 C13         2.7701  -20.6004  -51.4820 C.ar      23 UNK        -0.0193 
     14 C14         3.0301  -19.4591  -50.7174 C.ar      23 UNK        -0.1150 
     15 C15         3.8596  -21.6449  -51.7024 C.3       23 UNK        -0.0205 
     16 S16         3.4004  -23.3158  -51.1412 S.3       23 UNK        -0.2404 
     17 C17         3.5576  -23.1501  -49.3323 C.3       23 UNK        -0.0398 
     18 CA          2.4388  -23.8918  -48.5621 C.3       11 UNK         0.1400 
     19 N           2.7895  -24.0586  -47.1483 N.am      11 UNK        -0.5000 
     20 C           2.0959  -24.7867  -46.2610 C.2       10 UNK         0.5000 
     21 O           1.0919  -25.4401  -46.5424 O.2       10 UNK        -0.5000 
     22 CA          2.5833  -24.7352  -44.8012 C.3       10 UNK         0.1400 
     23 CB          3.6629  -25.7992  -44.5544 C.3       10 UNK        -0.1800 
     24 N           3.0974  -23.4186  -44.4103 N.am      10 UNK        -0.5000 
     25 C           2.3562  -22.3045  -44.3556 C.2       9 UNK         0.5000 
     26 O           1.1633  -22.2621  -44.6673 O.2       9 UNK        -0.5000 
     27 CA          3.0786  -21.0162  -43.9291 C.3       9 UNK         0.1400 
     28 CB          3.3572  -20.1258  -45.1506 C.3       9 UNK        -0.1800 
     29 N           2.2554  -20.2796  -42.9761 N.am      9 UNK        -0.5000 
     30 C           2.2017  -20.5374  -41.6606 C.2       8 UNK         0.5000 
     31 O           2.9524  -21.3296  -41.0894 O.2       8 UNK        -0.5000 
     32 CA          1.1116  -19.8076  -40.8459 C.3       8 UNK         0.1400 
     33 CB          1.6553  -18.4916  -40.2692 C.3       8 UNK        -0.1800 
     34 N          -0.0762  -19.5208  -41.6492 N.am      8 UNK        -0.5000 
     35 C          -0.8957  -20.4534  -42.1504 C.2       7 UNK         0.5000 
     36 O          -0.8816  -21.6271  -41.7790 O.2       7 UNK        -0.5000 
     37 CA         -1.8771  -20.0256  -43.2658 C.3       7 UNK         0.1400 
     38 CB         -3.3266  -20.3642  -42.8812 C.3       7 UNK        -0.1800 
     39 N          -1.8232  -18.6173  -43.6899 N.am      7 UNK        -0.5000 
     40 C          -0.7792  -17.9854  -44.2496 C.2       6 UNK         0.5000 
     41 O           0.3526  -18.4593  -44.3272 O.2       6 UNK        -0.5000 
     42 CA         -1.0414  -16.5724  -44.7772 C.3       6 UNK         0.1400 
     43 CB         -1.9887  -16.5995  -45.9880 C.3       6 UNK        -0.1800 
     44 N          -1.5847  -15.7258  -43.7191 N.am      6 UNK        -0.5000 
     45 C          -1.4186  -14.4008  -43.6581 C.2       5 UNK         0.5000 
     46 O          -0.8187  -13.7412  -44.5135 O.2       5 UNK        -0.5000 
     47 CA         -2.0057  -13.7039  -42.4230 C.3       5 UNK         0.1400 
     48 CB         -1.2156  -14.0623  -41.1503 C.3       5 UNK        -0.1800 
     49 N          -1.9723  -12.2611  -42.6280 N.am      5 UNK        -0.5000 
     50 C          -2.7921  -11.3675  -42.0639 C.2       4 UNK         0.5000 
     51 O          -3.6963  -11.6723  -41.2848 O.2       4 UNK        -0.5000 
     52 CA         -2.5638   -9.8820  -42.4085 C.3       4 UNK         0.1400 
     53 CB         -1.9761   -9.1361  -41.2000 C.3       4 UNK        -0.1800 
     54 N          -1.6677   -9.6900  -43.5490 N.am      4 UNK        -0.5000 
     55 C          -2.0210   -9.7550  -44.8366 C.2       3 UNK         0.5000 
     56 O          -3.1725   -9.9639  -45.2190 O.2       3 UNK        -0.5000 
     57 CA         -0.8941   -9.5770  -45.8717 C.3       3 UNK         0.1400 
     58 CB         -0.3940   -8.1205  -45.9242 C.3       3 UNK        -0.1800 
     59 N           0.2133  -10.5278  -45.7082 N.am      3 UNK        -0.5000 
     60 C           1.1017  -10.6441  -44.7077 C.2       2 UNK         0.5000 
     61 O           1.1361   -9.8849  -43.7379 O.2       2 UNK        -0.5000 
     62 CA          2.0941  -11.8228  -44.7819 C.3       2 UNK         0.1400 
     63 CB          2.2962  -12.4801  -43.4049 C.3       2 UNK        -0.1800 
     64 N           1.6281  -12.8441  -45.7204 N.am      2 UNK        -0.5000 
     65 C           2.2222  -13.1740  -46.8743 C.2       1 UNK         0.5000 
     66 O           3.2904  -12.6955  -47.2575 O.2       1 UNK        -0.5000 
     67 C           1.0740  -23.1931  -48.7269 C.2       11 UNK         0.5000 
     68 O           0.2380  -23.6519  -49.5051 O.2       11 UNK        -0.5000 
     69 N           0.8601  -22.1272  -47.9441 N.am      12 UNK        -0.5000 
     70 CA         -0.3912  -21.3810  -47.9013 C.3       12 UNK         0.1400 
     71 CB         -0.1980  -20.1105  -47.0755 C.3       12 UNK        -0.1800 
     72 C          -1.5361  -22.2158  -47.3177 C.2       12 UNK         0.5000 
     73 O          -2.6238  -22.2140  -47.8895 O.2       12 UNK        -0.5000 
     74 N          -1.2698  -22.9261  -46.2124 N.am      13 UNK        -0.5000 
     75 CA         -2.2200  -23.8199  -45.5486 C.3       13 UNK         0.1400 
     76 CB         -1.5937  -24.3736  -44.2613 C.3       13 UNK        -0.1800 
     77 C          -2.7009  -24.9628  -46.4619 C.2       13 UNK         0.5000 
     78 O          -3.9041  -25.2171  -46.5305 O.2       13 UNK        -0.5000 
     79 N          -1.7618  -25.5880  -47.1876 N.am      14 UNK        -0.5000 
     80 CA         -2.0319  -26.6149  -48.1972 C.3       14 UNK         0.1400 
     81 CB         -0.7036  -27.2223  -48.6723 C.3       14 UNK        -0.1800 
     82 C          -2.8425  -26.0842  -49.3956 C.2       14 UNK         0.5000 
     83 O          -3.6717  -26.8130  -49.9402 O.2       14 UNK        -0.5000 
     84 N          -2.6204  -24.8141  -49.7537 N.am      15 UNK        -0.5000 
     85 CA         -3.3280  -24.0828  -50.8030 C.3       15 UNK         0.1400 
     86 CB         -2.3387  -23.1262  -51.4867 C.3       15 UNK        -0.1800 
     87 C          -4.5761  -23.3413  -50.2766 C.2       15 UNK         0.5000 
     88 O          -4.9379  -22.3059  -50.8344 O.2       15 UNK        -0.5000 
     89 N          -5.2148  -23.8727  -49.2231 N.am      16 UNK        -0.5000 
     90 CA         -6.4823  -23.4223  -48.6351 C.3       16 UNK         0.1400 
     91 CB         -7.6461  -23.6753  -49.6168 C.3       16 UNK        -0.1800 
     92 C          -6.4420  -21.9712  -48.1086 C.2       16 UNK         0.5000 
     93 O          -7.3460  -21.1828  -48.3901 O.2       16 UNK        -0.5000 
     94 N          -5.3838  -21.6601  -47.3477 N.am      17 UNK        -0.5000 
     95 CA         -5.0499  -20.3524  -46.7716 C.3       17 UNK         0.1400 
     96 CB         -6.1304  -19.8708  -45.7805 C.3       17 UNK        -0.1800 
     97 C          -4.6987  -19.3186  -47.8600 C.2       17 UNK         0.5000 
     98 O          -5.1994  -18.1933  -47.8396 O.2       17 UNK        -0.5000 
     99 N          -3.8254  -19.7447  -48.7831 N.am      18 UNK        -0.5000 
    100 CA        -3.3088  -19.0054  -49.9370 C.3       18 UNK         0.1400 
    101 CB        -2.3974  -17.8428  -49.4948 C.3       18 UNK        -0.1800 
    102 C         -4.4117  -18.5676  -50.9201 C.2       18 UNK         0.5000 
    103 O         -4.4765  -17.4001  -51.3120 O.2       18 UNK        -0.5000 
    104 N         -5.2522  -19.5287  -51.3175 N.am      19 UNK        -0.5000 
    105 CA        -6.1960  -19.3930  -52.4229 C.3       19 UNK         0.1400 
    106 CB        -7.2940  -20.4600  -52.2613 C.3       19 UNK        -0.1800 
    107 C         -5.4727  -19.5336  -53.7794 C.2       19 UNK         0.5000 
    108 O         -4.2608  -19.7614  -53.8292 O.2       19 UNK        -0.5000 
    109 N         -6.2439  -19.4469  -54.8715 N.am      20 UNK        -0.5000 
    110 CA        -5.7802  -19.5930  -56.2581 C.3       20 UNK         0.1400 
    111 CB        -6.9383  -19.2320  -57.2019 C.3       20 UNK        -0.1800 
    112 C         -5.2066  -20.9849  -56.6119 C.2       20 UNK         0.5000 
    113 O         -4.6319  -21.1431  -57.6898 O.2       20 UNK        -0.5000 
    114 N         -5.3524  -21.9592  -55.7023 N.am      21 UNK        -0.5000 
    115 CA        -4.8581  -23.3342  -55.7885 C.3       21 UNK         0.1400 
    116 CB        -5.2359  -24.0688  -54.4919 C.3       21 UNK        -0.1800 
    117 C         -3.3444  -23.4669  -56.0568 C.2       21 UNK         0.5000 
    118 O         -2.9359  -24.4575  -56.6644 O.2       21 UNK        -0.5000 
    119 N         -2.5458  -22.4787  -55.6271 N.am      22 UNK        -0.5000 
    120 CA        -1.1106  -22.3886  -55.9465 C.3       22 UNK         0.1400 
    121 C         -0.7850  -21.8166  -57.3602 C.2       22 UNK         0.5000 
    122 N         -1.7553  -21.3736  -58.1518 N.am      22 UNK        -0.7600 
    123 O          0.3762  -21.7950  -57.7597 O.2       22 UNK        -0.5000 
    124 C124       -0.2952  -21.7049  -54.8196 C.3       23 UNK        -0.0398 
    125 S125       -0.6902  -19.9424  -54.5289 S.3       23 UNK        -0.2404 
    126 C126       -0.7918  -19.8626  -52.7098 C.3       23 UNK        -0.0205 
    127 H127       -2.5374  -13.1062  -46.7877 H         1 UNK         0.0600 
    128 H128       -2.5643  -14.1767  -48.2022 H         1 UNK         0.0600 
    129 H129       -2.7457  -12.4361  -48.4081 H         1 UNK         0.0600 
    130 H130       -0.4309  -14.9840  -47.3883 H         1 UNK         0.3000 
    131 H131        1.7406  -13.9591  -48.7994 H         1 UNK         0.0600 
    132 H132        3.1078  -15.6647  -47.6549 H         1 UNK         0.0800 
    133 H133        1.9027  -15.8712  -46.4180 H         1 UNK         0.0800 
    134 H134        2.3560  -16.3158  -50.4722 H         1 UNK         0.0800 
    135 H135        3.3996  -17.2310  -49.4071 H         1 UNK         0.0800 
    136 H136        0.1265  -17.7804  -51.2053 H         1 UNK         0.1150 
    137 H137        1.3304  -21.6277  -52.6798 H         1 UNK         0.1150 
    138 H138        3.9891  -19.3481  -50.2313 H         1 UNK         0.1150 
    139 H139        4.0773  -21.6899  -52.7703 H         1 UNK         0.0800 
    140 H140        4.7915  -21.3483  -51.2184 H         1 UNK         0.0800 
    141 H141        3.5923  -22.0961  -49.0506 H         1 UNK         0.0800 
    142 H142        4.5300  -23.5643  -49.0623 H         1 UNK         0.0800 
    143 H143        2.3434  -24.8958  -48.9819 H         1 UNK         0.0600 
    144 H144        3.6019  -23.5588  -46.8192 H         1 UNK         0.3000 
    145 H145        1.7293  -24.9631  -44.1603 H         1 UNK         0.0600 
    146 H146        3.9526  -25.8308  -43.5039 H         1 UNK         0.0600 
    147 H147        3.2987  -26.7928  -44.8193 H         1 UNK         0.0600 
    148 H148        4.5599  -25.6099  -45.1453 H         1 UNK         0.0600 
    149 H149        4.0700  -23.3767  -44.1416 H         1 UNK         0.3000 
    150 H150        4.0334  -21.2709  -43.4642 H         1 UNK         0.0600 
    151 H151        3.9725  -20.6467  -45.8850 H         1 UNK         0.0600 
    152 H152        3.8916  -19.2206  -44.8620 H         1 UNK         0.0600 
    153 H153        2.4368  -19.8205  -45.6488 H         1 UNK         0.0600 
    154 H154        1.5710  -19.6474  -43.3818 H         1 UNK         0.3000 
    155 H155        0.8204  -20.4553  -40.0163 H         1 UNK         0.0600 
    156 H156        1.9505  -17.7980  -41.0577 H         1 UNK         0.0600 
    157 H157        0.9102  -17.9958  -39.6467 H         1 UNK         0.0600 
    158 H158        2.5316  -18.6722  -39.6452 H         1 UNK         0.0600 
    159 H159       -0.1439  -18.5905  -42.0337 H         1 UNK         0.3000 
    160 H160       -1.6167  -20.6292  -44.1377 H         1 UNK         0.0600 
    161 H161       -3.6536  -19.7920  -42.0123 H         1 UNK         0.0600 
    162 H162       -3.4343  -21.4221  -42.6379 H         1 UNK         0.0600 
    163 H163       -4.0138  -20.1542  -43.6997 H         1 UNK         0.0600 
    164 H164       -2.7080  -18.1332  -43.6621 H         1 UNK         0.3000 
    165 H165       -0.0799  -16.1662  -45.0972 H         1 UNK         0.0600 
    166 H166       -2.2097  -15.5947  -46.3394 H         1 UNK         0.0600 
    167 H167       -1.5353  -17.1442  -46.8143 H         1 UNK         0.0600 
    168 H168       -2.9411  -17.0785  -45.7584 H         1 UNK         0.0600 
    169 H169       -2.0464  -16.1971  -42.9545 H         1 UNK         0.3000 
    170 H170       -3.0422  -14.0309  -42.3167 H         1 UNK         0.0600 
    171 H171       -0.1721  -13.7550  -41.2260 H         1 UNK         0.0600 
    172 H172       -1.6416  -13.5774  -40.2718 H         1 UNK         0.0600 
    173 H173       -1.2294  -15.1361  -40.9612 H         1 UNK         0.0600 
    174 H174       -1.2994  -11.9507  -43.3158 H         1 UNK         0.3000 
    175 H175       -3.5366   -9.4442  -42.6414 H         1 UNK         0.0600 
    176 H176       -1.8614   -8.0727  -41.4111 H         1 UNK         0.0600 
    177 H177       -0.9979   -9.5306  -40.9220 H         1 UNK         0.0600 
    178 H178       -2.6267   -9.2250  -40.3290 H         1 UNK         0.0600 
    179 H179       -0.6799   -9.5599  -43.3443 H         1 UNK         0.3000 
    180 H180       -1.3295   -9.8020  -46.8467 H         1 UNK         0.0600 
    181 H181        0.0509   -7.8014  -44.9816 H         1 UNK         0.0600 
    182 H182       -1.2156   -7.4372  -46.1419 H         1 UNK         0.0600 
    183 H183        0.3527   -7.9903  -46.7075 H         1 UNK         0.0600 
    184 H184        0.2823  -11.2034  -46.4617 H         1 UNK         0.3000 
    185 H185        3.0506  -11.4083  -45.1054 H         1 UNK         0.0600 
    186 H186        2.7133  -11.7729  -42.6870 H         1 UNK         0.0600 
    187 H187        1.3567  -12.8500  -42.9944 H         1 UNK         0.0600 
    188 H188        2.9873  -13.3207  -43.4680 H         1 UNK         0.0600 
    189 H189        0.7370  -13.2758  -45.4817 H         1 UNK         0.3000 
    190 H190        1.5740  -21.8498  -47.2883 H         1 UNK         0.3000 
    191 H191       -0.6562  -21.0942  -48.9215 H         1 UNK         0.0600 
    192 H192        0.5981  -19.4952  -47.4879 H         1 UNK         0.0600 
    193 H193       -1.1095  -19.5142  -47.0512 H         1 UNK         0.0600 
    194 H194        0.0646  -20.3455  -46.0462 H         1 UNK         0.0600 
    195 H195       -0.3534  -22.8344  -45.7826 H         1 UNK         0.3000 
    196 H196       -3.0922  -23.2240  -45.2719 H         1 UNK         0.0600 
    197 H197       -2.3067  -24.9918  -43.7148 H         1 UNK         0.0600 
    198 H198       -1.2836  -23.5683  -43.5962 H         1 UNK         0.0600 
    199 H199       -0.7183  -24.9880  -44.4704 H         1 UNK         0.0600 
    200 H200       -0.7857  -25.3440  -47.0425 H         1 UNK         0.3000 
    201 H201       -2.6191  -27.4041  -47.7233 H         1 UNK         0.0600 
    202 H202       -0.1594  -27.6761  -47.8439 H         1 UNK         0.0600 
    203 H203       -0.0568  -26.4690  -49.1239 H         1 UNK         0.0600 
    204 H204       -0.8725  -28.0014  -49.4167 H         1 UNK         0.0600 
    205 H205       -1.9073  -24.2924  -49.2583 H         1 UNK         0.3000 
    206 H206       -3.6782  -24.7880  -51.5591 H         1 UNK         0.0600 
    207 H207       -1.4700  -23.6624  -51.8688 H         1 UNK         0.0600 
    208 H208       -2.8011  -22.6158  -52.3327 H         1 UNK         0.0600 
    209 H209       -1.9826  -22.3675  -50.7894 H         1 UNK         0.0600 
    210 H210       -4.8031  -24.6895  -48.7923 H         1 UNK         0.3000 
    211 H211       -6.6503  -24.0536  -47.7613 H         1 UNK         0.0600 
    212 H212       -7.5664  -23.0537  -50.5089 H         1 UNK         0.0600 
    213 H213       -8.6069  -23.4553  -49.1501 H         1 UNK         0.0600 
    214 H214       -7.6729  -24.7171  -49.9362 H         1 UNK         0.0600 
    215 H215       -4.6480  -22.3535  -47.2792 H         1 UNK         0.3000 
    216 H216       -4.1347  -20.5031  -46.1974 H         1 UNK         0.0600 
    217 H217       -5.8038  -18.9702  -45.2594 H         1 UNK         0.0600 
    218 H218       -6.3363  -20.6273  -45.0234 H         1 UNK         0.0600 
    219 H219       -7.0688  -19.6315  -46.2809 H         1 UNK         0.0600 
    220 H220       -3.5002  -20.7032  -48.6929 H         1 UNK         0.3000 
    221 H221       -2.6872  -19.7137  -50.4847 H         1 UNK         0.0600 
    222 H222       -2.9263  -17.1246  -48.8685 H         1 UNK         0.0600 
    223 H223       -1.5351  -18.2115  -48.9433 H         1 UNK         0.0600 
    224 H224       -2.0115  -17.2959  -50.3551 H         1 UNK         0.0600 
    225 H225       -5.1063  -20.4804  -50.9859 H         1 UNK         0.3000 
    226 H226       -6.6588  -18.4052  -52.3796 H         1 UNK         0.0600 
    227 H227       -7.7257  -20.4325  -51.2602 H         1 UNK         0.0600 
    228 H228       -8.1105  -20.3019  -52.9662 H         1 UNK         0.0600 
    229 H229       -6.9074  -21.4660  -52.4277 H         1 UNK         0.0600 
    230 H230       -7.2314  -19.2714  -54.7540 H         1 UNK         0.3000 
    231 H231       -4.9752  -18.8721  -56.4146 H         1 UNK         0.0600 
    232 H232       -7.7830  -19.9109  -57.0785 H         1 UNK         0.0600 
    233 H233       -6.6258  -19.2837  -58.2458 H         1 UNK         0.0600 
    234 H234       -7.2928  -18.2167  -57.0227 H         1 UNK         0.0600 
    235 H235       -5.8260  -21.7154  -54.8461 H         1 UNK         0.3000 
    236 H236       -5.3772  -23.8138  -56.6205 H         1 UNK         0.0600 
    237 H237       -6.3169  -24.0956  -54.3532 H         1 UNK         0.0600 
    238 H238       -4.8860  -25.1019  -54.5078 H         1 UNK         0.0600 
    239 H239       -4.7987  -23.5862  -53.6171 H         1 UNK         0.0600 
    240 H240       -2.9521  -21.6841  -55.1511 H         1 UNK         0.3000 
    241 H241       -0.7316  -23.4118  -55.9853 H         1 UNK         0.0600 
    242 H242       -2.7285  -21.3859  -57.8618 H         1 UNK         0.3800 
    243 H243       -1.5188  -21.0171  -59.0638 H         1 UNK         0.3800 
    244 H244       -0.4550  -22.2665  -53.8992 H         1 UNK         0.0800 
    245 H245        0.7730  -21.7815  -55.0295 H         1 UNK         0.0800 
    246 H246       -1.4269  -19.0117  -52.4601 H         1 UNK         0.0800 
    247 H247       -1.3078  -20.7396  -52.3284 H         1 UNK         0.0800 
@<TRIPOS>BOND
     1    1    2 1    
     2    1  127 1    
     3    1  128 1    
     4    1  129 1    
     5    2    3 2    
     6    2    4 am   BACKBONE|DICT|INTERRES
     7    4    5 1    
     8    4  130 1    
     9    5    6 1    
    10    5   65 1    
    11    5  131 1    
    12    6    7 1    
    13    6  132 1    
    14    6  133 1    
    15    7    8 1    
    16    8    9 1    
    17    8  134 1    
    18    8  135 1    
    19    9   10 ar   
    20    9   14 ar   
    21   10   11 ar   
    22   10  136 1    
    23   11   12 ar   
    24   11  126 1    
    25   12   13 ar   
    26   12  137 1    
    27   13   14 ar   
    28   13   15 1    
    29   14  138 1    
    30   15   16 1    
    31   15  139 1    
    32   15  140 1    
    33   16   17 1    
    34   17   18 1    
    35   17  141 1    
    36   17  142 1    
    37   18   19 1    
    38   18   67 1    
    39   18  143 1    
    40   19   20 am   BACKBONE|DICT|INTERRES
    41   19  144 1    
    42   20   21 2    
    43   20   22 1    
    44   22   23 1    
    45   22   24 1    
    46   22  145 1    
    47   23  146 1    
    48   23  147 1    
    49   23  148 1    
    50   24   25 am   BACKBONE|DICT|INTERRES
    51   24  149 1    
    52   25   26 2    
    53   25   27 1    
    54   27   28 1    
    55   27   29 1    
    56   27  150 1    
    57   28  151 1    
    58   28  152 1    
    59   28  153 1    
    60   29   30 am   BACKBONE|DICT|INTERRES
    61   29  154 1    
    62   30   31 2    
    63   30   32 1    
    64   32   33 1    
    65   32   34 1    
    66   32  155 1    
    67   33  156 1    
    68   33  157 1    
    69   33  158 1    
    70   34   35 am   BACKBONE|DICT|INTERRES
    71   34  159 1    
    72   35   36 2    
    73   35   37 1    
    74   37   38 1    
    75   37   39 1    
    76   37  160 1    
    77   38  161 1    
    78   38  162 1    
    79   38  163 1    
    80   39   40 am   BACKBONE|DICT|INTERRES
    81   39  164 1    
    82   40   41 2    
    83   40   42 1    
    84   42   43 1    
    85   42   44 1    
    86   42  165 1    
    87   43  166 1    
    88   43  167 1    
    89   43  168 1    
    90   44   45 am   BACKBONE|DICT|INTERRES
    91   44  169 1    
    92   45   46 2    
    93   45   47 1    
    94   47   48 1    
    95   47   49 1    
    96   47  170 1    
    97   48  171 1    
    98   48  172 1    
    99   48  173 1    
   100   49   50 am   BACKBONE|DICT|INTERRES
   101   49  174 1    
   102   50   51 2    
   103   50   52 1    
   104   52   53 1    
   105   52   54 1    
   106   52  175 1    
   107   53  176 1    
   108   53  177 1    
   109   53  178 1    
   110   54   55 am   BACKBONE|DICT|INTERRES
   111   54  179 1    
   112   55   56 2    
   113   55   57 1    
   114   57   58 1    
   115   57   59 1    
   116   57  180 1    
   117   58  181 1    
   118   58  182 1    
   119   58  183 1    
   120   59   60 am   BACKBONE|DICT|INTERRES
   121   59  184 1    
   122   60   61 2    
   123   60   62 1    
   124   62   63 1    
   125   62   64 1    
   126   62  185 1    
   127   63  186 1    
   128   63  187 1    
   129   63  188 1    
   130   64   65 am   BACKBONE|DICT|INTERRES
   131   64  189 1    
   132   65   66 2    
   133   67   68 2    
   134   67   69 am   BACKBONE|DICT|INTERRES
   135   69   70 1    
   136   69  190 1    
   137   70   71 1    
   138   70   72 1    
   139   70  191 1    
   140   71  192 1    
   141   71  193 1    
   142   71  194 1    
   143   72   73 2    
   144   72   74 am   BACKBONE|DICT|INTERRES
   145   74   75 1    
   146   74  195 1    
   147   75   76 1    
   148   75   77 1    
   149   75  196 1    
   150   76  197 1    
   151   76  198 1    
   152   76  199 1    
   153   77   78 2    
   154   77   79 am   BACKBONE|DICT|INTERRES
   155   79   80 1    
   156   79  200 1    
   157   80   81 1    
   158   80   82 1    
   159   80  201 1    
   160   81  202 1    
   161   81  203 1    
   162   81  204 1    
   163   82   83 2    
   164   82   84 am   BACKBONE|DICT|INTERRES
   165   84   85 1    
   166   84  205 1    
   167   85   86 1    
   168   85   87 1    
   169   85  206 1    
   170   86  207 1    
   171   86  208 1    
   172   86  209 1    
   173   87   88 2    
   174   87   89 am   BACKBONE|DICT|INTERRES
   175   89   90 1    
   176   89  210 1    
   177   90   91 1    
   178   90   92 1    
   179   90  211 1    
   180   91  212 1    
   181   91  213 1    
   182   91  214 1    
   183   92   93 2    
   184   92   94 am   BACKBONE|DICT|INTERRES
   185   94   95 1    
   186   94  215 1    
   187   95   96 1    
   188   95   97 1    
   189   95  216 1    
   190   96  217 1    
   191   96  218 1    
   192   96  219 1    
   193   97   98 2    
   194   97   99 am   BACKBONE|DICT|INTERRES
   195   99  100 1    
   196   99  220 1    
   197  100  101 1    
   198  100  102 1    
   199  100  221 1    
   200  101  222 1    
   201  101  223 1    
   202  101  224 1    
   203  102  103 2    
   204  102  104 am   BACKBONE|DICT|INTERRES
   205  104  105 1    
   206  104  225 1    
   207  105  106 1    
   208  105  107 1    
   209  105  226 1    
   210  106  227 1    
   211  106  228 1    
   212  106  229 1    
   213  107  108 2    
   214  107  109 am   BACKBONE|DICT|INTERRES
   215  109  110 1    
   216  109  230 1    
   217  110  111 1    
   218  110  112 1    
   219  110  231 1    
   220  111  232 1    
   221  111  233 1    
   222  111  234 1    
   223  112  113 2    
   224  112  114 am   BACKBONE|DICT|INTERRES
   225  114  115 1    
   226  114  235 1    
   227  115  116 1    
   228  115  117 1    
   229  115  236 1    
   230  116  237 1    
   231  116  238 1    
   232  116  239 1    
   233  117  118 2    
   234  117  119 am   BACKBONE|DICT|INTERRES
   235  119  120 1    
   236  119  240 1    
   237  120  121 1    
   238  120  124 1    
   239  120  241 1    
   240  121  122 am   BACKBONE|DICT|INTERRES
   241  121  123 2    
   242  122  242 1    
   243  122  243 1    
   244  124  125 1    
   245  124  244 1    
   246  124  245 1    
   247  125  126 1    
   248  126  246 1    
   249  126  247 1    
@<TRIPOS>SUBSTRUCTURE
     1 UNK         1 GROUP             0       ****    0 ROOT    
