@<TRIPOS>MOLECULE
3R540
247   249    1
SMALL
USER_CHARGES


@<TRIPOS>ATOM
      1 CA         -4.6045  -10.4367  -44.5748 C.3       0 UNK        -0.1800 
      2 C          -4.5455  -10.9400  -46.0101 C.2       0 UNK         0.5000 
      3 O          -3.9799  -10.2672  -46.8718 O.2       0 UNK        -0.5000 
      4 N          -5.1335  -12.1154  -46.2696 N.am      1 UNK        -0.5000 
      5 CA         -5.1362  -12.7780  -47.5800 C.3       1 UNK         0.1400 
      6 C6         -6.2462  -13.8560  -47.6502 C.3       23 UNK        -0.0398 
      7 S7         -6.6058  -14.4175  -49.3509 S.3       23 UNK        -0.2404 
      8 C8         -6.5520  -16.2304  -49.1779 C.3       23 UNK        -0.0205 
      9 C9         -5.1657  -16.7527  -48.8267 C.ar      23 UNK        -0.0193 
     10 C10        -4.1634  -16.8036  -49.7998 C.ar      23 UNK        -0.1150 
     11 C11        -2.9024  -17.3248  -49.4950 C.ar      23 UNK        -0.0193 
     12 C12        -2.6467  -17.7946  -48.2038 C.ar      23 UNK        -0.1150 
     13 C13        -3.6366  -17.7364  -47.2187 C.ar      23 UNK        -0.0193 
     14 C14        -4.8936  -17.2159  -47.5359 C.ar      23 UNK        -0.1150 
     15 C15        -3.3426  -18.2272  -45.8114 C.3       23 UNK        -0.0205 
     16 S16        -4.1592  -19.8167  -45.4662 S.3       23 UNK        -0.2404 
     17 C17        -2.9862  -20.5892  -44.2996 C.3       23 UNK        -0.0398 
     18 CA         -2.4053  -21.9129  -44.8669 C.3       11 UNK         0.1400 
     19 N          -0.9368  -21.9217  -44.9038 N.am      11 UNK        -0.5000 
     20 C          -0.1842  -22.8680  -45.4852 C.2       10 UNK         0.5000 
     21 O          -0.6592  -23.8706  -46.0158 O.2       10 UNK        -0.5000 
     22 CA          1.3459  -22.6979  -45.4630 C.3       10 UNK         0.1400 
     23 CB          1.8510  -22.3035  -46.8587 C.3       10 UNK        -0.1800 
     24 N           1.8283  -21.7314  -44.4738 N.am      10 UNK        -0.5000 
     25 C           1.7613  -21.8954  -43.1444 C.2       9 UNK         0.5000 
     26 O           1.2859  -22.8947  -42.6034 O.2       9 UNK        -0.5000 
     27 CA          2.2713  -20.7286  -42.2773 C.3       9 UNK         0.1400 
     28 CB          3.8010  -20.7717  -42.1448 C.3       9 UNK        -0.1800 
     29 N           1.8609  -19.4254  -42.8026 N.am      9 UNK        -0.5000 
     30 C           0.5951  -18.9858  -42.8345 C.2       8 UNK         0.5000 
     31 O          -0.3510  -19.6027  -42.3461 O.2       8 UNK        -0.5000 
     32 CA          0.3318  -17.6626  -43.5788 C.3       8 UNK         0.1400 
     33 CB          0.6019  -16.4544  -42.6706 C.3       8 UNK        -0.1800 
     34 N           1.1187  -17.5448  -44.8076 N.am      8 UNK        -0.5000 
     35 C           0.9797  -18.3411  -45.8778 C.2       7 UNK         0.5000 
     36 O           0.1332  -19.2286  -45.9647 O.2       7 UNK        -0.5000 
     37 CA          1.9874  -18.1441  -47.0228 C.3       7 UNK         0.1400 
     38 CB          1.5231  -17.0425  -47.9872 C.3       7 UNK        -0.1800 
     39 N           3.3278  -17.8387  -46.5210 N.am      7 UNK        -0.5000 
     40 C           4.1143  -18.7264  -45.8945 C.2       6 UNK         0.5000 
     41 O           3.8031  -19.9023  -45.7106 O.2       6 UNK        -0.5000 
     42 CA          5.4493  -18.1999  -45.3363 C.3       6 UNK         0.1400 
     43 CB          6.5166  -18.1493  -46.4394 C.3       6 UNK        -0.1800 
     44 N           5.3173  -16.8762  -44.7270 N.am      6 UNK        -0.5000 
     45 C           4.5938  -16.6143  -43.6289 C.2       5 UNK         0.5000 
     46 O           4.0146  -17.4791  -42.9735 O.2       5 UNK        -0.5000 
     47 CA          4.4486  -15.1329  -43.2277 C.3       5 UNK         0.1400 
     48 CB          5.5572  -14.7310  -42.2440 C.3       5 UNK        -0.1800 
     49 N           4.4586  -14.2154  -44.3719 N.am      5 UNK        -0.5000 
     50 C           3.5662  -14.2293  -45.3705 C.2       4 UNK         0.5000 
     51 O           2.6154  -15.0152  -45.4295 O.2       4 UNK        -0.5000 
     52 CA          3.8207  -13.2462  -46.5201 C.3       4 UNK         0.1400 
     53 CB          5.0522  -13.6757  -47.3416 C.3       4 UNK        -0.1800 
     54 N           2.6454  -13.2102  -47.3815 N.am      4 UNK        -0.5000 
     55 C           2.3331  -12.2344  -48.2408 C.2       3 UNK         0.5000 
     56 O           3.0129  -11.2184  -48.3935 O.2       3 UNK        -0.5000 
     57 CA          1.0595  -12.4222  -49.0889 C.3       3 UNK         0.1400 
     58 CB          1.4329  -12.8638  -50.5124 C.3       3 UNK        -0.1800 
     59 N           0.1092  -13.3883  -48.5323 N.am      3 UNK        -0.5000 
     60 C          -0.6582  -13.1658  -47.4591 C.2       2 UNK         0.5000 
     61 O          -0.6191  -12.1328  -46.7873 O.2       2 UNK        -0.5000 
     62 CA         -1.6254  -14.2957  -47.0622 C.3       2 UNK         0.1400 
     63 CB         -1.1889  -14.9366  -45.7367 C.3       2 UNK        -0.1800 
     64 N          -2.9956  -13.8061  -46.9303 N.am      2 UNK        -0.5000 
     65 C          -3.7410  -13.3385  -47.9432 C.2       1 UNK         0.5000 
     66 O          -3.3595  -13.3059  -49.1138 O.2       1 UNK        -0.5000 
     67 C          -3.0250  -23.1556  -44.1845 C.2       11 UNK         0.5000 
     68 O          -4.1602  -23.5157  -44.4961 O.2       11 UNK        -0.5000 
     69 N          -2.2574  -23.8244  -43.3122 N.am      12 UNK        -0.5000 
     70 CA         -2.6088  -25.1094  -42.7060 C.3       12 UNK         0.1400 
     71 CB         -1.5694  -25.4482  -41.6271 C.3       12 UNK        -0.1800 
     72 C          -2.7236  -26.2641  -43.7252 C.2       12 UNK         0.5000 
     73 O          -3.4827  -27.2042  -43.4862 O.2       12 UNK        -0.5000 
     74 N          -1.9951  -26.1756  -44.8472 N.am      13 UNK        -0.5000 
     75 CA         -2.0123  -27.1459  -45.9386 C.3       13 UNK         0.1400 
     76 CB         -0.6114  -27.2156  -46.5738 C.3       13 UNK        -0.1800 
     77 C          -3.1050  -26.7717  -46.9553 C.2       13 UNK         0.5000 
     78 O          -2.7966  -26.3124  -48.0564 O.2       13 UNK        -0.5000 
     79 N          -4.3702  -26.9507  -46.5487 N.am      14 UNK        -0.5000 
     80 CA         -5.5896  -26.7570  -47.3447 C.3       14 UNK         0.1400 
     81 CB         -5.7047  -27.8641  -48.4137 C.3       14 UNK        -0.1800 
     82 C          -5.7022  -25.3398  -47.9443 C.2       14 UNK         0.5000 
     83 O          -5.8958  -25.1896  -49.1531 O.2       14 UNK        -0.5000 
     84 N          -5.5306  -24.3241  -47.0852 N.am      15 UNK        -0.5000 
     85 CA         -5.5200  -22.8957  -47.4189 C.3       15 UNK         0.1400 
     86 CB         -6.9104  -22.4280  -47.9004 C.3       15 UNK        -0.1800 
     87 C          -4.3873  -22.5329  -48.3999 C.2       15 UNK         0.5000 
     88 O          -4.6121  -21.7599  -49.3279 O.2       15 UNK        -0.5000 
     89 N          -3.2035  -23.1308  -48.1937 N.am      16 UNK        -0.5000 
     90 CA         -2.0023  -23.0201  -49.0285 C.3       16 UNK         0.1400 
     91 CB         -1.4486  -21.5770  -49.0200 C.3       16 UNK        -0.1800 
     92 C          -2.2451  -23.5841  -50.4428 C.2       16 UNK         0.5000 
     93 O          -1.9132  -22.9382  -51.4365 O.2       16 UNK        -0.5000 
     94 N          -2.8454  -24.7835  -50.4871 N.am      17 UNK        -0.5000 
     95 CA         -3.2988  -25.5137  -51.6738 C.3       17 UNK         0.1400 
     96 CB         -2.0931  -26.0086  -52.4997 C.3       17 UNK        -0.1800 
     97 C          -4.3157  -24.7014  -52.5034 C.2       17 UNK         0.5000 
     98 O          -4.1298  -24.5212  -53.7084 O.2       17 UNK        -0.5000 
     99 N          -5.3665  -24.2183  -51.8222 N.am      18 UNK        -0.5000 
    100 CA        -6.4272  -23.3422  -52.3321 C.3       18 UNK         0.1400 
    101 CB        -7.3135  -24.0879  -53.3514 C.3       18 UNK        -0.1800 
    102 C         -5.8674  -22.0083  -52.8704 C.2       18 UNK         0.5000 
    103 O         -6.1007  -21.6466  -54.0263 O.2       18 UNK        -0.5000 
    104 N         -5.1115  -21.3184  -52.0079 N.am      19 UNK        -0.5000 
    105 CA        -4.3770  -20.0673  -52.1943 C.3       19 UNK         0.1400 
    106 CB        -5.3124  -18.8973  -52.5558 C.3       19 UNK        -0.1800 
    107 C         -3.1980  -20.1730  -53.1743 C.2       19 UNK         0.5000 
    108 O         -2.0797  -19.8183  -52.8038 O.2       19 UNK        -0.5000 
    109 N         -3.4687  -20.5981  -54.4173 N.am      20 UNK        -0.5000 
    110 CA        -2.5244  -20.7124  -55.5391 C.3       20 UNK         0.1400 
    111 CB        -1.5678  -21.8991  -55.3029 C.3       20 UNK        -0.1800 
    112 C         -1.7738  -19.3915  -55.8361 C.2       20 UNK         0.5000 
    113 O         -0.5900  -19.4094  -56.1816 O.2       20 UNK        -0.5000 
    114 N         -2.4683  -18.2615  -55.6185 N.am      21 UNK        -0.5000 
    115 CA        -1.9725  -16.8777  -55.6542 C.3       21 UNK         0.1400 
    116 CB        -1.6230  -16.4717  -57.1009 C.3       21 UNK        -0.1800 
    117 C         -0.8136  -16.5934  -54.6668 C.2       21 UNK         0.5000 
    118 O         -0.0754  -15.6262  -54.8601 O.2       21 UNK        -0.5000 
    119 N         -0.6632  -17.4473  -53.6433 N.am      22 UNK        -0.5000 
    120 CA         0.4657  -17.5054  -52.7013 C.3       22 UNK         0.1400 
    121 C          1.8243  -17.8829  -53.3735 C.2       22 UNK         0.5000 
    122 N          1.8331  -18.5045  -54.5487 N.am      22 UNK        -0.7600 
    123 O          2.8900  -17.6412  -52.8133 O.2       22 UNK        -0.5000 
    124 C124        0.5656  -16.2576  -51.7726 C.3       23 UNK        -0.0398 
    125 S125       -0.8643  -15.8701  -50.6865 S.3       23 UNK        -0.2404 
    126 C126       -1.8274  -17.4105  -50.5656 C.3       23 UNK        -0.0205 
    127 H127       -3.5962  -10.3157  -44.1789 H         1 UNK         0.0600 
    128 H128       -5.1446  -11.1253  -43.9245 H         1 UNK         0.0600 
    129 H129       -5.1055   -9.4694  -44.5363 H         1 UNK         0.0600 
    130 H130       -5.5974  -12.6099  -45.5207 H         1 UNK         0.3000 
    131 H131       -5.3751  -12.0141  -48.3236 H         1 UNK         0.0600 
    132 H132       -6.0032  -14.7013  -47.0064 H         1 UNK         0.0800 
    133 H133       -7.1776  -13.4464  -47.2568 H         1 UNK         0.0800 
    134 H134       -6.8728  -16.6807  -50.1183 H         1 UNK         0.0800 
    135 H135       -7.2831  -16.5415  -48.4300 H         1 UNK         0.0800 
    136 H136       -4.3675  -16.4388  -50.7962 H         1 UNK         0.1150 
    137 H137       -1.6769  -18.2077  -47.9645 H         1 UNK         0.1150 
    138 H138       -5.6623  -17.1845  -46.7767 H         1 UNK         0.1150 
    139 H139       -2.2657  -18.3210  -45.6822 H         1 UNK         0.0800 
    140 H140       -3.6761  -17.4868  -45.0831 H         1 UNK         0.0800 
    141 H141       -3.4942  -20.7327  -43.3439 H         1 UNK         0.0800 
    142 H142       -2.1894  -19.8799  -44.0860 H         1 UNK         0.0800 
    143 H143       -2.6941  -21.9866  -45.9131 H         1 UNK         0.0600 
    144 H144       -0.4675  -21.1059  -44.5345 H         1 UNK         0.3000 
    145 H145        1.7730  -23.6711  -45.2126 H         1 UNK         0.0600 
    146 H146        2.9389  -22.2422  -46.8844 H         1 UNK         0.0600 
    147 H147        1.5504  -23.0390  -47.6060 H         1 UNK         0.0600 
    148 H148        1.4500  -21.3400  -47.1716 H         1 UNK         0.0600 
    149 H149        2.2859  -20.9032  -44.8412 H         1 UNK         0.3000 
    150 H150        1.8419  -20.8420  -41.2797 H         1 UNK         0.0600 
    151 H151        4.1309  -21.7269  -41.7347 H         1 UNK         0.0600 
    152 H152        4.1599  -19.9887  -41.4766 H         1 UNK         0.0600 
    153 H153        4.2943  -20.6392  -43.1080 H         1 UNK         0.0600 
    154 H154        2.5976  -18.8214  -43.1546 H         1 UNK         0.3000 
    155 H155       -0.7230  -17.6419  -43.8587 H         1 UNK         0.0600 
    156 H156       -0.0650  -16.4630  -41.8078 H         1 UNK         0.0600 
    157 H157        0.4401  -15.5147  -43.1989 H         1 UNK         0.0600 
    158 H158        1.6228  -16.4546  -42.2912 H         1 UNK         0.0600 
    159 H159        1.8128  -16.8062  -44.8422 H         1 UNK         0.3000 
    160 H160        2.0406  -19.0772  -47.5865 H         1 UNK         0.0600 
    161 H161        1.4177  -16.0794  -47.4912 H         1 UNK         0.0600 
    162 H162        0.5546  -17.2943  -48.4187 H         1 UNK         0.0600 
    163 H163        2.2248  -16.9200  -48.8120 H         1 UNK         0.0600 
    164 H164        3.6238  -16.8755  -46.5732 H         1 UNK         0.3000 
    165 H165        5.7859  -18.8964  -44.5653 H         1 UNK         0.0600 
    166 H166        7.4852  -17.8517  -46.0371 H         1 UNK         0.0600 
    167 H167        6.6453  -19.1286  -46.9024 H         1 UNK         0.0600 
    168 H168        6.2500  -17.4452  -47.2287 H         1 UNK         0.0600 
    169 H169        5.7695  -16.1077  -45.1989 H         1 UNK         0.3000 
    170 H170        3.4878  -15.0202  -42.7225 H         1 UNK         0.0600 
    171 H171        5.5585  -15.3837  -41.3699 H         1 UNK         0.0600 
    172 H172        6.5451  -14.7937  -42.7021 H         1 UNK         0.0600 
    173 H173        5.4163  -13.7112  -41.8856 H         1 UNK         0.0600 
    174 H174        5.2123  -13.5436  -44.3990 H         1 UNK         0.3000 
    175 H175        3.9853  -12.2556  -46.0913 H         1 UNK         0.0600 
    176 H176        4.9160  -14.6650  -47.7806 H         1 UNK         0.0600 
    177 H177        5.2506  -12.9769  -48.1543 H         1 UNK         0.0600 
    178 H178        5.9511  -13.7090  -46.7252 H         1 UNK         0.0600 
    179 H179        2.0091  -13.9852  -47.2520 H         1 UNK         0.3000 
    180 H180        0.5622  -11.4521  -49.1528 H         1 UNK         0.0600 
    181 H181        1.9402  -13.8292  -50.5121 H         1 UNK         0.0600 
    182 H182        2.1019  -12.1425  -50.9835 H         1 UNK         0.0600 
    183 H183        0.5493  -12.9465  -51.1458 H         1 UNK         0.0600 
    184 H184       -0.0199  -14.2429  -49.0579 H         1 UNK         0.3000 
    185 H185       -1.6146  -15.0659  -47.8352 H         1 UNK         0.0600 
    186 H186       -0.1589  -15.2857  -45.7966 H         1 UNK         0.0600 
    187 H187       -1.2432  -14.2292  -44.9085 H         1 UNK         0.0600 
    188 H188       -1.8099  -15.7951  -45.4869 H         1 UNK         0.0600 
    189 H189       -3.3628  -13.7407  -45.9935 H         1 UNK         0.3000 
    190 H190       -1.3309  -23.4696  -43.1174 H         1 UNK         0.3000 
    191 H191       -3.5820  -24.9993  -42.2232 H         1 UNK         0.0600 
    192 H192       -1.5383  -24.6801  -40.8541 H         1 UNK         0.0600 
    193 H193       -1.8075  -26.3929  -41.1365 H         1 UNK         0.0600 
    194 H194       -0.5676  -25.5393  -42.0493 H         1 UNK         0.0600 
    195 H195       -1.4524  -25.3348  -45.0218 H         1 UNK         0.3000 
    196 H196       -2.2438  -28.1397  -45.5496 H         1 UNK         0.0600 
    197 H197       -0.5822  -27.9647  -47.3659 H         1 UNK         0.0600 
    198 H198        0.1420  -27.4924  -45.8363 H         1 UNK         0.0600 
    199 H199       -0.3129  -26.2646  -47.0152 H         1 UNK         0.0600 
    200 H200       -4.5109  -27.2795  -45.6014 H         1 UNK         0.3000 
    201 H201       -6.4318  -26.8689  -46.6605 H         1 UNK         0.0600 
    202 H202       -5.6668  -28.8547  -47.9607 H         1 UNK         0.0600 
    203 H203       -4.9028  -27.8018  -49.1502 H         1 UNK         0.0600 
    204 H204       -6.6501  -27.7908  -48.9526 H         1 UNK         0.0600 
    205 H205       -5.3231  -24.5351  -46.1161 H         1 UNK         0.3000 
    206 H206       -5.3076  -22.3588  -46.4959 H         1 UNK         0.0600 
    207 H207       -7.6853  -22.6917  -47.1808 H         1 UNK         0.0600 
    208 H208       -6.9351  -21.3441  -48.0194 H         1 UNK         0.0600 
    209 H209       -7.1802  -22.8669  -48.8610 H         1 UNK         0.0600 
    210 H210       -3.1394  -23.8060  -47.4451 H         1 UNK         0.3000 
    211 H211       -1.2488  -23.6641  -48.5743 H         1 UNK         0.0600 
    212 H212       -2.1168  -20.8787  -49.5249 H         1 UNK         0.0600 
    213 H213       -0.4856  -21.5283  -49.5290 H         1 UNK         0.0600 
    214 H214       -1.2959  -21.2160  -48.0026 H         1 UNK         0.0600 
    215 H215       -3.0301  -25.2470  -49.5999 H         1 UNK         0.3000 
    216 H216       -3.8311  -26.3926  -51.3070 H         1 UNK         0.0600 
    217 H217       -2.4203  -26.6415  -53.3252 H         1 UNK         0.0600 
    218 H218       -1.4128  -26.6000  -51.8869 H         1 UNK         0.0600 
    219 H219       -1.5261  -25.1810  -52.9275 H         1 UNK         0.0600 
    220 H220       -5.4393  -24.4566  -50.8349 H         1 UNK         0.3000 
    221 H221       -7.0541  -23.0908  -51.4754 H         1 UNK         0.0600 
    222 H222       -6.7638  -24.3516  -54.2553 H         1 UNK         0.0600 
    223 H223       -7.7167  -25.0060  -52.9241 H         1 UNK         0.0600 
    224 H224       -8.1604  -23.4710  -53.6537 H         1 UNK         0.0600 
    225 H225       -4.9733  -21.7133  -51.0781 H         1 UNK         0.3000 
    226 H226       -3.9444  -19.8404  -51.2183 H         1 UNK         0.0600 
    227 H227       -6.0635  -18.7445  -51.7807 H         1 UNK         0.0600 
    228 H228       -4.7513  -17.9674  -52.6518 H         1 UNK         0.0600 
    229 H229       -5.8325  -19.0587  -53.4998 H         1 UNK         0.0600 
    230 H230       -4.4237  -20.8972  -54.5979 H         1 UNK         0.3000 
    231 H231       -3.1198  -20.9340  -56.4256 H         1 UNK         0.0600 
    232 H232       -0.9074  -21.7215  -54.4533 H         1 UNK         0.0600 
    233 H233       -0.9402  -22.0796  -56.1762 H         1 UNK         0.0600 
    234 H234       -2.1219  -22.8172  -55.1054 H         1 UNK         0.0600 
    235 H235       -3.4288  -18.3668  -55.3242 H         1 UNK         0.3000 
    236 H236       -2.8025  -16.2503  -55.3267 H         1 UNK         0.0600 
    237 H237       -2.4543  -16.6689  -57.7777 H         1 UNK         0.0600 
    238 H238       -1.3996  -15.4064  -57.1675 H         1 UNK         0.0600 
    239 H239       -0.7519  -17.0118  -57.4729 H         1 UNK         0.0600 
    240 H240       -1.3026  -18.2326  -53.5675 H         1 UNK         0.3000 
    241 H241        0.2682  -18.3684  -52.0678 H         1 UNK         0.0600 
    242 H242        2.7149  -18.7526  -54.9680 H         1 UNK         0.3800 
    243 H243        0.9695  -18.7346  -55.0288 H         1 UNK         0.3800 
    244 H244        1.4196  -16.3690  -51.1036 H         1 UNK         0.0800 
    245 H245        0.7817  -15.3691  -52.3664 H         1 UNK         0.0800 
    246 H246       -2.3021  -17.6065  -51.5249 H         1 UNK         0.0800 
    247 H247       -1.1700  -18.2536  -50.3508 H         1 UNK         0.0800 
@<TRIPOS>BOND
     1    1    2 1    
     2    1  127 1    
     3    1  128 1    
     4    1  129 1    
     5    2    3 2    
     6    2    4 am   BACKBONE|DICT|INTERRES
     7    4    5 1    
     8    4  130 1    
     9    5    6 1    
    10    5   65 1    
    11    5  131 1    
    12    6    7 1    
    13    6  132 1    
    14    6  133 1    
    15    7    8 1    
    16    8    9 1    
    17    8  134 1    
    18    8  135 1    
    19    9   10 ar   
    20    9   14 ar   
    21   10   11 ar   
    22   10  136 1    
    23   11   12 ar   
    24   11  126 1    
    25   12   13 ar   
    26   12  137 1    
    27   13   14 ar   
    28   13   15 1    
    29   14  138 1    
    30   15   16 1    
    31   15  139 1    
    32   15  140 1    
    33   16   17 1    
    34   17   18 1    
    35   17  141 1    
    36   17  142 1    
    37   18   19 1    
    38   18   67 1    
    39   18  143 1    
    40   19   20 am   BACKBONE|DICT|INTERRES
    41   19  144 1    
    42   20   21 2    
    43   20   22 1    
    44   22   23 1    
    45   22   24 1    
    46   22  145 1    
    47   23  146 1    
    48   23  147 1    
    49   23  148 1    
    50   24   25 am   BACKBONE|DICT|INTERRES
    51   24  149 1    
    52   25   26 2    
    53   25   27 1    
    54   27   28 1    
    55   27   29 1    
    56   27  150 1    
    57   28  151 1    
    58   28  152 1    
    59   28  153 1    
    60   29   30 am   BACKBONE|DICT|INTERRES
    61   29  154 1    
    62   30   31 2    
    63   30   32 1    
    64   32   33 1    
    65   32   34 1    
    66   32  155 1    
    67   33  156 1    
    68   33  157 1    
    69   33  158 1    
    70   34   35 am   BACKBONE|DICT|INTERRES
    71   34  159 1    
    72   35   36 2    
    73   35   37 1    
    74   37   38 1    
    75   37   39 1    
    76   37  160 1    
    77   38  161 1    
    78   38  162 1    
    79   38  163 1    
    80   39   40 am   BACKBONE|DICT|INTERRES
    81   39  164 1    
    82   40   41 2    
    83   40   42 1    
    84   42   43 1    
    85   42   44 1    
    86   42  165 1    
    87   43  166 1    
    88   43  167 1    
    89   43  168 1    
    90   44   45 am   BACKBONE|DICT|INTERRES
    91   44  169 1    
    92   45   46 2    
    93   45   47 1    
    94   47   48 1    
    95   47   49 1    
    96   47  170 1    
    97   48  171 1    
    98   48  172 1    
    99   48  173 1    
   100   49   50 am   BACKBONE|DICT|INTERRES
   101   49  174 1    
   102   50   51 2    
   103   50   52 1    
   104   52   53 1    
   105   52   54 1    
   106   52  175 1    
   107   53  176 1    
   108   53  177 1    
   109   53  178 1    
   110   54   55 am   BACKBONE|DICT|INTERRES
   111   54  179 1    
   112   55   56 2    
   113   55   57 1    
   114   57   58 1    
   115   57   59 1    
   116   57  180 1    
   117   58  181 1    
   118   58  182 1    
   119   58  183 1    
   120   59   60 am   BACKBONE|DICT|INTERRES
   121   59  184 1    
   122   60   61 2    
   123   60   62 1    
   124   62   63 1    
   125   62   64 1    
   126   62  185 1    
   127   63  186 1    
   128   63  187 1    
   129   63  188 1    
   130   64   65 am   BACKBONE|DICT|INTERRES
   131   64  189 1    
   132   65   66 2    
   133   67   68 2    
   134   67   69 am   BACKBONE|DICT|INTERRES
   135   69   70 1    
   136   69  190 1    
   137   70   71 1    
   138   70   72 1    
   139   70  191 1    
   140   71  192 1    
   141   71  193 1    
   142   71  194 1    
   143   72   73 2    
   144   72   74 am   BACKBONE|DICT|INTERRES
   145   74   75 1    
   146   74  195 1    
   147   75   76 1    
   148   75   77 1    
   149   75  196 1    
   150   76  197 1    
   151   76  198 1    
   152   76  199 1    
   153   77   78 2    
   154   77   79 am   BACKBONE|DICT|INTERRES
   155   79   80 1    
   156   79  200 1    
   157   80   81 1    
   158   80   82 1    
   159   80  201 1    
   160   81  202 1    
   161   81  203 1    
   162   81  204 1    
   163   82   83 2    
   164   82   84 am   BACKBONE|DICT|INTERRES
   165   84   85 1    
   166   84  205 1    
   167   85   86 1    
   168   85   87 1    
   169   85  206 1    
   170   86  207 1    
   171   86  208 1    
   172   86  209 1    
   173   87   88 2    
   174   87   89 am   BACKBONE|DICT|INTERRES
   175   89   90 1    
   176   89  210 1    
   177   90   91 1    
   178   90   92 1    
   179   90  211 1    
   180   91  212 1    
   181   91  213 1    
   182   91  214 1    
   183   92   93 2    
   184   92   94 am   BACKBONE|DICT|INTERRES
   185   94   95 1    
   186   94  215 1    
   187   95   96 1    
   188   95   97 1    
   189   95  216 1    
   190   96  217 1    
   191   96  218 1    
   192   96  219 1    
   193   97   98 2    
   194   97   99 am   BACKBONE|DICT|INTERRES
   195   99  100 1    
   196   99  220 1    
   197  100  101 1    
   198  100  102 1    
   199  100  221 1    
   200  101  222 1    
   201  101  223 1    
   202  101  224 1    
   203  102  103 2    
   204  102  104 am   BACKBONE|DICT|INTERRES
   205  104  105 1    
   206  104  225 1    
   207  105  106 1    
   208  105  107 1    
   209  105  226 1    
   210  106  227 1    
   211  106  228 1    
   212  106  229 1    
   213  107  108 2    
   214  107  109 am   BACKBONE|DICT|INTERRES
   215  109  110 1    
   216  109  230 1    
   217  110  111 1    
   218  110  112 1    
   219  110  231 1    
   220  111  232 1    
   221  111  233 1    
   222  111  234 1    
   223  112  113 2    
   224  112  114 am   BACKBONE|DICT|INTERRES
   225  114  115 1    
   226  114  235 1    
   227  115  116 1    
   228  115  117 1    
   229  115  236 1    
   230  116  237 1    
   231  116  238 1    
   232  116  239 1    
   233  117  118 2    
   234  117  119 am   BACKBONE|DICT|INTERRES
   235  119  120 1    
   236  119  240 1    
   237  120  121 1    
   238  120  124 1    
   239  120  241 1    
   240  121  122 am   BACKBONE|DICT|INTERRES
   241  121  123 2    
   242  122  242 1    
   243  122  243 1    
   244  124  125 1    
   245  124  244 1    
   246  124  245 1    
   247  125  126 1    
   248  126  246 1    
   249  126  247 1    
@<TRIPOS>SUBSTRUCTURE
     1 UNK         1 GROUP             0       ****    0 ROOT    
