@<TRIPOS>MOLECULE
3R540
247   249    1
SMALL
USER_CHARGES


@<TRIPOS>ATOM
      1 CA         -7.6171  -15.9876  -46.1789 C.3       0 UNK        -0.1800 
      2 C          -6.1054  -16.0255  -46.3460 C.2       0 UNK         0.5000 
      3 O          -5.5114  -17.0938  -46.2409 O.2       0 UNK        -0.5000 
      4 N          -5.4868  -14.8639  -46.6000 N.am      1 UNK        -0.5000 
      5 CA         -4.0410  -14.6592  -46.7927 C.3       1 UNK         0.1400 
      6 C6         -3.4294  -15.5524  -47.9101 C.3       23 UNK        -0.0398 
      7 S7         -2.1195  -14.7053  -48.8510 S.3       23 UNK        -0.2404 
      8 C8         -1.9078  -15.8442  -50.2610 C.3       23 UNK        -0.0205 
      9 C9         -0.9709  -17.0336  -50.0357 C.ar      23 UNK        -0.0193 
     10 C10        -1.0451  -18.1036  -50.9324 C.ar      23 UNK        -0.1150 
     11 C11        -0.1376  -19.1640  -50.8659 C.ar      23 UNK        -0.0193 
     12 C12         0.8311  -19.1735  -49.8606 C.ar      23 UNK        -0.1150 
     13 C13         0.9098  -18.1256  -48.9399 C.ar      23 UNK        -0.0193 
     14 C14         0.0089  -17.0580  -49.0320 C.ar      23 UNK        -0.1150 
     15 C15         2.0113  -18.1253  -47.8883 C.3       23 UNK        -0.0205 
     16 S16         1.7609  -19.4045  -46.6153 S.3       23 UNK        -0.2404 
     17 C17         0.3406  -18.7298  -45.6977 C.3       23 UNK        -0.0398 
     18 CA         -0.8936  -19.6529  -45.7012 C.3       11 UNK         0.1400 
     19 N          -0.5795  -20.9756  -45.1571 N.am      11 UNK        -0.5000 
     20 C          -1.4194  -22.0036  -44.9792 C.2       10 UNK         0.5000 
     21 O          -2.5929  -21.9989  -45.3561 O.2       10 UNK        -0.5000 
     22 CA         -0.8676  -23.2028  -44.1820 C.3       10 UNK         0.1400 
     23 CB         -0.4347  -24.3261  -45.1350 C.3       10 UNK        -0.1800 
     24 N           0.2629  -22.8605  -43.3086 N.am      10 UNK        -0.5000 
     25 C           0.2643  -21.9516  -42.3233 C.2       9 UNK         0.5000 
     26 O          -0.7266  -21.2858  -42.0204 O.2       9 UNK        -0.5000 
     27 CA          1.5967  -21.6845  -41.5943 C.3       9 UNK         0.1400 
     28 CB          1.7078  -22.5348  -40.3154 C.3       9 UNK        -0.1800 
     29 N           2.8060  -21.8050  -42.4247 N.am      9 UNK        -0.5000 
     30 C           3.3512  -22.9030  -42.9754 C.2       8 UNK         0.5000 
     31 O           2.8313  -24.0181  -42.9317 O.2       8 UNK        -0.5000 
     32 CA          4.6905  -22.7350  -43.7247 C.3       8 UNK         0.1400 
     33 CB          4.4431  -22.6882  -45.2409 C.3       8 UNK        -0.1800 
     34 N           5.4390  -21.5387  -43.3369 N.am      8 UNK        -0.5000 
     35 C           5.9517  -21.2922  -42.1227 C.2       7 UNK         0.5000 
     36 O           5.9655  -22.1189  -41.2102 O.2       7 UNK        -0.5000 
     37 CA          6.5190  -19.8769  -41.8707 C.3       7 UNK         0.1400 
     38 CB          8.0509  -19.9249  -41.7567 C.3       7 UNK        -0.1800 
     39 N           6.1545  -18.8694  -42.8768 N.am      7 UNK        -0.5000 
     40 C           4.9124  -18.4729  -43.1870 C.2       6 UNK         0.5000 
     41 O           3.8942  -18.9489  -42.6744 O.2       6 UNK        -0.5000 
     42 CA          4.8053  -17.4181  -44.3033 C.3       6 UNK         0.1400 
     43 CB          5.2383  -18.0152  -45.6538 C.3       6 UNK        -0.1800 
     44 N           3.4277  -16.9543  -44.4303 N.am      6 UNK        -0.5000 
     45 C           2.9246  -15.8599  -43.8503 C.2       5 UNK         0.5000 
     46 O           3.5876  -15.0476  -43.2008 O.2       5 UNK        -0.5000 
     47 CA          1.4053  -15.6722  -43.9975 C.3       5 UNK         0.1400 
     48 CB          0.6649  -16.2204  -42.7683 C.3       5 UNK        -0.1800 
     49 N           1.0133  -14.2865  -44.2330 N.am      5 UNK        -0.5000 
     50 C           1.2828  -13.6081  -45.3579 C.2       4 UNK         0.5000 
     51 O           1.9363  -14.0782  -46.2914 O.2       4 UNK        -0.5000 
     52 CA          0.7038  -12.1845  -45.4691 C.3       4 UNK         0.1400 
     53 CB          0.3917  -11.7923  -46.9251 C.3       4 UNK        -0.1800 
     54 N          -0.5208  -12.0604  -44.6792 N.am      4 UNK        -0.5000 
     55 C          -0.7640  -11.1187  -43.7584 C.2       3 UNK         0.5000 
     56 O           0.0385  -10.2326  -43.4623 O.2       3 UNK        -0.5000 
     57 CA         -2.1331  -11.1558  -43.0452 C.3       3 UNK         0.1400 
     58 CB         -3.0377  -10.0268  -43.5639 C.3       3 UNK        -0.1800 
     59 N          -2.8445  -12.4273  -43.1918 N.am      3 UNK        -0.5000 
     60 C          -2.4891  -13.5810  -42.6113 C.2       2 UNK         0.5000 
     61 O          -1.5313  -13.6928  -41.8462 O.2       2 UNK        -0.5000 
     62 CA         -3.3172  -14.8270  -42.9829 C.3       2 UNK         0.1400 
     63 CB         -4.4300  -15.0640  -41.9510 C.3       2 UNK        -0.1800 
     64 N          -3.9102  -14.7775  -44.3235 N.am      2 UNK        -0.5000 
     65 C          -3.2264  -14.6932  -45.4755 C.2       1 UNK         0.5000 
     66 O          -2.0012  -14.5761  -45.5126 O.2       1 UNK        -0.5000 
     67 C          -2.0514  -18.9375  -44.9697 C.2       11 UNK         0.5000 
     68 O          -2.6664  -18.0632  -45.5703 O.2       11 UNK        -0.5000 
     69 N          -2.3676  -19.3327  -43.7256 N.am      12 UNK        -0.5000 
     70 CA         -3.5473  -18.8821  -42.9792 C.3       12 UNK         0.1400 
     71 CB         -3.4705  -19.4277  -41.5461 C.3       12 UNK        -0.1800 
     72 C          -4.8964  -19.2556  -43.6346 C.2       12 UNK         0.5000 
     73 O          -5.9118  -18.6404  -43.3073 O.2       12 UNK        -0.5000 
     74 N          -4.8804  -20.2368  -44.5459 N.am      13 UNK        -0.5000 
     75 CA         -5.9845  -20.5972  -45.4325 C.3       13 UNK         0.1400 
     76 CB         -6.5704  -21.9461  -44.9777 C.3       13 UNK        -0.1800 
     77 C          -5.4954  -20.6273  -46.8955 C.2       13 UNK         0.5000 
     78 O          -5.9596  -21.4570  -47.6800 O.2       13 UNK        -0.5000 
     79 N          -4.5275  -19.7552  -47.2251 N.am      14 UNK        -0.5000 
     80 CA         -3.8695  -19.5736  -48.5274 C.3       14 UNK         0.1400 
     81 CB         -4.8422  -18.9028  -49.5168 C.3       14 UNK        -0.1800 
     82 C          -3.2334  -20.8579  -49.1067 C.2       14 UNK         0.5000 
     83 O          -3.0816  -20.9720  -50.3224 O.2       14 UNK        -0.5000 
     84 N          -2.9009  -21.8130  -48.2247 N.am      15 UNK        -0.5000 
     85 CA         -2.4391  -23.1711  -48.5152 C.3       15 UNK         0.1400 
     86 CB         -0.9922  -23.1507  -49.0418 C.3       15 UNK        -0.1800 
     87 C          -3.4306  -23.9930  -49.3714 C.2       15 UNK         0.5000 
     88 O          -3.0146  -24.8585  -50.1446 O.2       15 UNK        -0.5000 
     89 N          -4.7332  -23.7225  -49.1862 N.am      16 UNK        -0.5000 
     90 CA         -5.8805  -24.3804  -49.8123 C.3       16 UNK         0.1400 
     91 CB         -6.0543  -25.8054  -49.2400 C.3       16 UNK        -0.1800 
     92 C          -5.8134  -24.3180  -51.3521 C.2       16 UNK         0.5000 
     93 O          -5.8678  -23.2234  -51.9134 O.2       16 UNK        -0.5000 
     94 N          -5.6839  -25.4785  -52.0099 N.am      17 UNK        -0.5000 
     95 CA         -5.6184  -25.6311  -53.4658 C.3       17 UNK         0.1400 
     96 CB         -5.6180  -27.1284  -53.8089 C.3       17 UNK        -0.1800 
     97 C          -4.4167  -24.9275  -54.1273 C.2       17 UNK         0.5000 
     98 O          -4.4917  -24.5985  -55.3121 O.2       17 UNK        -0.5000 
     99 N          -3.3457  -24.6774  -53.3588 N.am      18 UNK        -0.5000 
    100 CA        -2.1580  -23.9522  -53.8125 C.3       18 UNK         0.1400 
    101 CB        -1.0303  -24.1188  -52.7878 C.3       18 UNK        -0.1800 
    102 C         -2.4137  -22.4600  -54.0966 C.2       18 UNK         0.5000 
    103 O         -1.6117  -21.8488  -54.8011 O.2       18 UNK        -0.5000 
    104 N         -3.5283  -21.8978  -53.6017 N.am      19 UNK        -0.5000 
    105 CA        -3.9540  -20.5165  -53.8514 C.3       19 UNK         0.1400 
    106 CB        -5.2715  -20.2466  -53.1123 C.3       19 UNK        -0.1800 
    107 C         -4.1064  -20.1807  -55.3483 C.2       19 UNK         0.5000 
    108 O         -3.8247  -19.0513  -55.7489 O.2       19 UNK        -0.5000 
    109 N         -4.4962  -21.1803  -56.1527 N.am      20 UNK        -0.5000 
    110 CA        -4.5933  -21.0918  -57.6097 C.3       20 UNK         0.1400 
    111 CB        -5.3429  -22.3264  -58.1330 C.3       20 UNK        -0.1800 
    112 C         -3.2257  -20.9539  -58.3098 C.2       20 UNK         0.5000 
    113 O         -3.1669  -20.3848  -59.4005 O.2       20 UNK        -0.5000 
    114 N         -2.1587  -21.4668  -57.6813 N.am      21 UNK        -0.5000 
    115 CA        -0.7807  -21.3339  -58.1512 C.3       21 UNK         0.1400 
    116 CB         0.0315  -22.5686  -57.7277 C.3       21 UNK        -0.1800 
    117 C         -0.1385  -20.0422  -57.6180 C.2       21 UNK         0.5000 
    118 O          0.5567  -19.3593  -58.3715 O.2       21 UNK        -0.5000 
    119 N         -0.3863  -19.7279  -56.3388 N.am      22 UNK        -0.5000 
    120 CA         0.0911  -18.5060  -55.6718 C.3       22 UNK         0.1400 
    121 C         -0.5375  -17.1972  -56.2292 C.2       22 UNK         0.5000 
    122 N         -1.8134  -17.1835  -56.5950 N.am      22 UNK        -0.7600 
    123 O          0.1440  -16.1810  -56.3329 O.2       22 UNK        -0.5000 
    124 C124       -0.0920  -18.5678  -54.1361 C.3       23 UNK        -0.0398 
    125 S125        0.8465  -19.9219  -53.3509 S.3       23 UNK        -0.2404 
    126 C126       -0.1859  -20.2850  -51.8942 C.3       23 UNK        -0.0205 
    127 H127       -8.0117  -14.9754  -46.2702 H         1 UNK         0.0600 
    128 H128       -7.8935  -16.3749  -45.1981 H         1 UNK         0.0600 
    129 H129       -8.0922  -16.6092  -46.9377 H         1 UNK         0.0600 
    130 H130       -6.0463  -14.0251  -46.6740 H         1 UNK         0.3000 
    131 H131       -3.9754  -13.6235  -47.1292 H         1 UNK         0.0600 
    132 H132       -4.2056  -15.8276  -48.6245 H         1 UNK         0.0800 
    133 H133       -3.0426  -16.4907  -47.5146 H         1 UNK         0.0800 
    134 H134       -1.5074  -15.2658  -51.0944 H         1 UNK         0.0800 
    135 H135       -2.8880  -16.1985  -50.5838 H         1 UNK         0.0800 
    136 H136       -1.7927  -18.0930  -51.7124 H         1 UNK         0.1150 
    137 H137        1.5392  -19.9885  -49.8050 H         1 UNK         0.1150 
    138 H138        0.1001  -16.2334  -48.3395 H         1 UNK         0.1150 
    139 H139        2.9679  -18.3077  -48.3800 H         1 UNK         0.0800 
    140 H140        2.0997  -17.1462  -47.4139 H         1 UNK         0.0800 
    141 H141        0.0722  -17.7622  -46.1254 H         1 UNK         0.0800 
    142 H142        0.6656  -18.5476  -44.6726 H         1 UNK         0.0800 
    143 H143       -1.2079  -19.7987  -46.7364 H         1 UNK         0.0600 
    144 H144        0.3678  -21.0950  -44.8302 H         1 UNK         0.3000 
    145 H145       -1.6749  -23.5744  -43.5481 H         1 UNK         0.0600 
    146 H146       -0.0585  -25.1881  -44.5835 H         1 UNK         0.0600 
    147 H147       -1.2738  -24.6730  -45.7381 H         1 UNK         0.0600 
    148 H148        0.3504  -23.9960  -45.8167 H         1 UNK         0.0600 
    149 H149        1.1208  -23.3891  -43.4397 H         1 UNK         0.3000 
    150 H150        1.5682  -20.6383  -41.2852 H         1 UNK         0.0600 
    151 H151        0.8665  -22.3436  -39.6480 H         1 UNK         0.0600 
    152 H152        2.6192  -22.3005  -39.7651 H         1 UNK         0.0600 
    153 H153        1.7123  -23.6030  -40.5334 H         1 UNK         0.0600 
    154 H154        3.2988  -20.9280  -42.5631 H         1 UNK         0.3000 
    155 H155        5.3060  -23.6080  -43.4988 H         1 UNK         0.0600 
    156 H156        3.8447  -21.8212  -45.5250 H         1 UNK         0.0600 
    157 H157        3.9110  -23.5784  -45.5791 H         1 UNK         0.0600 
    158 H158        5.3818  -22.6440  -45.7934 H         1 UNK         0.0600 
    159 H159        5.4888  -20.8003  -44.0221 H         1 UNK         0.3000 
    160 H160        6.1158  -19.5418  -40.9129 H         1 UNK         0.0600 
    161 H161        8.5138  -20.2296  -42.6961 H         1 UNK         0.0600 
    162 H162        8.3661  -20.6346  -40.9904 H         1 UNK         0.0600 
    163 H163        8.4577  -18.9519  -41.4804 H         1 UNK         0.0600 
    164 H164        6.9293  -18.4396  -43.3618 H         1 UNK         0.3000 
    165 H165        5.4645  -16.5826  -44.0586 H         1 UNK         0.0600 
    166 H166        5.0965  -17.2994  -46.4639 H         1 UNK         0.0600 
    167 H167        6.2947  -18.2858  -45.6478 H         1 UNK         0.0600 
    168 H168        4.6722  -18.9139  -45.9011 H         1 UNK         0.0600 
    169 H169        2.8036  -17.5947  -44.8975 H         1 UNK         0.3000 
    170 H170        1.0804  -16.2313  -44.8719 H         1 UNK         0.0600 
    171 H171        0.8453  -15.6075  -41.8843 H         1 UNK         0.0600 
    172 H172       -0.4092  -16.2539  -42.9426 H         1 UNK         0.0600 
    173 H173        0.9849  -17.2366  -42.5330 H         1 UNK         0.0600 
    174 H174        0.4850  -13.8304  -43.5029 H         1 UNK         0.3000 
    175 H175        1.4750  -11.5112  -45.0907 H         1 UNK         0.0600 
    176 H176       -0.3345  -12.4719  -47.3732 H         1 UNK         0.0600 
    177 H177       -0.0143  -10.7824  -46.9827 H         1 UNK         0.0600 
    178 H178        1.2904  -11.8147  -47.5425 H         1 UNK         0.0600 
    179 H179       -1.2113  -12.7864  -44.8433 H         1 UNK         0.3000 
    180 H180       -1.9509  -10.9872  -41.9818 H         1 UNK         0.0600 
    181 H181       -3.9819   -9.9955  -43.0199 H         1 UNK         0.0600 
    182 H182       -3.2633  -10.1475  -44.6242 H         1 UNK         0.0600 
    183 H183       -2.5608   -9.0537  -43.4387 H         1 UNK         0.0600 
    184 H184       -3.6428  -12.4308  -43.8093 H         1 UNK         0.3000 
    185 H185       -2.6391  -15.6798  -42.9594 H         1 UNK         0.0600 
    186 H186       -4.9843  -15.9780  -42.1655 H         1 UNK         0.0600 
    187 H187       -4.0161  -15.1643  -40.9468 H         1 UNK         0.0600 
    188 H188       -5.1422  -14.2381  -41.9319 H         1 UNK         0.0600 
    189 H189       -4.9139  -14.8659  -44.3797 H         1 UNK         0.3000 
    190 H190       -1.8068  -20.0504  -43.2777 H         1 UNK         0.3000 
    191 H191       -3.5098  -17.7947  -42.9322 H         1 UNK         0.0600 
    192 H192       -4.3123  -19.0777  -40.9471 H         1 UNK         0.0600 
    193 H193       -2.5583  -19.0994  -41.0474 H         1 UNK         0.0600 
    194 H194       -3.4861  -20.5183  -41.5321 H         1 UNK         0.0600 
    195 H195       -4.0039  -20.7142  -44.7318 H         1 UNK         0.3000 
    196 H196       -6.7711  -19.8412  -45.3870 H         1 UNK         0.0600 
    197 H197       -5.8336  -22.7470  -45.0539 H         1 UNK         0.0600 
    198 H198       -6.9082  -21.8986  -43.9424 H         1 UNK         0.0600 
    199 H199       -7.4306  -22.2279  -45.5860 H         1 UNK         0.0600 
    200 H200       -4.2602  -19.0726  -46.5205 H         1 UNK         0.3000 
    201 H201       -3.0440  -18.8814  -48.3571 H         1 UNK         0.0600 
    202 H202       -4.3324  -18.6189  -50.4382 H         1 UNK         0.0600 
    203 H203       -5.2730  -17.9964  -49.0923 H         1 UNK         0.0600 
    204 H204       -5.6633  -19.5688  -49.7837 H         1 UNK         0.0600 
    205 H205       -3.0620  -21.6302  -47.2399 H         1 UNK         0.3000 
    206 H206       -2.4187  -23.6872  -47.5561 H         1 UNK         0.0600 
    207 H207       -0.3167  -22.7230  -48.3007 H         1 UNK         0.0600 
    208 H208       -0.6315  -24.1548  -49.2673 H         1 UNK         0.0600 
    209 H209       -0.9053  -22.5521  -49.9449 H         1 UNK         0.0600 
    210 H210       -4.9748  -22.9413  -48.5831 H         1 UNK         0.3000 
    211 H211       -6.7588  -23.8006  -49.5247 H         1 UNK         0.0600 
    212 H212       -6.9415  -26.2902  -49.6496 H         1 UNK         0.0600 
    213 H213       -6.1814  -25.7734  -48.1578 H         1 UNK         0.0600 
    214 H214       -5.1954  -26.4441  -49.4490 H         1 UNK         0.0600 
    215 H215       -5.6175  -26.3270  -51.4669 H         1 UNK         0.3000 
    216 H216       -6.5226  -25.1845  -53.8843 H         1 UNK         0.0600 
    217 H217       -4.7482  -27.6361  -53.3900 H         1 UNK         0.0600 
    218 H218       -5.5997  -27.2825  -54.8887 H         1 UNK         0.0600 
    219 H219       -6.5122  -27.6218  -53.4276 H         1 UNK         0.0600 
    220 H220       -3.3684  -24.9465  -52.3819 H         1 UNK         0.3000 
    221 H221       -1.8276  -24.4043  -54.7500 H         1 UNK         0.0600 
    222 H222       -0.8016  -25.1700  -52.6130 H         1 UNK         0.0600 
    223 H223       -1.3020  -23.6697  -51.8359 H         1 UNK         0.0600 
    224 H224       -0.1141  -23.6348  -53.1293 H         1 UNK         0.0600 
    225 H225       -4.1408  -22.4550  -53.0170 H         1 UNK         0.3000 
    226 H226       -3.1911  -19.8568  -53.4366 H         1 UNK         0.0600 
    227 H227       -6.0833  -20.8634  -53.4998 H         1 UNK         0.0600 
    228 H228       -5.1751  -20.4577  -52.0479 H         1 UNK         0.0600 
    229 H229       -5.5710  -19.2028  -53.2128 H         1 UNK         0.0600 
    230 H230       -4.6816  -22.0852  -55.7410 H         1 UNK         0.3000 
    231 H231       -5.1803  -20.2047  -57.8564 H         1 UNK         0.0600 
    232 H232       -4.8115  -23.2491  -57.8956 H         1 UNK         0.0600 
    233 H233       -5.4597  -22.2833  -59.2166 H         1 UNK         0.0600 
    234 H234       -6.3416  -22.3943  -57.7014 H         1 UNK         0.0600 
    235 H235       -2.2777  -21.8600  -56.7559 H         1 UNK         0.3000 
    236 H236       -0.7705  -21.2902  -59.2424 H         1 UNK         0.0600 
    237 H237        0.0964  -22.6648  -56.6437 H         1 UNK         0.0600 
    238 H238       -0.4117  -23.4844  -58.1191 H         1 UNK         0.0600 
    239 H239        1.0510  -22.5110  -58.1107 H         1 UNK         0.0600 
    240 H240       -0.9099  -20.3831  -55.7652 H         1 UNK         0.3000 
    241 H241        1.1633  -18.4382  -55.8665 H         1 UNK         0.0600 
    242 H242       -2.2099  -16.3331  -56.9611 H         1 UNK         0.3800 
    243 H243       -2.4192  -17.9839  -56.4341 H         1 UNK         0.3800 
    244 H244       -1.1507  -18.6782  -53.9011 H         1 UNK         0.0800 
    245 H245        0.2331  -17.6352  -53.6707 H         1 UNK         0.0800 
    246 H246       -1.2137  -20.4745  -52.2021 H         1 UNK         0.0800 
    247 H247        0.1722  -21.2120  -51.4474 H         1 UNK         0.0800 
@<TRIPOS>BOND
     1    1    2 1    
     2    1  127 1    
     3    1  128 1    
     4    1  129 1    
     5    2    3 2    
     6    2    4 am   BACKBONE|DICT|INTERRES
     7    4    5 1    
     8    4  130 1    
     9    5    6 1    
    10    5   65 1    
    11    5  131 1    
    12    6    7 1    
    13    6  132 1    
    14    6  133 1    
    15    7    8 1    
    16    8    9 1    
    17    8  134 1    
    18    8  135 1    
    19    9   10 ar   
    20    9   14 ar   
    21   10   11 ar   
    22   10  136 1    
    23   11   12 ar   
    24   11  126 1    
    25   12   13 ar   
    26   12  137 1    
    27   13   14 ar   
    28   13   15 1    
    29   14  138 1    
    30   15   16 1    
    31   15  139 1    
    32   15  140 1    
    33   16   17 1    
    34   17   18 1    
    35   17  141 1    
    36   17  142 1    
    37   18   19 1    
    38   18   67 1    
    39   18  143 1    
    40   19   20 am   BACKBONE|DICT|INTERRES
    41   19  144 1    
    42   20   21 2    
    43   20   22 1    
    44   22   23 1    
    45   22   24 1    
    46   22  145 1    
    47   23  146 1    
    48   23  147 1    
    49   23  148 1    
    50   24   25 am   BACKBONE|DICT|INTERRES
    51   24  149 1    
    52   25   26 2    
    53   25   27 1    
    54   27   28 1    
    55   27   29 1    
    56   27  150 1    
    57   28  151 1    
    58   28  152 1    
    59   28  153 1    
    60   29   30 am   BACKBONE|DICT|INTERRES
    61   29  154 1    
    62   30   31 2    
    63   30   32 1    
    64   32   33 1    
    65   32   34 1    
    66   32  155 1    
    67   33  156 1    
    68   33  157 1    
    69   33  158 1    
    70   34   35 am   BACKBONE|DICT|INTERRES
    71   34  159 1    
    72   35   36 2    
    73   35   37 1    
    74   37   38 1    
    75   37   39 1    
    76   37  160 1    
    77   38  161 1    
    78   38  162 1    
    79   38  163 1    
    80   39   40 am   BACKBONE|DICT|INTERRES
    81   39  164 1    
    82   40   41 2    
    83   40   42 1    
    84   42   43 1    
    85   42   44 1    
    86   42  165 1    
    87   43  166 1    
    88   43  167 1    
    89   43  168 1    
    90   44   45 am   BACKBONE|DICT|INTERRES
    91   44  169 1    
    92   45   46 2    
    93   45   47 1    
    94   47   48 1    
    95   47   49 1    
    96   47  170 1    
    97   48  171 1    
    98   48  172 1    
    99   48  173 1    
   100   49   50 am   BACKBONE|DICT|INTERRES
   101   49  174 1    
   102   50   51 2    
   103   50   52 1    
   104   52   53 1    
   105   52   54 1    
   106   52  175 1    
   107   53  176 1    
   108   53  177 1    
   109   53  178 1    
   110   54   55 am   BACKBONE|DICT|INTERRES
   111   54  179 1    
   112   55   56 2    
   113   55   57 1    
   114   57   58 1    
   115   57   59 1    
   116   57  180 1    
   117   58  181 1    
   118   58  182 1    
   119   58  183 1    
   120   59   60 am   BACKBONE|DICT|INTERRES
   121   59  184 1    
   122   60   61 2    
   123   60   62 1    
   124   62   63 1    
   125   62   64 1    
   126   62  185 1    
   127   63  186 1    
   128   63  187 1    
   129   63  188 1    
   130   64   65 am   BACKBONE|DICT|INTERRES
   131   64  189 1    
   132   65   66 2    
   133   67   68 2    
   134   67   69 am   BACKBONE|DICT|INTERRES
   135   69   70 1    
   136   69  190 1    
   137   70   71 1    
   138   70   72 1    
   139   70  191 1    
   140   71  192 1    
   141   71  193 1    
   142   71  194 1    
   143   72   73 2    
   144   72   74 am   BACKBONE|DICT|INTERRES
   145   74   75 1    
   146   74  195 1    
   147   75   76 1    
   148   75   77 1    
   149   75  196 1    
   150   76  197 1    
   151   76  198 1    
   152   76  199 1    
   153   77   78 2    
   154   77   79 am   BACKBONE|DICT|INTERRES
   155   79   80 1    
   156   79  200 1    
   157   80   81 1    
   158   80   82 1    
   159   80  201 1    
   160   81  202 1    
   161   81  203 1    
   162   81  204 1    
   163   82   83 2    
   164   82   84 am   BACKBONE|DICT|INTERRES
   165   84   85 1    
   166   84  205 1    
   167   85   86 1    
   168   85   87 1    
   169   85  206 1    
   170   86  207 1    
   171   86  208 1    
   172   86  209 1    
   173   87   88 2    
   174   87   89 am   BACKBONE|DICT|INTERRES
   175   89   90 1    
   176   89  210 1    
   177   90   91 1    
   178   90   92 1    
   179   90  211 1    
   180   91  212 1    
   181   91  213 1    
   182   91  214 1    
   183   92   93 2    
   184   92   94 am   BACKBONE|DICT|INTERRES
   185   94   95 1    
   186   94  215 1    
   187   95   96 1    
   188   95   97 1    
   189   95  216 1    
   190   96  217 1    
   191   96  218 1    
   192   96  219 1    
   193   97   98 2    
   194   97   99 am   BACKBONE|DICT|INTERRES
   195   99  100 1    
   196   99  220 1    
   197  100  101 1    
   198  100  102 1    
   199  100  221 1    
   200  101  222 1    
   201  101  223 1    
   202  101  224 1    
   203  102  103 2    
   204  102  104 am   BACKBONE|DICT|INTERRES
   205  104  105 1    
   206  104  225 1    
   207  105  106 1    
   208  105  107 1    
   209  105  226 1    
   210  106  227 1    
   211  106  228 1    
   212  106  229 1    
   213  107  108 2    
   214  107  109 am   BACKBONE|DICT|INTERRES
   215  109  110 1    
   216  109  230 1    
   217  110  111 1    
   218  110  112 1    
   219  110  231 1    
   220  111  232 1    
   221  111  233 1    
   222  111  234 1    
   223  112  113 2    
   224  112  114 am   BACKBONE|DICT|INTERRES
   225  114  115 1    
   226  114  235 1    
   227  115  116 1    
   228  115  117 1    
   229  115  236 1    
   230  116  237 1    
   231  116  238 1    
   232  116  239 1    
   233  117  118 2    
   234  117  119 am   BACKBONE|DICT|INTERRES
   235  119  120 1    
   236  119  240 1    
   237  120  121 1    
   238  120  124 1    
   239  120  241 1    
   240  121  122 am   BACKBONE|DICT|INTERRES
   241  121  123 2    
   242  122  242 1    
   243  122  243 1    
   244  124  125 1    
   245  124  244 1    
   246  124  245 1    
   247  125  126 1    
   248  126  246 1    
   249  126  247 1    
@<TRIPOS>SUBSTRUCTURE
     1 UNK         1 GROUP             0       ****    0 ROOT    
