@<TRIPOS>MOLECULE
3R540
247   249    1
SMALL
USER_CHARGES


@<TRIPOS>ATOM
      1 CA         -0.9671  -15.1410  -50.0325 C.3       0 UNK        -0.1800 
      2 C           0.2168  -14.2318  -49.7327 C.2       0 UNK         0.5000 
      3 O           0.6730  -13.5124  -50.6219 O.2       0 UNK        -0.5000 
      4 N           0.7209  -14.2618  -48.4927 N.am      1 UNK        -0.5000 
      5 CA          1.8430  -13.4342  -48.0367 C.3       1 UNK         0.1400 
      6 C6          2.5888  -14.0399  -46.8164 C.3       23 UNK        -0.0398 
      7 S7          2.9482  -15.8163  -46.9832 S.3       23 UNK        -0.2404 
      8 C8          4.4466  -15.8175  -48.0009 C.3       23 UNK        -0.0205 
      9 C9          4.5535  -17.1325  -48.7520 C.ar      23 UNK        -0.0193 
     10 C10         3.9662  -17.2607  -50.0121 C.ar      23 UNK        -0.1150 
     11 C11         4.0492  -18.4642  -50.7152 C.ar      23 UNK        -0.0193 
     12 C12         4.7324  -19.5455  -50.1493 C.ar      23 UNK        -0.1150 
     13 C13         5.3202  -19.4332  -48.8827 C.ar      23 UNK        -0.0193 
     14 C14         5.2242  -18.2218  -48.1898 C.ar      23 UNK        -0.1150 
     15 C15         6.0992  -20.5936  -48.2692 C.3       23 UNK        -0.0205 
     16 S16         5.2141  -22.1863  -48.3267 S.3       23 UNK        -0.2404 
     17 C17         3.7257  -21.8216  -47.3370 C.3       23 UNK        -0.0398 
     18 CA          3.2108  -23.0433  -46.5347 C.3       11 UNK         0.1400 
     19 N           2.2166  -22.6476  -45.5318 N.am      11 UNK        -0.5000 
     20 C           1.8105  -23.4132  -44.5083 C.2       10 UNK         0.5000 
     21 O           2.3341  -24.4874  -44.2114 O.2       10 UNK        -0.5000 
     22 CA          0.6259  -22.8969  -43.6667 C.3       10 UNK         0.1400 
     23 CB          1.1317  -22.1042  -42.4519 C.3       10 UNK        -0.1800 
     24 N          -0.3012  -22.0628  -44.4323 N.am      10 UNK        -0.5000 
     25 C          -1.1672  -22.5207  -45.3479 C.2       9 UNK         0.5000 
     26 O          -1.3453  -23.7128  -45.5882 O.2       9 UNK        -0.5000 
     27 CA         -1.9449  -21.4660  -46.1573 C.3       9 UNK         0.1400 
     28 CB         -3.2212  -21.0416  -45.4173 C.3       9 UNK        -0.1800 
     29 N          -1.1367  -20.2826  -46.4511 N.am      9 UNK        -0.5000 
     30 C          -0.0364  -20.2811  -47.2160 C.2       8 UNK         0.5000 
     31 O           0.3887  -21.2789  -47.7944 O.2       8 UNK        -0.5000 
     32 CA          0.7531  -18.9645  -47.2968 C.3       8 UNK         0.1400 
     33 CB          0.2028  -18.0580  -48.4047 C.3       8 UNK        -0.1800 
     34 N           0.7441  -18.2561  -46.0165 N.am      8 UNK        -0.5000 
     35 C           1.4573  -18.6355  -44.9472 C.2       7 UNK         0.5000 
     36 O           2.2283  -19.5951  -44.9502 O.2       7 UNK        -0.5000 
     37 CA          1.2252  -17.8517  -43.6407 C.3       7 UNK         0.1400 
     38 CB          2.1108  -16.6002  -43.5646 C.3       7 UNK        -0.1800 
     39 N          -0.1740  -17.4634  -43.4639 N.am      7 UNK        -0.5000 
     40 C          -1.1615  -18.3287  -43.1944 C.2       6 UNK         0.5000 
     41 O          -0.9816  -19.5349  -43.0332 O.2       6 UNK        -0.5000 
     42 CA         -2.5934  -17.7626  -43.1328 C.3       6 UNK         0.1400 
     43 CB         -2.9289  -17.3099  -41.7042 C.3       6 UNK        -0.1800 
     44 N          -2.8262  -16.6489  -44.0540 N.am      6 UNK        -0.5000 
     45 C          -2.6936  -16.7004  -45.3876 C.2       5 UNK         0.5000 
     46 O          -2.3646  -17.7153  -45.9988 O.2       5 UNK        -0.5000 
     47 CA         -2.9176  -15.3874  -46.1622 C.3       5 UNK         0.1400 
     48 CB         -4.3397  -15.3382  -46.7383 C.3       5 UNK        -0.1800 
     49 N          -2.6756  -14.1923  -45.3472 N.am      5 UNK        -0.5000 
     50 C          -1.4699  -13.8269  -44.8927 C.2       4 UNK         0.5000 
     51 O          -0.4269  -14.4292  -45.1620 O.2       4 UNK        -0.5000 
     52 CA         -1.4397  -12.6491  -43.9102 C.3       4 UNK         0.1400 
     53 CB         -1.7780  -13.1558  -42.4920 C.3       4 UNK        -0.1800 
     54 N          -0.1108  -12.0467  -43.9429 N.am      4 UNK        -0.5000 
     55 C           0.2692  -10.9231  -43.3224 C.2       3 UNK         0.5000 
     56 O          -0.4776  -10.2290  -42.6315 O.2       3 UNK        -0.5000 
     57 CA          1.7334  -10.4926  -43.5264 C.3       3 UNK         0.1400 
     58 CB          2.6955  -11.4482  -42.8012 C.3       3 UNK        -0.1800 
     59 N           2.0936  -10.4220  -44.9420 N.am      3 UNK        -0.5000 
     60 C           1.6350   -9.5016  -45.8035 C.2       2 UNK         0.5000 
     61 O           0.9102   -8.5600  -45.4799 O.2       2 UNK        -0.5000 
     62 CA          2.0513   -9.6628  -47.2806 C.3       2 UNK         0.1400 
     63 CB          3.3035   -8.8250  -47.5817 C.3       2 UNK        -0.1800 
     64 N           2.3013  -11.0554  -47.6670 N.am      2 UNK        -0.5000 
     65 C           1.3593  -12.0078  -47.7063 C.2       1 UNK         0.5000 
     66 O           0.1713  -11.7986  -47.4459 O.2       1 UNK        -0.5000 
     67 C           2.6413  -24.1484  -47.4536 C.2       11 UNK         0.5000 
     68 O           3.3078  -25.1573  -47.6931 O.2       11 UNK        -0.5000 
     69 N           1.4031  -23.9436  -47.9199 N.am      12 UNK        -0.5000 
     70 CA          0.5964  -24.9075  -48.6631 C.3       12 UNK         0.1400 
     71 CB         -0.5030  -24.1265  -49.4096 C.3       12 UNK        -0.1800 
     72 C          -0.0049  -25.9945  -47.7427 C.2       12 UNK         0.5000 
     73 O           0.3144  -26.0709  -46.5548 O.2       12 UNK        -0.5000 
     74 N          -0.8995  -26.8138  -48.3056 N.am      13 UNK        -0.5000 
     75 CA         -1.7259  -27.7759  -47.5761 C.3       13 UNK         0.1400 
     76 CB         -1.8022  -29.0805  -48.3904 C.3       13 UNK        -0.1800 
     77 C          -3.1104  -27.1509  -47.3169 C.2       13 UNK         0.5000 
     78 O          -4.1194  -27.6621  -47.8075 O.2       13 UNK        -0.5000 
     79 N          -3.1247  -26.0074  -46.6136 N.am      14 UNK        -0.5000 
     80 CA         -4.2533  -25.1013  -46.3519 C.3       14 UNK         0.1400 
     81 CB         -5.4194  -25.8037  -45.6305 C.3       14 UNK        -0.1800 
     82 C          -4.7272  -24.3559  -47.6126 C.2       14 UNK         0.5000 
     83 O          -4.7719  -23.1249  -47.6091 O.2       14 UNK        -0.5000 
     84 N          -5.0484  -25.1153  -48.6691 N.am      15 UNK        -0.5000 
     85 CA         -5.3743  -24.6742  -50.0281 C.3       15 UNK         0.1400 
     86 CB         -4.0902  -24.1996  -50.7350 C.3       15 UNK        -0.1800 
     87 C          -6.5109  -23.6342  -50.0873 C.2       15 UNK         0.5000 
     88 O          -6.4020  -22.6485  -50.8165 O.2       15 UNK        -0.5000 
     89 N          -7.5679  -23.8649  -49.2935 N.am      16 UNK        -0.5000 
     90 CA         -8.7396  -22.9954  -49.1240 C.3       16 UNK         0.1400 
     91 CB         -9.5784  -22.9559  -50.4197 C.3       16 UNK        -0.1800 
     92 C          -8.3588  -21.5915  -48.6041 C.2       16 UNK         0.5000 
     93 O          -8.8254  -20.5841  -49.1364 O.2       16 UNK        -0.5000 
     94 N          -7.4825  -21.5650  -47.5879 N.am      17 UNK        -0.5000 
     95 CA         -6.8398  -20.3822  -47.0032 C.3       17 UNK         0.1400 
     96 CB         -7.8681  -19.4605  -46.3145 C.3       17 UNK        -0.1800 
     97 C          -5.9558  -19.6561  -48.0372 C.2       17 UNK         0.5000 
     98 O          -6.0967  -18.4512  -48.2481 O.2       17 UNK        -0.5000 
     99 N          -5.0848  -20.4424  -48.6851 N.am      18 UNK        -0.5000 
    100 CA        -4.1248  -20.0803  -49.7338 C.3       18 UNK         0.1400 
    101 CB        -3.1588  -18.9824  -49.2515 C.3       18 UNK        -0.1800 
    102 C         -4.7362  -19.7022  -51.0976 C.2       18 UNK         0.5000 
    103 O         -3.9711  -19.4799  -52.0367 O.2       18 UNK        -0.5000 
    104 N         -6.0697  -19.6500  -51.2169 N.am      19 UNK        -0.5000 
    105 CA        -6.7931  -19.2429  -52.4244 C.3       19 UNK         0.1400 
    106 CB        -8.2910  -19.1363  -52.1056 C.3       19 UNK        -0.1800 
    107 C         -6.5665  -20.1645  -53.6382 C.2       19 UNK         0.5000 
    108 O         -6.5717  -19.6805  -54.7707 O.2       19 UNK        -0.5000 
    109 N         -6.3537  -21.4622  -53.3857 N.am      20 UNK        -0.5000 
    110 CA        -6.0117  -22.4621  -54.3994 C.3       20 UNK         0.1400 
    111 CB        -6.6492  -23.8063  -54.0091 C.3       20 UNK        -0.1800 
    112 C         -4.4876  -22.6043  -54.6009 C.2       20 UNK         0.5000 
    113 O         -4.0694  -23.3768  -55.4648 O.2       20 UNK        -0.5000 
    114 N         -3.6887  -21.8757  -53.8102 N.am      21 UNK        -0.5000 
    115 CA        -2.2334  -21.8060  -53.8944 C.3       21 UNK         0.1400 
    116 CB        -1.6287  -22.1685  -52.5210 C.3       21 UNK        -0.1800 
    117 C         -1.8311  -20.4105  -54.4115 C.2       21 UNK         0.5000 
    118 O         -2.3988  -19.9447  -55.4021 O.2       21 UNK        -0.5000 
    119 N         -0.8498  -19.7774  -53.7600 N.am      22 UNK        -0.5000 
    120 CA        -0.2954  -18.4641  -54.1194 C.3       22 UNK         0.1400 
    121 C         -1.0986  -17.2310  -53.6056 C.2       22 UNK         0.5000 
    122 N         -2.2122  -17.3886  -52.9013 N.am      22 UNK        -0.7600 
    123 O         -0.7142  -16.0963  -53.8748 O.2       22 UNK        -0.5000 
    124 C124        1.2151  -18.3820  -53.7765 C.3       23 UNK        -0.0398 
    125 S125        1.6096  -18.6594  -52.0149 S.3       23 UNK        -0.2404 
    126 C126        3.4252  -18.5715  -52.0973 C.3       23 UNK        -0.0205 
    127 H127       -0.6524  -15.9616  -50.6778 H         1 UNK         0.0600 
    128 H128       -1.7508  -14.5841  -50.5459 H         1 UNK         0.0600 
    129 H129       -1.3947  -15.5656  -49.1266 H         1 UNK         0.0600 
    130 H130        0.2956  -14.8364  -47.7801 H         1 UNK         0.3000 
    131 H131        2.5603  -13.3585  -48.8566 H         1 UNK         0.0600 
    132 H132        3.5266  -13.5121  -46.6357 H         1 UNK         0.0800 
    133 H133        2.0001  -13.9219  -45.9064 H         1 UNK         0.0800 
    134 H134        4.4216  -14.9891  -48.7100 H         1 UNK         0.0800 
    135 H135        5.3207  -15.6614  -47.3671 H         1 UNK         0.0800 
    136 H136        3.4370  -16.4234  -50.4458 H         1 UNK         0.1150 
    137 H137        4.8116  -20.4746  -50.6958 H         1 UNK         0.1150 
    138 H138        5.6755  -18.1211  -47.2126 H         1 UNK         0.1150 
    139 H139        7.0418  -20.6995  -48.8075 H         1 UNK         0.0800 
    140 H140        6.3616  -20.3792  -47.2319 H         1 UNK         0.0800 
    141 H141        2.9593  -21.4302  -48.0061 H         1 UNK         0.0800 
    142 H142        3.9645  -21.0108  -46.6470 H         1 UNK         0.0800 
    143 H143        4.0601  -23.4687  -45.9954 H         1 UNK         0.0600 
    144 H144        1.7676  -21.7520  -45.6680 H         1 UNK         0.3000 
    145 H145        0.0784  -23.7677  -43.2999 H         1 UNK         0.0600 
    146 H146        0.3055  -21.7964  -41.8107 H         1 UNK         0.0600 
    147 H147        1.8076  -22.7076  -41.8447 H         1 UNK         0.0600 
    148 H148        1.6728  -21.2070  -42.7536 H         1 UNK         0.0600 
    149 H149       -0.2892  -21.0690  -44.2314 H         1 UNK         0.3000 
    150 H150       -2.2348  -21.9145  -47.1099 H         1 UNK         0.0600 
    151 H151       -3.9095  -21.8802  -45.3141 H         1 UNK         0.0600 
    152 H152       -3.7441  -20.2509  -45.9543 H         1 UNK         0.0600 
    153 H153       -3.0027  -20.6780  -44.4145 H         1 UNK         0.0600 
    154 H154       -1.4626  -19.3981  -46.0714 H         1 UNK         0.3000 
    155 H155        1.7864  -19.2096  -47.5527 H         1 UNK         0.0600 
    156 H156        0.8652  -17.2127  -48.5848 H         1 UNK         0.0600 
    157 H157       -0.7837  -17.6695  -48.1565 H         1 UNK         0.0600 
    158 H158        0.1170  -18.6009  -49.3463 H         1 UNK         0.0600 
    159 H159        0.1012  -17.4837  -45.9243 H         1 UNK         0.3000 
    160 H160        1.5059  -18.5091  -42.8149 H         1 UNK         0.0600 
    161 H161        1.7934  -15.8405  -44.2778 H         1 UNK         0.0600 
    162 H162        3.1532  -16.8407  -43.7779 H         1 UNK         0.0600 
    163 H163        2.0753  -16.1550  -42.5703 H         1 UNK         0.0600 
    164 H164       -0.4017  -16.4913  -43.6182 H         1 UNK         0.3000 
    165 H165       -3.2804  -18.5649  -43.4065 H         1 UNK         0.0600 
    166 H166       -3.9682  -16.9905  -41.6247 H         1 UNK         0.0600 
    167 H167       -2.7857  -18.1244  -40.9928 H         1 UNK         0.0600 
    168 H168       -2.2965  -16.4802  -41.3854 H         1 UNK         0.0600 
    169 H169       -3.1045  -15.7728  -43.6394 H         1 UNK         0.3000 
    170 H170       -2.2116  -15.3778  -46.9930 H         1 UNK         0.0600 
    171 H171       -4.5345  -16.2071  -47.3690 H         1 UNK         0.0600 
    172 H172       -5.0945  -15.3293  -45.9512 H         1 UNK         0.0600 
    173 H173       -4.4849  -14.4518  -47.3559 H         1 UNK         0.0600 
    174 H174       -3.4878  -13.6519  -45.0852 H         1 UNK         0.3000 
    175 H175       -2.1717  -11.9038  -44.2270 H         1 UNK         0.0600 
    176 H176       -1.0354  -13.8710  -42.1353 H         1 UNK         0.0600 
    177 H177       -1.8276  -12.3404  -41.7711 H         1 UNK         0.0600 
    178 H178       -2.7487  -13.6523  -42.4705 H         1 UNK         0.0600 
    179 H179        0.5488  -12.5541  -44.5170 H         1 UNK         0.3000 
    180 H180        1.8546   -9.4979  -43.0918 H         1 UNK         0.0600 
    181 H181        2.6586  -12.4568  -43.2150 H         1 UNK         0.0600 
    182 H182        2.4478  -11.5195  -41.7413 H         1 UNK         0.0600 
    183 H183        3.7249  -11.0961  -42.8697 H         1 UNK         0.0600 
    184 H184        2.7041  -11.1427  -45.2941 H         1 UNK         0.3000 
    185 H185        1.2318   -9.2841  -47.8952 H         1 UNK         0.0600 
    186 H186        3.1414   -7.7761  -47.3292 H         1 UNK         0.0600 
    187 H187        4.1665   -9.1700  -47.0109 H         1 UNK         0.0600 
    188 H188        3.5612   -8.8662  -48.6401 H         1 UNK         0.0600 
    189 H189        3.2551  -11.2885  -47.9039 H         1 UNK         0.3000 
    190 H190        0.9447  -23.0647  -47.6944 H         1 UNK         0.3000 
    191 H191        1.2342  -25.4027  -49.3978 H         1 UNK         0.0600 
    192 H192       -1.2420  -23.7140  -48.7208 H         1 UNK         0.0600 
    193 H193       -0.0817  -23.2963  -49.9774 H         1 UNK         0.0600 
    194 H194       -1.0293  -24.7607  -50.1222 H         1 UNK         0.0600 
    195 H195       -1.1274  -26.6886  -49.2813 H         1 UNK         0.3000 
    196 H196       -1.2856  -28.0143  -46.6057 H         1 UNK         0.0600 
    197 H197       -0.8110  -29.5102  -48.5362 H         1 UNK         0.0600 
    198 H198       -2.2447  -28.9196  -49.3743 H         1 UNK         0.0600 
    199 H199       -2.4066  -29.8281  -47.8751 H         1 UNK         0.0600 
    200 H200       -2.2316  -25.6429  -46.2971 H         1 UNK         0.3000 
    201 H201       -3.8733  -24.3438  -45.6668 H         1 UNK         0.0600 
    202 H202       -6.1847  -25.0820  -45.3423 H         1 UNK         0.0600 
    203 H203       -5.0780  -26.2948  -44.7193 H         1 UNK         0.0600 
    204 H204       -5.9040  -26.5549  -46.2541 H         1 UNK         0.0600 
    205 H205       -4.9584  -26.1202  -48.5401 H         1 UNK         0.3000 
    206 H206       -5.7408  -25.5515  -50.5627 H         1 UNK         0.0600 
    207 H207       -3.3449  -24.9937  -50.7587 H         1 UNK         0.0600 
    208 H208       -3.6474  -23.3391  -50.2341 H         1 UNK         0.0600 
    209 H209       -4.2849  -23.9147  -51.7680 H         1 UNK         0.0600 
    210 H210       -7.5513  -24.6983  -48.7227 H         1 UNK         0.3000 
    211 H211       -9.3562  -23.4504  -48.3476 H         1 UNK         0.0600 
    212 H212       -9.8605  -23.9599  -50.7360 H         1 UNK         0.0600 
    213 H213      -10.5002  -22.3921  -50.2719 H         1 UNK         0.0600 
    214 H214       -9.0378  -22.4871  -51.2423 H         1 UNK         0.0600 
    215 H215       -7.1150  -22.4508  -47.2698 H         1 UNK         0.3000 
    216 H216       -6.1672  -20.7525  -46.2287 H         1 UNK         0.0600 
    217 H217       -7.3664  -18.6505  -45.7837 H         1 UNK         0.0600 
    218 H218       -8.5533  -19.0040  -47.0290 H         1 UNK         0.0600 
    219 H219       -8.4617  -20.0094  -45.5836 H         1 UNK         0.0600 
    220 H220       -5.0703  -21.4254  -48.4223 H         1 UNK         0.3000 
    221 H221       -3.5353  -20.9808  -49.9049 H         1 UNK         0.0600 
    222 H222       -2.3145  -18.8787  -49.9337 H         1 UNK         0.0600 
    223 H223       -3.6448  -18.0086  -49.1875 H         1 UNK         0.0600 
    224 H224       -2.7604  -19.2163  -48.2678 H         1 UNK         0.0600 
    225 H225       -6.6310  -19.8895  -50.4113 H         1 UNK         0.3000 
    226 H226       -6.4331  -18.2491  -52.6981 H         1 UNK         0.0600 
    227 H227       -8.4722  -18.4506  -51.2776 H         1 UNK         0.0600 
    228 H228       -8.8486  -18.7642  -52.9660 H         1 UNK         0.0600 
    229 H229       -8.7119  -20.1053  -51.8363 H         1 UNK         0.0600 
    230 H230       -6.3710  -21.7853  -52.4186 H         1 UNK         0.3000 
    231 H231       -6.4353  -22.1644  -55.3607 H         1 UNK         0.0600 
    232 H232       -6.5008  -24.5506  -54.7922 H         1 UNK         0.0600 
    233 H233       -7.7241  -23.7041  -53.8585 H         1 UNK         0.0600 
    234 H234       -6.2206  -24.2090  -53.0928 H         1 UNK         0.0600 
    235 H235       -4.1163  -21.1945  -53.1940 H         1 UNK         0.3000 
    236 H236       -1.8566  -22.5259  -54.6231 H         1 UNK         0.0600 
    237 H237       -1.9451  -21.4782  -51.7387 H         1 UNK         0.0600 
    238 H238       -1.9276  -23.1718  -52.2210 H         1 UNK         0.0600 
    239 H239       -0.5385  -22.1684  -52.5503 H         1 UNK         0.0600 
    240 H240       -0.4504  -20.2048  -52.9373 H         1 UNK         0.3000 
    241 H241       -0.3544  -18.3809  -55.2063 H         1 UNK         0.0600 
    242 H242       -2.7123  -16.5693  -52.6004 H         1 UNK         0.3800 
    243 H243       -2.6016  -18.3045  -52.7008 H         1 UNK         0.3800 
    244 H244        1.6256  -17.4180  -54.0823 H         1 UNK         0.0800 
    245 H245        1.7539  -19.1280  -54.3624 H         1 UNK         0.0800 
    246 H246        3.8036  -19.4481  -52.6253 H         1 UNK         0.0800 
    247 H247        3.7225  -17.7030  -52.6870 H         1 UNK         0.0800 
@<TRIPOS>BOND
     1    1    2 1    
     2    1  127 1    
     3    1  128 1    
     4    1  129 1    
     5    2    3 2    
     6    2    4 am   BACKBONE|DICT|INTERRES
     7    4    5 1    
     8    4  130 1    
     9    5    6 1    
    10    5   65 1    
    11    5  131 1    
    12    6    7 1    
    13    6  132 1    
    14    6  133 1    
    15    7    8 1    
    16    8    9 1    
    17    8  134 1    
    18    8  135 1    
    19    9   10 ar   
    20    9   14 ar   
    21   10   11 ar   
    22   10  136 1    
    23   11   12 ar   
    24   11  126 1    
    25   12   13 ar   
    26   12  137 1    
    27   13   14 ar   
    28   13   15 1    
    29   14  138 1    
    30   15   16 1    
    31   15  139 1    
    32   15  140 1    
    33   16   17 1    
    34   17   18 1    
    35   17  141 1    
    36   17  142 1    
    37   18   19 1    
    38   18   67 1    
    39   18  143 1    
    40   19   20 am   BACKBONE|DICT|INTERRES
    41   19  144 1    
    42   20   21 2    
    43   20   22 1    
    44   22   23 1    
    45   22   24 1    
    46   22  145 1    
    47   23  146 1    
    48   23  147 1    
    49   23  148 1    
    50   24   25 am   BACKBONE|DICT|INTERRES
    51   24  149 1    
    52   25   26 2    
    53   25   27 1    
    54   27   28 1    
    55   27   29 1    
    56   27  150 1    
    57   28  151 1    
    58   28  152 1    
    59   28  153 1    
    60   29   30 am   BACKBONE|DICT|INTERRES
    61   29  154 1    
    62   30   31 2    
    63   30   32 1    
    64   32   33 1    
    65   32   34 1    
    66   32  155 1    
    67   33  156 1    
    68   33  157 1    
    69   33  158 1    
    70   34   35 am   BACKBONE|DICT|INTERRES
    71   34  159 1    
    72   35   36 2    
    73   35   37 1    
    74   37   38 1    
    75   37   39 1    
    76   37  160 1    
    77   38  161 1    
    78   38  162 1    
    79   38  163 1    
    80   39   40 am   BACKBONE|DICT|INTERRES
    81   39  164 1    
    82   40   41 2    
    83   40   42 1    
    84   42   43 1    
    85   42   44 1    
    86   42  165 1    
    87   43  166 1    
    88   43  167 1    
    89   43  168 1    
    90   44   45 am   BACKBONE|DICT|INTERRES
    91   44  169 1    
    92   45   46 2    
    93   45   47 1    
    94   47   48 1    
    95   47   49 1    
    96   47  170 1    
    97   48  171 1    
    98   48  172 1    
    99   48  173 1    
   100   49   50 am   BACKBONE|DICT|INTERRES
   101   49  174 1    
   102   50   51 2    
   103   50   52 1    
   104   52   53 1    
   105   52   54 1    
   106   52  175 1    
   107   53  176 1    
   108   53  177 1    
   109   53  178 1    
   110   54   55 am   BACKBONE|DICT|INTERRES
   111   54  179 1    
   112   55   56 2    
   113   55   57 1    
   114   57   58 1    
   115   57   59 1    
   116   57  180 1    
   117   58  181 1    
   118   58  182 1    
   119   58  183 1    
   120   59   60 am   BACKBONE|DICT|INTERRES
   121   59  184 1    
   122   60   61 2    
   123   60   62 1    
   124   62   63 1    
   125   62   64 1    
   126   62  185 1    
   127   63  186 1    
   128   63  187 1    
   129   63  188 1    
   130   64   65 am   BACKBONE|DICT|INTERRES
   131   64  189 1    
   132   65   66 2    
   133   67   68 2    
   134   67   69 am   BACKBONE|DICT|INTERRES
   135   69   70 1    
   136   69  190 1    
   137   70   71 1    
   138   70   72 1    
   139   70  191 1    
   140   71  192 1    
   141   71  193 1    
   142   71  194 1    
   143   72   73 2    
   144   72   74 am   BACKBONE|DICT|INTERRES
   145   74   75 1    
   146   74  195 1    
   147   75   76 1    
   148   75   77 1    
   149   75  196 1    
   150   76  197 1    
   151   76  198 1    
   152   76  199 1    
   153   77   78 2    
   154   77   79 am   BACKBONE|DICT|INTERRES
   155   79   80 1    
   156   79  200 1    
   157   80   81 1    
   158   80   82 1    
   159   80  201 1    
   160   81  202 1    
   161   81  203 1    
   162   81  204 1    
   163   82   83 2    
   164   82   84 am   BACKBONE|DICT|INTERRES
   165   84   85 1    
   166   84  205 1    
   167   85   86 1    
   168   85   87 1    
   169   85  206 1    
   170   86  207 1    
   171   86  208 1    
   172   86  209 1    
   173   87   88 2    
   174   87   89 am   BACKBONE|DICT|INTERRES
   175   89   90 1    
   176   89  210 1    
   177   90   91 1    
   178   90   92 1    
   179   90  211 1    
   180   91  212 1    
   181   91  213 1    
   182   91  214 1    
   183   92   93 2    
   184   92   94 am   BACKBONE|DICT|INTERRES
   185   94   95 1    
   186   94  215 1    
   187   95   96 1    
   188   95   97 1    
   189   95  216 1    
   190   96  217 1    
   191   96  218 1    
   192   96  219 1    
   193   97   98 2    
   194   97   99 am   BACKBONE|DICT|INTERRES
   195   99  100 1    
   196   99  220 1    
   197  100  101 1    
   198  100  102 1    
   199  100  221 1    
   200  101  222 1    
   201  101  223 1    
   202  101  224 1    
   203  102  103 2    
   204  102  104 am   BACKBONE|DICT|INTERRES
   205  104  105 1    
   206  104  225 1    
   207  105  106 1    
   208  105  107 1    
   209  105  226 1    
   210  106  227 1    
   211  106  228 1    
   212  106  229 1    
   213  107  108 2    
   214  107  109 am   BACKBONE|DICT|INTERRES
   215  109  110 1    
   216  109  230 1    
   217  110  111 1    
   218  110  112 1    
   219  110  231 1    
   220  111  232 1    
   221  111  233 1    
   222  111  234 1    
   223  112  113 2    
   224  112  114 am   BACKBONE|DICT|INTERRES
   225  114  115 1    
   226  114  235 1    
   227  115  116 1    
   228  115  117 1    
   229  115  236 1    
   230  116  237 1    
   231  116  238 1    
   232  116  239 1    
   233  117  118 2    
   234  117  119 am   BACKBONE|DICT|INTERRES
   235  119  120 1    
   236  119  240 1    
   237  120  121 1    
   238  120  124 1    
   239  120  241 1    
   240  121  122 am   BACKBONE|DICT|INTERRES
   241  121  123 2    
   242  122  242 1    
   243  122  243 1    
   244  124  125 1    
   245  124  244 1    
   246  124  245 1    
   247  125  126 1    
   248  126  246 1    
   249  126  247 1    
@<TRIPOS>SUBSTRUCTURE
     1 UNK         1 GROUP             0       ****    0 ROOT    
