@<TRIPOS>MOLECULE
3R540
247   249    1
SMALL
USER_CHARGES


@<TRIPOS>ATOM
      1 CA         -2.3953  -13.9250  -49.6758 C.3       0 UNK        -0.1800 
      2 C          -0.9086  -13.7310  -49.9297 C.2       0 UNK         0.5000 
      3 O          -0.4970  -12.6792  -50.4195 O.2       0 UNK        -0.5000 
      4 N          -0.1024  -14.7457  -49.5946 N.am      1 UNK        -0.5000 
      5 CA          1.3573  -14.7515  -49.7687 C.3       1 UNK         0.1400 
      6 C6          1.9530  -16.1757  -49.6688 C.3       23 UNK        -0.0398 
      7 S7          1.2591  -17.3452  -50.8845 S.3       23 UNK        -0.2404 
      8 C8          0.3612  -18.5027  -49.8047 C.3       23 UNK        -0.0205 
      9 C9         -1.0404  -18.0101  -49.4888 C.ar      23 UNK        -0.0193 
     10 C10        -2.0285  -18.0678  -50.4713 C.ar      23 UNK        -0.1150 
     11 C11        -3.3353  -17.6618  -50.1995 C.ar      23 UNK        -0.0193 
     12 C12        -3.6597  -17.2149  -48.9164 C.ar      23 UNK        -0.1150 
     13 C13        -2.6836  -17.1697  -47.9164 C.ar      23 UNK        -0.0193 
     14 C14        -1.3719  -17.5474  -48.2146 C.ar      23 UNK        -0.1150 
     15 C15        -3.0564  -16.7514  -46.5046 C.3       23 UNK        -0.0205 
     16 S16        -3.7308  -18.1577  -45.5631 S.3       23 UNK        -0.2404 
     17 C17        -2.2475  -19.1872  -45.2799 C.3       23 UNK        -0.0398 
     18 CA         -2.1088  -20.3868  -46.2512 C.3       11 UNK         0.1400 
     19 N          -0.7281  -20.8896  -46.2522 N.am      11 UNK        -0.5000 
     20 C          -0.2437  -21.9740  -46.8777 C.2       10 UNK         0.5000 
     21 O          -0.9328  -22.7552  -47.5338 O.2       10 UNK        -0.5000 
     22 CA          1.2668  -22.2454  -46.7375 C.3       10 UNK         0.1400 
     23 CB          1.9855  -21.9228  -48.0566 C.3       10 UNK        -0.1800 
     24 N           1.9066  -21.4948  -45.6525 N.am      10 UNK        -0.5000 
     25 C           1.7156  -21.6911  -44.3414 C.2       9 UNK         0.5000 
     26 O           0.9665  -22.5580  -43.8905 O.2       9 UNK        -0.5000 
     27 CA          2.4398  -20.7360  -43.3702 C.3       9 UNK         0.1400 
     28 CB          3.8697  -21.2192  -43.0651 C.3       9 UNK        -0.1800 
     29 N           2.4198  -19.3247  -43.7802 N.am      9 UNK        -0.5000 
     30 C           3.0325  -18.7275  -44.8131 C.2       8 UNK         0.5000 
     31 O           3.7404  -19.3167  -45.6300 O.2       8 UNK        -0.5000 
     32 CA          2.7680  -17.2221  -44.9902 C.3       8 UNK         0.1400 
     33 CB          1.4444  -17.0118  -45.7351 C.3       8 UNK        -0.1800 
     34 N           2.7310  -16.4985  -43.7210 N.am      8 UNK        -0.5000 
     35 C           3.8097  -16.2486  -42.9656 C.2       7 UNK         0.5000 
     36 O           4.9605  -16.5431  -43.2900 O.2       7 UNK        -0.5000 
     37 CA          3.5532  -15.5768  -41.6061 C.3       7 UNK         0.1400 
     38 CB          3.4358  -14.0515  -41.7570 C.3       7 UNK        -0.1800 
     39 N           2.3504  -16.1078  -40.9633 N.am      7 UNK        -0.5000 
     40 C           2.2801  -17.3135  -40.3796 C.2       6 UNK         0.5000 
     41 O           3.2410  -18.0741  -40.2625 O.2       6 UNK        -0.5000 
     42 CA          0.9043  -17.7530  -39.8441 C.3       6 UNK         0.1400 
     43 CB          0.7598  -17.3762  -38.3619 C.3       6 UNK        -0.1800 
     44 N          -0.2148  -17.1800  -40.5929 N.am      6 UNK        -0.5000 
     45 C          -0.5505  -17.5205  -41.8446 C.2       5 UNK         0.5000 
     46 O           0.0447  -18.3654  -42.5127 O.2       5 UNK        -0.5000 
     47 CA         -1.7216  -16.7436  -42.4700 C.3       5 UNK         0.1400 
     48 CB         -3.0641  -17.3577  -42.0454 C.3       5 UNK        -0.1800 
     49 N          -1.7132  -15.3202  -42.1276 N.am      5 UNK        -0.5000 
     50 C          -0.7390  -14.4622  -42.4535 C.2       4 UNK         0.5000 
     51 O           0.2830  -14.7802  -43.0690 O.2       4 UNK        -0.5000 
     52 CA         -0.9159  -13.0233  -41.9579 C.3       4 UNK         0.1400 
     53 CB         -0.3133  -12.8541  -40.5534 C.3       4 UNK        -0.1800 
     54 N          -0.2501  -12.1182  -42.8853 N.am      4 UNK        -0.5000 
     55 C          -0.7020  -10.9116  -43.2457 C.2       3 UNK         0.5000 
     56 O          -1.7191  -10.3989  -42.7759 O.2       3 UNK        -0.5000 
     57 CA          0.1094  -10.1311  -44.3017 C.3       3 UNK         0.1400 
     58 CB          0.8592   -8.9623  -43.6426 C.3       3 UNK        -0.1800 
     59 N           1.0748  -10.9418  -45.0498 N.am      3 UNK        -0.5000 
     60 C           0.7610  -11.8868  -45.9443 C.2       2 UNK         0.5000 
     61 O          -0.3958  -12.2095  -46.2292 O.2       2 UNK        -0.5000 
     62 CA          1.9475  -12.5948  -46.6139 C.3       2 UNK         0.1400 
     63 CB          2.7681  -13.4028  -45.5906 C.3       2 UNK        -0.1800 
     64 N           1.4423  -13.4807  -47.6566 N.am      2 UNK        -0.5000 
     65 C           2.0896  -13.8179  -48.7776 C.2       1 UNK         0.5000 
     66 O           3.2302  -13.4356  -49.0432 O.2       1 UNK        -0.5000 
     67 C          -3.1698  -21.4708  -45.9639 C.2       11 UNK         0.5000 
     68 O          -4.2113  -21.4823  -46.6176 O.2       11 UNK        -0.5000 
     69 N          -2.8592  -22.3967  -45.0443 N.am      12 UNK        -0.5000 
     70 CA         -3.7157  -23.5215  -44.6573 C.3       12 UNK         0.1400 
     71 CB         -3.0325  -24.2946  -43.5192 C.3       12 UNK        -0.1800 
     72 C          -4.0806  -24.4766  -45.8139 C.2       12 UNK         0.5000 
     73 O          -5.1505  -25.0853  -45.7731 O.2       12 UNK        -0.5000 
     74 N          -3.2017  -24.5796  -46.8188 N.am      13 UNK        -0.5000 
     75 CA         -3.4292  -25.3342  -48.0488 C.3       13 UNK         0.1400 
     76 CB         -2.1747  -26.1633  -48.3648 C.3       13 UNK        -0.1800 
     77 C          -3.7574  -24.3904  -49.2153 C.2       13 UNK         0.5000 
     78 O          -4.6524  -24.6830  -50.0087 O.2       13 UNK        -0.5000 
     79 N          -3.0309  -23.2712  -49.3130 N.am      14 UNK        -0.5000 
     80 CA         -3.1042  -22.3402  -50.4344 C.3       14 UNK         0.1400 
     81 CB         -1.9176  -21.3771  -50.3716 C.3       14 UNK        -0.1800 
     82 C          -4.4401  -21.5870  -50.5403 C.2       14 UNK         0.5000 
     83 O          -4.8892  -21.3353  -51.6575 O.2       14 UNK        -0.5000 
     84 N          -5.1001  -21.3073  -49.4063 N.am      15 UNK        -0.5000 
     85 CA         -6.4457  -20.7215  -49.3737 C.3       15 UNK         0.1400 
     86 CB         -6.7731  -20.2507  -47.9496 C.3       15 UNK        -0.1800 
     87 C          -7.5392  -21.6757  -49.8995 C.2       15 UNK         0.5000 
     88 O          -8.5932  -21.2070  -50.3297 O.2       15 UNK        -0.5000 
     89 N          -7.2586  -22.9864  -49.8893 N.am      16 UNK        -0.5000 
     90 CA         -8.0803  -24.0345  -50.4967 C.3       16 UNK         0.1400 
     91 CB         -8.0425  -25.2753  -49.5873 C.3       16 UNK        -0.1800 
     92 C          -7.6147  -24.3789  -51.9291 C.2       16 UNK         0.5000 
     93 O          -8.1478  -25.3176  -52.5218 O.2       16 UNK        -0.5000 
     94 N          -6.6270  -23.6336  -52.4531 N.am      17 UNK        -0.5000 
     95 CA         -5.9660  -23.7913  -53.7532 C.3       17 UNK         0.1400 
     96 CB         -6.9604  -23.5713  -54.9123 C.3       17 UNK        -0.1800 
     97 C          -5.1623  -25.1027  -53.8887 C.2       17 UNK         0.5000 
     98 O          -4.9182  -25.5557  -55.0082 O.2       17 UNK        -0.5000 
     99 N          -4.7424  -25.6815  -52.7554 N.am      18 UNK        -0.5000 
    100 CA        -3.9639  -26.9195  -52.6875 C.3       18 UNK         0.1400 
    101 CB        -4.4533  -27.7461  -51.4858 C.3       18 UNK        -0.1800 
    102 C         -2.4441  -26.6648  -52.6147 C.2       18 UNK         0.5000 
    103 O         -1.6799  -27.6280  -52.5393 O.2       18 UNK        -0.5000 
    104 N         -2.0215  -25.3946  -52.6400 N.am      19 UNK        -0.5000 
    105 CA        -0.6265  -24.9675  -52.6206 C.3       19 UNK         0.1400 
    106 CB        -0.1074  -24.9327  -51.1712 C.3       19 UNK        -0.1800 
    107 C         -0.4871  -23.5961  -53.2984 C.2       19 UNK         0.5000 
    108 O         -1.4786  -22.8816  -53.4717 O.2       19 UNK        -0.5000 
    109 N          0.7550  -23.2606  -53.6616 N.am      20 UNK        -0.5000 
    110 CA         1.1674  -21.9659  -54.2032 C.3       20 UNK         0.1400 
    111 CB         2.5680  -22.1535  -54.8163 C.3       20 UNK        -0.1800 
    112 C          1.1967  -20.8746  -53.1064 C.2       20 UNK         0.5000 
    113 O          1.3046  -21.2189  -51.9295 O.2       20 UNK        -0.5000 
    114 N          1.1587  -19.5760  -53.4400 N.am      21 UNK        -0.5000 
    115 CA         1.0755  -18.9872  -54.7806 C.3       21 UNK         0.1400 
    116 CB         2.0321  -17.7868  -54.8492 C.3       21 UNK        -0.1800 
    117 C         -0.3518  -18.5437  -55.1392 C.2       21 UNK         0.5000 
    118 O         -0.7458  -18.6788  -56.2976 O.2       21 UNK        -0.5000 
    119 N         -1.0958  -18.0221  -54.1539 N.am      22 UNK        -0.5000 
    120 CA        -2.4731  -17.5189  -54.3265 C.3       22 UNK         0.1400 
    121 C         -3.5422  -18.6402  -54.5211 C.2       22 UNK         0.5000 
    122 N         -3.2621  -19.8916  -54.1746 N.am      22 UNK        -0.7600 
    123 O         -4.6301  -18.3779  -55.0265 O.2       22 UNK        -0.5000 
    124 C124       -2.7992  -16.4085  -53.2658 C.3       23 UNK        -0.0398 
    125 S125       -4.4302  -16.3533  -52.4241 S.3       23 UNK        -0.2404 
    126 C126       -4.4018  -17.7718  -51.2765 C.3       23 UNK        -0.0205 
    127 H127       -2.5677  -14.3326  -48.6799 H         1 UNK         0.0600 
    128 H128       -2.9274  -12.9763  -49.7473 H         1 UNK         0.0600 
    129 H129       -2.8179  -14.6101  -50.4102 H         1 UNK         0.0600 
    130 H130       -0.5075  -15.6019  -49.2422 H         1 UNK         0.3000 
    131 H131        1.5700  -14.3741  -50.7713 H         1 UNK         0.0600 
    132 H132        1.8267  -16.5699  -48.6612 H         1 UNK         0.0800 
    133 H133        3.0306  -16.1454  -49.8414 H         1 UNK         0.0800 
    134 H134        0.2866  -19.4656  -50.3082 H         1 UNK         0.0800 
    135 H135        0.9286  -18.6928  -48.8933 H         1 UNK         0.0800 
    136 H136       -1.7819  -18.4500  -51.4494 H         1 UNK         0.1150 
    137 H137       -4.6761  -16.9276  -48.6870 H         1 UNK         0.1150 
    138 H138       -0.6243  -17.5208  -47.4405 H         1 UNK         0.1150 
    139 H139       -2.1969  -16.3262  -45.9841 H         1 UNK         0.0800 
    140 H140       -3.8078  -15.9615  -46.5445 H         1 UNK         0.0800 
    141 H141       -2.2555  -19.5334  -44.2453 H         1 UNK         0.0800 
    142 H142       -1.3734  -18.5426  -45.3571 H         1 UNK         0.0800 
    143 H143       -2.2977  -20.0299  -47.2642 H         1 UNK         0.0600 
    144 H144       -0.0624  -20.3466  -45.7243 H         1 UNK         0.3000 
    145 H145        1.3859  -23.3110  -46.5321 H         1 UNK         0.0600 
    146 H146        3.0371  -22.2062  -48.0116 H         1 UNK         0.0600 
    147 H147        1.5396  -22.4645  -48.8927 H         1 UNK         0.0600 
    148 H148        1.9357  -20.8597  -48.2930 H         1 UNK         0.0600 
    149 H149        2.5682  -20.7699  -45.9184 H         1 UNK         0.3000 
    150 H150        1.8814  -20.7678  -42.4332 H         1 UNK         0.0600 
    151 H151        3.8573  -22.2266  -42.6476 H         1 UNK         0.0600 
    152 H152        4.3551  -20.5704  -42.3358 H         1 UNK         0.0600 
    153 H153        4.4935  -21.2463  -43.9588 H         1 UNK         0.0600 
    154 H154        1.7761  -18.7555  -43.2370 H         1 UNK         0.3000 
    155 H155        3.5736  -16.8121  -45.6032 H         1 UNK         0.0600 
    156 H156        1.3260  -15.9803  -46.0631 H         1 UNK         0.0600 
    157 H157        0.5875  -17.2633  -45.1108 H         1 UNK         0.0600 
    158 H158        1.4101  -17.6438  -46.6215 H         1 UNK         0.0600 
    159 H159        1.8267  -16.1689  -43.4029 H         1 UNK         0.3000 
    160 H160        4.4111  -15.7845  -40.9628 H         1 UNK         0.0600 
    161 H161        2.5990  -13.7654  -42.3931 H         1 UNK         0.0600 
    162 H162        4.3397  -13.6358  -42.2039 H         1 UNK         0.0600 
    163 H163        3.3019  -13.5691  -40.7888 H         1 UNK         0.0600 
    164 H164        1.5071  -15.5614  -41.0529 H         1 UNK         0.3000 
    165 H165        0.8496  -18.8406  -39.9280 H         1 UNK         0.0600 
    166 H166        0.7881  -16.2956  -38.2159 H         1 UNK         0.0600 
    167 H167       -0.1790  -17.7470  -37.9503 H         1 UNK         0.0600 
    168 H168        1.5665  -17.8089  -37.7686 H         1 UNK         0.0600 
    169 H169       -0.7617  -16.4735  -40.1234 H         1 UNK         0.3000 
    170 H170       -1.6295  -16.8246  -43.5540 H         1 UNK         0.0600 
    171 H171       -3.0994  -18.4241  -42.2698 H         1 UNK         0.0600 
    172 H172       -3.2403  -17.2443  -40.9751 H         1 UNK         0.0600 
    173 H173       -3.8948  -16.8895  -42.5737 H         1 UNK         0.0600 
    174 H174       -2.5129  -14.9796  -41.6133 H         1 UNK         0.3000 
    175 H175       -1.9852  -12.8040  -41.9229 H         1 UNK         0.0600 
    176 H176       -0.4550  -11.8375  -40.1860 H         1 UNK         0.0600 
    177 H177       -0.7874  -13.5262  -39.8372 H         1 UNK         0.0600 
    178 H178        0.7566  -13.0644  -40.5454 H         1 UNK         0.0600 
    179 H179        0.5527  -12.5086  -43.3593 H         1 UNK         0.3000 
    180 H180       -0.6066   -9.7174  -45.0150 H         1 UNK         0.0600 
    181 H181        1.6027   -9.3148  -42.9266 H         1 UNK         0.0600 
    182 H182        0.1714   -8.3077  -43.1055 H         1 UNK         0.0600 
    183 H183        1.3707   -8.3509  -44.3864 H         1 UNK         0.0600 
    184 H184        2.0491  -10.7449  -44.8711 H         1 UNK         0.3000 
    185 H185        2.5807  -11.8288  -47.0665 H         1 UNK         0.0600 
    186 H186        3.5295  -14.0129  -46.0768 H         1 UNK         0.0600 
    187 H187        3.2835  -12.7454  -44.8900 H         1 UNK         0.0600 
    188 H188        2.1318  -14.0646  -45.0044 H         1 UNK         0.0600 
    189 H189        0.4739  -13.7516  -47.5419 H         1 UNK         0.3000 
    190 H190       -1.9607  -22.3376  -44.5865 H         1 UNK         0.3000 
    191 H191       -4.6498  -23.1044  -44.2757 H         1 UNK         0.0600 
    192 H192       -2.8607  -23.6543  -42.6538 H         1 UNK         0.0600 
    193 H193       -3.6506  -25.1296  -43.1864 H         1 UNK         0.0600 
    194 H194       -2.0701  -24.7020  -43.8322 H         1 UNK         0.0600 
    195 H195       -2.3636  -24.0099  -46.7890 H         1 UNK         0.3000 
    196 H196       -4.2692  -26.0224  -47.9346 H         1 UNK         0.0600 
    197 H197       -2.2728  -26.6870  -49.3162 H         1 UNK         0.0600 
    198 H198       -2.0010  -26.9161  -47.5959 H         1 UNK         0.0600 
    199 H199       -1.2828  -25.5385  -48.4239 H         1 UNK         0.0600 
    200 H200       -2.2977  -23.0931  -48.6298 H         1 UNK         0.3000 
    201 H201       -3.0041  -22.9300  -51.3458 H         1 UNK         0.0600 
    202 H202       -0.9688  -21.9108  -50.3223 H         1 UNK         0.0600 
    203 H203       -1.9795  -20.7273  -49.5001 H         1 UNK         0.0600 
    204 H204       -1.8849  -20.7557  -51.2656 H         1 UNK         0.0600 
    205 H205       -4.6826  -21.5320  -48.5069 H         1 UNK         0.3000 
    206 H206       -6.4454  -19.8446  -50.0231 H         1 UNK         0.0600 
    207 H207       -6.0287  -19.5403  -47.5885 H         1 UNK         0.0600 
    208 H208       -7.7421  -19.7516  -47.9157 H         1 UNK         0.0600 
    209 H209       -6.8095  -21.0860  -47.2494 H         1 UNK         0.0600 
    210 H210       -6.3535  -23.2843  -49.5479 H         1 UNK         0.3000 
    211 H211       -9.1172  -23.7000  -50.5659 H         1 UNK         0.0600 
    212 H212       -7.0422  -25.7042  -49.5264 H         1 UNK         0.0600 
    213 H213       -8.7090  -26.0543  -49.9594 H         1 UNK         0.0600 
    214 H214       -8.3646  -25.0320  -48.5747 H         1 UNK         0.0600 
    215 H215       -6.2584  -22.8760  -51.8900 H         1 UNK         0.3000 
    216 H216       -5.2270  -22.9912  -53.8081 H         1 UNK         0.0600 
    217 H217       -6.4402  -23.5181  -55.8694 H         1 UNK         0.0600 
    218 H218       -7.6885  -24.3796  -54.9827 H         1 UNK         0.0600 
    219 H219       -7.5065  -22.6359  -54.7906 H         1 UNK         0.0600 
    220 H220       -4.9517  -25.2411  -51.8636 H         1 UNK         0.3000 
    221 H221       -4.1413  -27.5142  -53.5857 H         1 UNK         0.0600 
    222 H222       -4.2752  -27.2368  -50.5401 H         1 UNK         0.0600 
    223 H223       -5.5221  -27.9479  -51.5582 H         1 UNK         0.0600 
    224 H224       -3.9449  -28.7098  -51.4386 H         1 UNK         0.0600 
    225 H225       -2.6918  -24.6497  -52.7730 H         1 UNK         0.3000 
    226 H226       -0.0301  -25.6781  -53.1970 H         1 UNK         0.0600 
    227 H227       -0.1283  -25.9250  -50.7211 H         1 UNK         0.0600 
    228 H228        0.9238  -24.5808  -51.1258 H         1 UNK         0.0600 
    229 H229       -0.7044  -24.2702  -50.5465 H         1 UNK         0.0600 
    230 H230        1.5059  -23.8983  -53.4426 H         1 UNK         0.3000 
    231 H231        0.4566  -21.6824  -54.9813 H         1 UNK         0.0600 
    232 H232        2.9710  -21.2256  -55.2205 H         1 UNK         0.0600 
    233 H233        2.5451  -22.8760  -55.6325 H         1 UNK         0.0600 
    234 H234        3.2827  -22.5119  -54.0742 H         1 UNK         0.0600 
    235 H235        1.2384  -18.9095  -52.6847 H         1 UNK         0.3000 
    236 H236        1.3930  -19.6923  -55.5470 H         1 UNK         0.0600 
    237 H237        2.0055  -17.3200  -55.8348 H         1 UNK         0.0600 
    238 H238        1.7761  -17.0209  -54.1159 H         1 UNK         0.0600 
    239 H239        3.0615  -18.0945  -54.6644 H         1 UNK         0.0600 
    240 H240       -0.6936  -17.9420  -53.2335 H         1 UNK         0.3000 
    241 H241       -2.4805  -17.0042  -55.2900 H         1 UNK         0.0600 
    242 H242       -2.3636  -20.1451  -53.8001 H         1 UNK         0.3800 
    243 H243       -3.9687  -20.5997  -54.2877 H         1 UNK         0.3800 
    244 H244       -2.0321  -16.3657  -52.4942 H         1 UNK         0.0800 
    245 H245       -2.6986  -15.4420  -53.7613 H         1 UNK         0.0800 
    246 H246       -5.3849  -17.8450  -50.8109 H         1 UNK         0.0800 
    247 H247       -4.2711  -18.7014  -51.8274 H         1 UNK         0.0800 
@<TRIPOS>BOND
     1    1    2 1    
     2    1  127 1    
     3    1  128 1    
     4    1  129 1    
     5    2    3 2    
     6    2    4 am   BACKBONE|DICT|INTERRES
     7    4    5 1    
     8    4  130 1    
     9    5    6 1    
    10    5   65 1    
    11    5  131 1    
    12    6    7 1    
    13    6  132 1    
    14    6  133 1    
    15    7    8 1    
    16    8    9 1    
    17    8  134 1    
    18    8  135 1    
    19    9   10 ar   
    20    9   14 ar   
    21   10   11 ar   
    22   10  136 1    
    23   11   12 ar   
    24   11  126 1    
    25   12   13 ar   
    26   12  137 1    
    27   13   14 ar   
    28   13   15 1    
    29   14  138 1    
    30   15   16 1    
    31   15  139 1    
    32   15  140 1    
    33   16   17 1    
    34   17   18 1    
    35   17  141 1    
    36   17  142 1    
    37   18   19 1    
    38   18   67 1    
    39   18  143 1    
    40   19   20 am   BACKBONE|DICT|INTERRES
    41   19  144 1    
    42   20   21 2    
    43   20   22 1    
    44   22   23 1    
    45   22   24 1    
    46   22  145 1    
    47   23  146 1    
    48   23  147 1    
    49   23  148 1    
    50   24   25 am   BACKBONE|DICT|INTERRES
    51   24  149 1    
    52   25   26 2    
    53   25   27 1    
    54   27   28 1    
    55   27   29 1    
    56   27  150 1    
    57   28  151 1    
    58   28  152 1    
    59   28  153 1    
    60   29   30 am   BACKBONE|DICT|INTERRES
    61   29  154 1    
    62   30   31 2    
    63   30   32 1    
    64   32   33 1    
    65   32   34 1    
    66   32  155 1    
    67   33  156 1    
    68   33  157 1    
    69   33  158 1    
    70   34   35 am   BACKBONE|DICT|INTERRES
    71   34  159 1    
    72   35   36 2    
    73   35   37 1    
    74   37   38 1    
    75   37   39 1    
    76   37  160 1    
    77   38  161 1    
    78   38  162 1    
    79   38  163 1    
    80   39   40 am   BACKBONE|DICT|INTERRES
    81   39  164 1    
    82   40   41 2    
    83   40   42 1    
    84   42   43 1    
    85   42   44 1    
    86   42  165 1    
    87   43  166 1    
    88   43  167 1    
    89   43  168 1    
    90   44   45 am   BACKBONE|DICT|INTERRES
    91   44  169 1    
    92   45   46 2    
    93   45   47 1    
    94   47   48 1    
    95   47   49 1    
    96   47  170 1    
    97   48  171 1    
    98   48  172 1    
    99   48  173 1    
   100   49   50 am   BACKBONE|DICT|INTERRES
   101   49  174 1    
   102   50   51 2    
   103   50   52 1    
   104   52   53 1    
   105   52   54 1    
   106   52  175 1    
   107   53  176 1    
   108   53  177 1    
   109   53  178 1    
   110   54   55 am   BACKBONE|DICT|INTERRES
   111   54  179 1    
   112   55   56 2    
   113   55   57 1    
   114   57   58 1    
   115   57   59 1    
   116   57  180 1    
   117   58  181 1    
   118   58  182 1    
   119   58  183 1    
   120   59   60 am   BACKBONE|DICT|INTERRES
   121   59  184 1    
   122   60   61 2    
   123   60   62 1    
   124   62   63 1    
   125   62   64 1    
   126   62  185 1    
   127   63  186 1    
   128   63  187 1    
   129   63  188 1    
   130   64   65 am   BACKBONE|DICT|INTERRES
   131   64  189 1    
   132   65   66 2    
   133   67   68 2    
   134   67   69 am   BACKBONE|DICT|INTERRES
   135   69   70 1    
   136   69  190 1    
   137   70   71 1    
   138   70   72 1    
   139   70  191 1    
   140   71  192 1    
   141   71  193 1    
   142   71  194 1    
   143   72   73 2    
   144   72   74 am   BACKBONE|DICT|INTERRES
   145   74   75 1    
   146   74  195 1    
   147   75   76 1    
   148   75   77 1    
   149   75  196 1    
   150   76  197 1    
   151   76  198 1    
   152   76  199 1    
   153   77   78 2    
   154   77   79 am   BACKBONE|DICT|INTERRES
   155   79   80 1    
   156   79  200 1    
   157   80   81 1    
   158   80   82 1    
   159   80  201 1    
   160   81  202 1    
   161   81  203 1    
   162   81  204 1    
   163   82   83 2    
   164   82   84 am   BACKBONE|DICT|INTERRES
   165   84   85 1    
   166   84  205 1    
   167   85   86 1    
   168   85   87 1    
   169   85  206 1    
   170   86  207 1    
   171   86  208 1    
   172   86  209 1    
   173   87   88 2    
   174   87   89 am   BACKBONE|DICT|INTERRES
   175   89   90 1    
   176   89  210 1    
   177   90   91 1    
   178   90   92 1    
   179   90  211 1    
   180   91  212 1    
   181   91  213 1    
   182   91  214 1    
   183   92   93 2    
   184   92   94 am   BACKBONE|DICT|INTERRES
   185   94   95 1    
   186   94  215 1    
   187   95   96 1    
   188   95   97 1    
   189   95  216 1    
   190   96  217 1    
   191   96  218 1    
   192   96  219 1    
   193   97   98 2    
   194   97   99 am   BACKBONE|DICT|INTERRES
   195   99  100 1    
   196   99  220 1    
   197  100  101 1    
   198  100  102 1    
   199  100  221 1    
   200  101  222 1    
   201  101  223 1    
   202  101  224 1    
   203  102  103 2    
   204  102  104 am   BACKBONE|DICT|INTERRES
   205  104  105 1    
   206  104  225 1    
   207  105  106 1    
   208  105  107 1    
   209  105  226 1    
   210  106  227 1    
   211  106  228 1    
   212  106  229 1    
   213  107  108 2    
   214  107  109 am   BACKBONE|DICT|INTERRES
   215  109  110 1    
   216  109  230 1    
   217  110  111 1    
   218  110  112 1    
   219  110  231 1    
   220  111  232 1    
   221  111  233 1    
   222  111  234 1    
   223  112  113 2    
   224  112  114 am   BACKBONE|DICT|INTERRES
   225  114  115 1    
   226  114  235 1    
   227  115  116 1    
   228  115  117 1    
   229  115  236 1    
   230  116  237 1    
   231  116  238 1    
   232  116  239 1    
   233  117  118 2    
   234  117  119 am   BACKBONE|DICT|INTERRES
   235  119  120 1    
   236  119  240 1    
   237  120  121 1    
   238  120  124 1    
   239  120  241 1    
   240  121  122 am   BACKBONE|DICT|INTERRES
   241  121  123 2    
   242  122  242 1    
   243  122  243 1    
   244  124  125 1    
   245  124  244 1    
   246  124  245 1    
   247  125  126 1    
   248  126  246 1    
   249  126  247 1    
@<TRIPOS>SUBSTRUCTURE
     1 UNK         1 GROUP             0       ****    0 ROOT    
