@<TRIPOS>MOLECULE
3R540
247   249    1
SMALL
USER_CHARGES


@<TRIPOS>ATOM
      1 CA         -4.8165  -16.2056  -40.7275 C.3       0 UNK        -0.1800 
      2 C          -4.6451  -16.1554  -42.2386 C.2       0 UNK         0.5000 
      3 O          -5.6355  -16.1708  -42.9696 O.2       0 UNK        -0.5000 
      4 N          -3.3946  -16.0845  -42.7127 N.am      1 UNK        -0.5000 
      5 CA         -3.0101  -16.0332  -44.1283 C.3       1 UNK         0.1400 
      6 C6         -1.5688  -16.5672  -44.3280 C.3       23 UNK        -0.0398 
      7 S7         -1.1962  -16.9427  -46.0738 S.3       23 UNK        -0.2404 
      8 C8         -0.6789  -18.6790  -45.9989 C.3       23 UNK        -0.0205 
      9 C9         -0.2384  -19.1751  -47.3629 C.ar      23 UNK        -0.0193 
     10 C10        -1.1764  -19.3647  -48.3806 C.ar      23 UNK        -0.1150 
     11 C11        -0.7714  -19.7810  -49.6519 C.ar      23 UNK        -0.0193 
     12 C12         0.5871  -20.0093  -49.8952 C.ar      23 UNK        -0.1150 
     13 C13         1.5339  -19.8466  -48.8801 C.ar      23 UNK        -0.0193 
     14 C14         1.1107  -19.4302  -47.6142 C.ar      23 UNK        -0.1150 
     15 C15         3.0109  -20.0895  -49.1784 C.3       23 UNK        -0.0205 
     16 S16         3.8829  -21.0262  -47.8791 S.3       23 UNK        -0.2404 
     17 C17         2.8574  -22.5312  -47.7736 C.3       23 UNK        -0.0398 
     18 CA          3.6541  -23.7631  -47.2834 C.3       11 UNK         0.1400 
     19 N           4.2065  -23.5508  -45.9420 N.am      11 UNK        -0.5000 
     20 C           5.1791  -24.2879  -45.3899 C.2       10 UNK         0.5000 
     21 O           5.7500  -25.2156  -45.9640 O.2       10 UNK        -0.5000 
     22 CA          5.5515  -23.9443  -43.9390 C.3       10 UNK         0.1400 
     23 CB          6.5082  -22.7435  -43.8909 C.3       10 UNK        -0.1800 
     24 N           4.3587  -23.6586  -43.1405 N.am      10 UNK        -0.5000 
     25 C           3.5500  -24.6018  -42.6365 C.2       9 UNK         0.5000 
     26 O           3.7535  -25.8101  -42.7558 O.2       9 UNK        -0.5000 
     27 CA          2.2973  -24.1236  -41.8791 C.3       9 UNK         0.1400 
     28 CB          2.5937  -23.9987  -40.3770 C.3       9 UNK        -0.1800 
     29 N           1.7739  -22.8487  -42.3693 N.am      9 UNK        -0.5000 
     30 C           1.1621  -22.6790  -43.5489 C.2       8 UNK         0.5000 
     31 O           0.9785  -23.5786  -44.3677 O.2       8 UNK        -0.5000 
     32 CA          0.7065  -21.2492  -43.8839 C.3       8 UNK         0.1400 
     33 CB         -0.6597  -20.9765  -43.2339 C.3       8 UNK        -0.1800 
     34 N           1.6561  -20.2040  -43.4827 N.am      8 UNK        -0.5000 
     35 C           2.9458  -20.1431  -43.8421 C.2       7 UNK         0.5000 
     36 O           3.5114  -21.0111  -44.5096 O.2       7 UNK        -0.5000 
     37 CA          3.7318  -18.9062  -43.3715 C.3       7 UNK         0.1400 
     38 CB          5.1728  -19.2663  -42.9730 C.3       7 UNK        -0.1800 
     39 N           3.7718  -17.8807  -44.4129 N.am      7 UNK        -0.5000 
     40 C           2.7653  -17.0498  -44.7091 C.2       6 UNK         0.5000 
     41 O           1.6873  -17.0526  -44.1110 O.2       6 UNK        -0.5000 
     42 CA          3.0268  -16.0268  -45.8294 C.3       6 UNK         0.1400 
     43 CB          3.3091  -16.6848  -47.1923 C.3       6 UNK        -0.1800 
     44 N           1.8891  -15.1206  -45.9698 N.am      6 UNK        -0.5000 
     45 C           1.9736  -13.8132  -46.2366 C.2       5 UNK         0.5000 
     46 O           3.0421  -13.2172  -46.3914 O.2       5 UNK        -0.5000 
     47 CA          0.6336  -13.0549  -46.3526 C.3       5 UNK         0.1400 
     48 CB          0.8075  -11.5593  -46.6912 C.3       5 UNK        -0.1800 
     49 N          -0.3155  -13.6831  -47.2818 N.am      5 UNK        -0.5000 
     50 C          -0.1229  -13.9258  -48.5892 C.2       4 UNK         0.5000 
     51 O           0.9259  -13.6643  -49.1797 O.2       4 UNK        -0.5000 
     52 CA         -1.2823  -14.5230  -49.4093 C.3       4 UNK         0.1400 
     53 CB         -1.0390  -16.0063  -49.7382 C.3       4 UNK        -0.1800 
     54 N          -2.6126  -14.3471  -48.8094 N.am      4 UNK        -0.5000 
     55 C          -3.7238  -14.1525  -49.5376 C.2       3 UNK         0.5000 
     56 O          -3.7169  -14.0881  -50.7688 O.2       3 UNK        -0.5000 
     57 CA         -5.0749  -13.9983  -48.8075 C.3       3 UNK         0.1400 
     58 CB         -6.0084  -15.1800  -49.1070 C.3       3 UNK        -0.1800 
     59 N          -4.9618  -13.8727  -47.3567 N.am      3 UNK        -0.5000 
     60 C          -4.8332  -12.7157  -46.6949 C.2       2 UNK         0.5000 
     61 O          -4.7175  -11.6210  -47.2468 O.2       2 UNK        -0.5000 
     62 CA         -4.8477  -12.7919  -45.1539 C.3       2 UNK         0.1400 
     63 CB         -6.2393  -12.4361  -44.6095 C.3       2 UNK        -0.1800 
     64 N          -4.4569  -14.1025  -44.6282 N.am      2 UNK        -0.5000 
     65 C          -3.2307  -14.6253  -44.7322 C.2       1 UNK         0.5000 
     66 O          -2.3070  -14.0317  -45.2883 O.2       1 UNK        -0.5000 
     67 C           2.7664  -25.0250  -47.3621 C.2       11 UNK         0.5000 
     68 O           2.5921  -25.5644  -48.4553 O.2       11 UNK        -0.5000 
     69 N           2.2035  -25.4448  -46.2168 N.am      12 UNK        -0.5000 
     70 CA          1.1548  -26.4591  -46.0519 C.3       12 UNK         0.1400 
     71 CB          1.6616  -27.8615  -46.4474 C.3       12 UNK        -0.1800 
     72 C          -0.1419  -26.0402  -46.7779 C.2       12 UNK         0.5000 
     73 O          -0.7636  -26.8456  -47.4739 O.2       12 UNK        -0.5000 
     74 N          -0.4889  -24.7569  -46.6298 N.am      13 UNK        -0.5000 
     75 CA         -1.5720  -24.0857  -47.3391 C.3       13 UNK         0.1400 
     76 CB         -1.0858  -22.6847  -47.7315 C.3       13 UNK        -0.1800 
     77 C          -2.8412  -23.9816  -46.4796 C.2       13 UNK         0.5000 
     78 O          -2.7818  -24.1007  -45.2538 O.2       13 UNK        -0.5000 
     79 N          -3.9685  -23.7166  -47.1524 N.am      14 UNK        -0.5000 
     80 CA         -5.2906  -23.5401  -46.5452 C.3       14 UNK         0.1400 
     81 CB         -6.3589  -23.7797  -47.6244 C.3       14 UNK        -0.1800 
     82 C          -5.4988  -22.1587  -45.8908 C.2       14 UNK         0.5000 
     83 O          -6.4908  -21.9786  -45.1846 O.2       14 UNK        -0.5000 
     84 N          -4.6012  -21.1992  -46.1673 N.am      15 UNK        -0.5000 
     85 CA         -4.5440  -19.8121  -45.6738 C.3       15 UNK         0.1400 
     86 CB         -4.4484  -19.7695  -44.1369 C.3       15 UNK        -0.1800 
     87 C          -5.6506  -18.8774  -46.2023 C.2       15 UNK         0.5000 
     88 O          -5.3772  -17.7038  -46.4539 O.2       15 UNK        -0.5000 
     89 N          -6.8587  -19.4135  -46.4066 N.am      16 UNK        -0.5000 
     90 CA         -7.9669  -18.7522  -47.0965 C.3       16 UNK         0.1400 
     91 CB         -9.2751  -19.4689  -46.7289 C.3       16 UNK        -0.1800 
     92 C          -7.7756  -18.7271  -48.6273 C.2       16 UNK         0.5000 
     93 O          -8.3968  -17.9056  -49.3023 O.2       16 UNK        -0.5000 
     94 N          -6.9301  -19.6291  -49.1461 N.am      17 UNK        -0.5000 
     95 CA         -6.5165  -19.6893  -50.5457 C.3       17 UNK         0.1400 
     96 CB         -5.7934  -21.0229  -50.7943 C.3       17 UNK        -0.1800 
     97 C          -5.5994  -18.5083  -50.9067 C.2       17 UNK         0.5000 
     98 O          -4.7532  -18.1234  -50.0981 O.2       17 UNK        -0.5000 
     99 N          -5.7685  -17.9755  -52.1212 N.am      18 UNK        -0.5000 
    100 CA        -4.9284  -16.9171  -52.6778 C.3       18 UNK         0.1400 
    101 CB        -5.6342  -16.3264  -53.9083 C.3       18 UNK        -0.1800 
    102 C         -3.5369  -17.4405  -53.0685 C.2       18 UNK         0.5000 
    103 O         -3.3894  -18.6268  -53.3715 O.2       18 UNK        -0.5000 
    104 N         -2.5527  -16.5344  -53.1395 N.am      19 UNK        -0.5000 
    105 CA        -1.1838  -16.8221  -53.5882 C.3       19 UNK         0.1400 
    106 CB        -0.3497  -15.5337  -53.5320 C.3       19 UNK        -0.1800 
    107 C         -1.1247  -17.4450  -54.9983 C.2       19 UNK         0.5000 
    108 O         -0.3378  -18.3624  -55.2331 O.2       19 UNK        -0.5000 
    109 N         -2.0098  -16.9742  -55.8873 N.am      20 UNK        -0.5000 
    110 CA        -2.1962  -17.4892  -57.2436 C.3       20 UNK         0.1400 
    111 CB        -3.0419  -16.4834  -58.0400 C.3       20 UNK        -0.1800 
    112 C         -2.8392  -18.8906  -57.2962 C.2       20 UNK         0.5000 
    113 O         -2.6625  -19.5873  -58.2964 O.2       20 UNK        -0.5000 
    114 N         -3.5714  -19.2815  -56.2423 N.am      21 UNK        -0.5000 
    115 CA        -4.1730  -20.6086  -56.1128 C.3       21 UNK         0.1400 
    116 CB        -5.4034  -20.5457  -55.1924 C.3       21 UNK        -0.1800 
    117 C         -3.1465  -21.6339  -55.6035 C.2       21 UNK         0.5000 
    118 O         -3.1120  -22.7537  -56.1159 O.2       21 UNK        -0.5000 
    119 N         -2.3178  -21.2325  -54.6286 N.am      22 UNK        -0.5000 
    120 CA        -1.1900  -22.0405  -54.1341 C.3       22 UNK         0.1400 
    121 C         -0.0261  -22.1551  -55.1583 C.2       22 UNK         0.5000 
    122 N          0.3288  -21.0902  -55.8672 N.am      22 UNK        -0.7600 
    123 O          0.5598  -23.2230  -55.3127 O.2       22 UNK        -0.5000 
    124 C124       -0.6485  -21.5479  -52.7708 C.3       23 UNK        -0.0398 
    125 S125       -1.8946  -21.6222  -51.4383 S.3       23 UNK        -0.2404 
    126 C126       -1.8049  -19.9352  -50.7594 C.3       23 UNK        -0.0205 
    127 H127       -3.8570  -16.2023  -40.2098 H         1 UNK         0.0600 
    128 H128       -5.3540  -17.1097  -40.4417 H         1 UNK         0.0600 
    129 H129       -5.3906  -15.3440  -40.3868 H         1 UNK         0.0600 
    130 H130       -2.6296  -16.0351  -42.0549 H         1 UNK         0.3000 
    131 H131       -3.6774  -16.6999  -44.6750 H         1 UNK         0.0600 
    132 H132       -0.8308  -15.8563  -43.9526 H         1 UNK         0.0800 
    133 H133       -1.4281  -17.4764  -43.7425 H         1 UNK         0.0800 
    134 H134        0.1381  -18.7649  -45.2859 H         1 UNK         0.0800 
    135 H135       -1.4860  -19.3033  -45.6239 H         1 UNK         0.0800 
    136 H136       -2.2198  -19.1576  -48.1886 H         1 UNK         0.1150 
    137 H137        0.9132  -20.3115  -50.8781 H         1 UNK         0.1150 
    138 H138        1.8374  -19.2899  -46.8267 H         1 UNK         0.1150 
    139 H139        3.1289  -20.6219  -50.1234 H         1 UNK         0.0800 
    140 H140        3.5029  -19.1245  -49.3043 H         1 UNK         0.0800 
    141 H141        2.0179  -22.3261  -47.1065 H         1 UNK         0.0800 
    142 H142        2.4294  -22.7241  -48.7593 H         1 UNK         0.0800 
    143 H143        4.4892  -23.9187  -47.9699 H         1 UNK         0.0600 
    144 H144        3.8454  -22.7531  -45.4268 H         1 UNK         0.3000 
    145 H145        6.0687  -24.8038  -43.5067 H         1 UNK         0.0600 
    146 H146        6.7569  -22.4742  -42.8644 H         1 UNK         0.0600 
    147 H147        6.0794  -21.8670  -44.3759 H         1 UNK         0.0600 
    148 H148        7.4429  -22.9730  -44.4038 H         1 UNK         0.0600 
    149 H149        4.0879  -22.6882  -43.0615 H         1 UNK         0.3000 
    150 H150        1.5228  -24.8823  -42.0117 H         1 UNK         0.0600 
    151 H151        2.9624  -24.9420  -39.9718 H         1 UNK         0.0600 
    152 H152        1.6954  -23.7359  -39.8180 H         1 UNK         0.0600 
    153 H153        3.3494  -23.2379  -40.1772 H         1 UNK         0.0600 
    154 H154        1.8845  -22.0473  -41.7657 H         1 UNK         0.3000 
    155 H155        0.5962  -21.1880  -44.9680 H         1 UNK         0.0600 
    156 H156       -1.4143  -21.6657  -43.6164 H         1 UNK         0.0600 
    157 H157       -1.0110  -19.9653  -43.4311 H         1 UNK         0.0600 
    158 H158       -0.6217  -21.1011  -42.1510 H         1 UNK         0.0600 
    159 H159        1.2745  -19.4299  -42.9572 H         1 UNK         0.3000 
    160 H160        3.2379  -18.4987  -42.4866 H         1 UNK         0.0600 
    161 H161        5.7634  -19.5812  -43.8336 H         1 UNK         0.0600 
    162 H162        5.1891  -20.0789  -42.2454 H         1 UNK         0.0600 
    163 H163        5.6780  -18.4139  -42.5187 H         1 UNK         0.0600 
    164 H164        4.6187  -17.8394  -44.9607 H         1 UNK         0.3000 
    165 H165        3.9119  -15.4660  -45.5222 H         1 UNK         0.0600 
    166 H166        3.7312  -15.9596  -47.8882 H         1 UNK         0.0600 
    167 H167        4.0186  -17.5094  -47.1172 H         1 UNK         0.0600 
    168 H168        2.3961  -17.0677  -47.6453 H         1 UNK         0.0600 
    169 H169        0.9836  -15.5429  -45.8058 H         1 UNK         0.3000 
    170 H170        0.1772  -13.1080  -45.3635 H         1 UNK         0.0600 
    171 H171        1.4239  -11.0587  -45.9436 H         1 UNK         0.0600 
    172 H172        1.2860  -11.4142  -47.6601 H         1 UNK         0.0600 
    173 H173       -0.1547  -11.0474  -46.7124 H         1 UNK         0.0600 
    174 H174       -1.1860  -13.9533  -46.8372 H         1 UNK         0.3000 
    175 H175       -1.2552  -13.9749  -50.3536 H         1 UNK         0.0600 
    176 H176       -1.0451  -16.6189  -48.8416 H         1 UNK         0.0600 
    177 H177       -1.8036  -16.3985  -50.4079 H         1 UNK         0.0600 
    178 H178       -0.0731  -16.1523  -50.2228 H         1 UNK         0.0600 
    179 H179       -2.6855  -14.3787  -47.8034 H         1 UNK         0.3000 
    180 H180       -5.5472  -13.0992  -49.2089 H         1 UNK         0.0600 
    181 H181       -6.1514  -15.3152  -50.1788 H         1 UNK         0.0600 
    182 H182       -6.9950  -15.0249  -48.6701 H         1 UNK         0.0600 
    183 H183       -5.6117  -16.1110  -48.7031 H         1 UNK         0.0600 
    184 H184       -5.0494  -14.7261  -46.8227 H         1 UNK         0.3000 
    185 H185       -4.1354  -12.0518  -44.7832 H         1 UNK         0.0600 
    186 H186       -6.5560  -11.4517  -44.9567 H         1 UNK         0.0600 
    187 H187       -6.9924  -13.1566  -44.9310 H         1 UNK         0.0600 
    188 H188       -6.2419  -12.4117  -43.5196 H         1 UNK         0.0600 
    189 H189       -5.1670  -14.6505  -44.1516 H         1 UNK         0.3000 
    190 H190        2.3711  -24.8795  -45.3941 H         1 UNK         0.3000 
    191 H191        0.9170  -26.4826  -44.9874 H         1 UNK         0.0600 
    192 H192        0.9243  -28.6250  -46.1973 H         1 UNK         0.0600 
    193 H193        2.5805  -28.1110  -45.9167 H         1 UNK         0.0600 
    194 H194        1.8597  -27.9388  -47.5166 H         1 UNK         0.0600 
    195 H195        0.0188  -24.2034  -45.9462 H         1 UNK         0.3000 
    196 H196       -1.8155  -24.6342  -48.2517 H         1 UNK         0.0600 
    197 H197       -0.8253  -22.0866  -46.8578 H         1 UNK         0.0600 
    198 H198       -0.2086  -22.7365  -48.3765 H         1 UNK         0.0600 
    199 H199       -1.8548  -22.1459  -48.2849 H         1 UNK         0.0600 
    200 H200       -3.9279  -23.6401  -48.1588 H         1 UNK         0.3000 
    201 H201       -5.4196  -24.2922  -45.7639 H         1 UNK         0.0600 
    202 H202       -7.3640  -23.6996  -47.2078 H         1 UNK         0.0600 
    203 H203       -6.2682  -24.7772  -48.0548 H         1 UNK         0.0600 
    204 H204       -6.2820  -23.0554  -48.4356 H         1 UNK         0.0600 
    205 H205       -3.8496  -21.4591  -46.7885 H         1 UNK         0.3000 
    206 H206       -3.6175  -19.4056  -46.0736 H         1 UNK         0.0600 
    207 H207       -3.6248  -20.3845  -43.7758 H         1 UNK         0.0600 
    208 H208       -4.2749  -18.7555  -43.7818 H         1 UNK         0.0600 
    209 H209       -5.3636  -20.1220  -43.6612 H         1 UNK         0.0600 
    210 H210       -7.0032  -20.3705  -46.0983 H         1 UNK         0.3000 
    211 H211       -8.0302  -17.7178  -46.7517 H         1 UNK         0.0600 
    212 H212       -9.2635  -20.5135  -47.0431 H         1 UNK         0.0600 
    213 H213      -10.1310  -18.9906  -47.2069 H         1 UNK         0.0600 
    214 H214       -9.4488  -19.4442  -45.6529 H         1 UNK         0.0600 
    215 H215       -6.4371  -20.2305  -48.5057 H         1 UNK         0.3000 
    216 H216       -7.4098  -19.6528  -51.1728 H         1 UNK         0.0600 
    217 H217       -6.4593  -21.8696  -50.6284 H         1 UNK         0.0600 
    218 H218       -4.9279  -21.1405  -50.1409 H         1 UNK         0.0600 
    219 H219       -5.4346  -21.0898  -51.8222 H         1 UNK         0.0600 
    220 H220       -6.4601  -18.3703  -52.7405 H         1 UNK         0.3000 
    221 H221       -4.8085  -16.1355  -51.9284 H         1 UNK         0.0600 
    222 H222       -5.0605  -15.5018  -54.3330 H         1 UNK         0.0600 
    223 H223       -5.7687  -17.0720  -54.6934 H         1 UNK         0.0600 
    224 H224       -6.6168  -15.9330  -53.6471 H         1 UNK         0.0600 
    225 H225       -2.7493  -15.5801  -52.8695 H         1 UNK         0.3000 
    226 H226       -0.7458  -17.5390  -52.8923 H         1 UNK         0.0600 
    227 H227       -0.3191  -15.1240  -52.5228 H         1 UNK         0.0600 
    228 H228        0.6810  -15.7231  -53.8350 H         1 UNK         0.0600 
    229 H229       -0.7505  -14.7644  -54.1930 H         1 UNK         0.0600 
    230 H230       -2.6210  -16.2240  -55.6010 H         1 UNK         0.3000 
    231 H231       -1.2147  -17.5617  -57.7170 H         1 UNK         0.0600 
    232 H232       -3.1788  -16.8161  -59.0698 H         1 UNK         0.0600 
    233 H233       -2.5614  -15.5056  -58.0777 H         1 UNK         0.0600 
    234 H234       -4.0327  -16.3554  -57.6021 H         1 UNK         0.0600 
    235 H235       -3.6094  -18.6925  -55.4202 H         1 UNK         0.3000 
    236 H236       -4.5174  -20.9372  -57.0959 H         1 UNK         0.0600 
    237 H237       -6.1178  -19.7985  -55.5377 H         1 UNK         0.0600 
    238 H238       -5.9196  -21.5062  -55.1748 H         1 UNK         0.0600 
    239 H239       -5.1363  -20.3061  -54.1643 H         1 UNK         0.0600 
    240 H240       -2.4438  -20.3134  -54.2211 H         1 UNK         0.3000 
    241 H241       -1.5645  -23.0544  -53.9778 H         1 UNK         0.0600 
    242 H242       -0.0820  -20.1769  -55.6914 H         1 UNK         0.3800 
    243 H243        1.0800  -21.1719  -56.5332 H         1 UNK         0.3800 
    244 H244       -0.2667  -20.5314  -52.8755 H         1 UNK         0.0800 
    245 H245        0.1972  -22.1606  -52.4531 H         1 UNK         0.0800 
    246 H246       -2.7941  -19.6892  -50.3797 H         1 UNK         0.0800 
    247 H247       -1.5988  -19.2141  -51.5468 H         1 UNK         0.0800 
@<TRIPOS>BOND
     1    1    2 1    
     2    1  127 1    
     3    1  128 1    
     4    1  129 1    
     5    2    3 2    
     6    2    4 am   BACKBONE|DICT|INTERRES
     7    4    5 1    
     8    4  130 1    
     9    5    6 1    
    10    5   65 1    
    11    5  131 1    
    12    6    7 1    
    13    6  132 1    
    14    6  133 1    
    15    7    8 1    
    16    8    9 1    
    17    8  134 1    
    18    8  135 1    
    19    9   10 ar   
    20    9   14 ar   
    21   10   11 ar   
    22   10  136 1    
    23   11   12 ar   
    24   11  126 1    
    25   12   13 ar   
    26   12  137 1    
    27   13   14 ar   
    28   13   15 1    
    29   14  138 1    
    30   15   16 1    
    31   15  139 1    
    32   15  140 1    
    33   16   17 1    
    34   17   18 1    
    35   17  141 1    
    36   17  142 1    
    37   18   19 1    
    38   18   67 1    
    39   18  143 1    
    40   19   20 am   BACKBONE|DICT|INTERRES
    41   19  144 1    
    42   20   21 2    
    43   20   22 1    
    44   22   23 1    
    45   22   24 1    
    46   22  145 1    
    47   23  146 1    
    48   23  147 1    
    49   23  148 1    
    50   24   25 am   BACKBONE|DICT|INTERRES
    51   24  149 1    
    52   25   26 2    
    53   25   27 1    
    54   27   28 1    
    55   27   29 1    
    56   27  150 1    
    57   28  151 1    
    58   28  152 1    
    59   28  153 1    
    60   29   30 am   BACKBONE|DICT|INTERRES
    61   29  154 1    
    62   30   31 2    
    63   30   32 1    
    64   32   33 1    
    65   32   34 1    
    66   32  155 1    
    67   33  156 1    
    68   33  157 1    
    69   33  158 1    
    70   34   35 am   BACKBONE|DICT|INTERRES
    71   34  159 1    
    72   35   36 2    
    73   35   37 1    
    74   37   38 1    
    75   37   39 1    
    76   37  160 1    
    77   38  161 1    
    78   38  162 1    
    79   38  163 1    
    80   39   40 am   BACKBONE|DICT|INTERRES
    81   39  164 1    
    82   40   41 2    
    83   40   42 1    
    84   42   43 1    
    85   42   44 1    
    86   42  165 1    
    87   43  166 1    
    88   43  167 1    
    89   43  168 1    
    90   44   45 am   BACKBONE|DICT|INTERRES
    91   44  169 1    
    92   45   46 2    
    93   45   47 1    
    94   47   48 1    
    95   47   49 1    
    96   47  170 1    
    97   48  171 1    
    98   48  172 1    
    99   48  173 1    
   100   49   50 am   BACKBONE|DICT|INTERRES
   101   49  174 1    
   102   50   51 2    
   103   50   52 1    
   104   52   53 1    
   105   52   54 1    
   106   52  175 1    
   107   53  176 1    
   108   53  177 1    
   109   53  178 1    
   110   54   55 am   BACKBONE|DICT|INTERRES
   111   54  179 1    
   112   55   56 2    
   113   55   57 1    
   114   57   58 1    
   115   57   59 1    
   116   57  180 1    
   117   58  181 1    
   118   58  182 1    
   119   58  183 1    
   120   59   60 am   BACKBONE|DICT|INTERRES
   121   59  184 1    
   122   60   61 2    
   123   60   62 1    
   124   62   63 1    
   125   62   64 1    
   126   62  185 1    
   127   63  186 1    
   128   63  187 1    
   129   63  188 1    
   130   64   65 am   BACKBONE|DICT|INTERRES
   131   64  189 1    
   132   65   66 2    
   133   67   68 2    
   134   67   69 am   BACKBONE|DICT|INTERRES
   135   69   70 1    
   136   69  190 1    
   137   70   71 1    
   138   70   72 1    
   139   70  191 1    
   140   71  192 1    
   141   71  193 1    
   142   71  194 1    
   143   72   73 2    
   144   72   74 am   BACKBONE|DICT|INTERRES
   145   74   75 1    
   146   74  195 1    
   147   75   76 1    
   148   75   77 1    
   149   75  196 1    
   150   76  197 1    
   151   76  198 1    
   152   76  199 1    
   153   77   78 2    
   154   77   79 am   BACKBONE|DICT|INTERRES
   155   79   80 1    
   156   79  200 1    
   157   80   81 1    
   158   80   82 1    
   159   80  201 1    
   160   81  202 1    
   161   81  203 1    
   162   81  204 1    
   163   82   83 2    
   164   82   84 am   BACKBONE|DICT|INTERRES
   165   84   85 1    
   166   84  205 1    
   167   85   86 1    
   168   85   87 1    
   169   85  206 1    
   170   86  207 1    
   171   86  208 1    
   172   86  209 1    
   173   87   88 2    
   174   87   89 am   BACKBONE|DICT|INTERRES
   175   89   90 1    
   176   89  210 1    
   177   90   91 1    
   178   90   92 1    
   179   90  211 1    
   180   91  212 1    
   181   91  213 1    
   182   91  214 1    
   183   92   93 2    
   184   92   94 am   BACKBONE|DICT|INTERRES
   185   94   95 1    
   186   94  215 1    
   187   95   96 1    
   188   95   97 1    
   189   95  216 1    
   190   96  217 1    
   191   96  218 1    
   192   96  219 1    
   193   97   98 2    
   194   97   99 am   BACKBONE|DICT|INTERRES
   195   99  100 1    
   196   99  220 1    
   197  100  101 1    
   198  100  102 1    
   199  100  221 1    
   200  101  222 1    
   201  101  223 1    
   202  101  224 1    
   203  102  103 2    
   204  102  104 am   BACKBONE|DICT|INTERRES
   205  104  105 1    
   206  104  225 1    
   207  105  106 1    
   208  105  107 1    
   209  105  226 1    
   210  106  227 1    
   211  106  228 1    
   212  106  229 1    
   213  107  108 2    
   214  107  109 am   BACKBONE|DICT|INTERRES
   215  109  110 1    
   216  109  230 1    
   217  110  111 1    
   218  110  112 1    
   219  110  231 1    
   220  111  232 1    
   221  111  233 1    
   222  111  234 1    
   223  112  113 2    
   224  112  114 am   BACKBONE|DICT|INTERRES
   225  114  115 1    
   226  114  235 1    
   227  115  116 1    
   228  115  117 1    
   229  115  236 1    
   230  116  237 1    
   231  116  238 1    
   232  116  239 1    
   233  117  118 2    
   234  117  119 am   BACKBONE|DICT|INTERRES
   235  119  120 1    
   236  119  240 1    
   237  120  121 1    
   238  120  124 1    
   239  120  241 1    
   240  121  122 am   BACKBONE|DICT|INTERRES
   241  121  123 2    
   242  122  242 1    
   243  122  243 1    
   244  124  125 1    
   245  124  244 1    
   246  124  245 1    
   247  125  126 1    
   248  126  246 1    
   249  126  247 1    
@<TRIPOS>SUBSTRUCTURE
     1 UNK         1 GROUP             0       ****    0 ROOT    
