@<TRIPOS>MOLECULE
3R540
247   249    1
SMALL
USER_CHARGES


@<TRIPOS>ATOM
      1 CA         -2.4131  -12.3748  -49.2111 C.3       0 UNK        -0.1800 
      2 C          -1.6289  -12.3355  -47.9068 C.2       0 UNK         0.5000 
      3 O          -0.4398  -12.0198  -47.9163 O.2       0 UNK        -0.5000 
      4 N          -2.2896  -12.6665  -46.7914 N.am      1 UNK        -0.5000 
      5 CA         -1.7075  -12.7091  -45.4473 C.3       1 UNK         0.1400 
      6 C6         -2.5967  -13.4851  -44.4444 C.3       23 UNK        -0.0398 
      7 S7         -2.8540  -15.2164  -44.9542 S.3       23 UNK        -0.2404 
      8 C8         -4.5169  -15.1256  -45.6856 C.3       23 UNK        -0.0205 
      9 C9         -4.6900  -16.1881  -46.7555 C.ar      23 UNK        -0.0193 
     10 C10        -4.2074  -15.9618  -48.0470 C.ar      23 UNK        -0.1150 
     11 C11        -4.3495  -16.9354  -49.0379 C.ar      23 UNK        -0.0193 
     12 C12        -4.9815  -18.1423  -48.7278 C.ar      23 UNK        -0.1150 
     13 C13        -5.4467  -18.3940  -47.4337 C.ar      23 UNK        -0.0193 
     14 C14        -5.3165  -17.4002  -46.4563 C.ar      23 UNK        -0.1150 
     15 C15        -6.0675  -19.7510  -47.1109 C.3       23 UNK        -0.0205 
     16 S16        -5.5632  -20.4440  -45.4958 S.3       23 UNK        -0.2404 
     17 C17        -3.7378  -20.4124  -45.5894 C.3       23 UNK        -0.0398 
     18 CA         -3.1214  -21.7553  -46.0392 C.3       11 UNK         0.1400 
     19 N          -1.7377  -21.5908  -46.4910 N.am      11 UNK        -0.5000 
     20 C          -1.0508  -22.5052  -47.1871 C.2       10 UNK         0.5000 
     21 O          -1.5518  -23.5448  -47.6118 O.2       10 UNK        -0.5000 
     22 CA          0.4445  -22.2379  -47.4365 C.3       10 UNK         0.1400 
     23 CB          0.6594  -21.4773  -48.7517 C.3       10 UNK        -0.1800 
     24 N           1.0833  -21.5167  -46.3361 N.am      10 UNK        -0.5000 
     25 C           1.2583  -22.0244  -45.1079 C.2       9 UNK         0.5000 
     26 O           0.9338  -23.1692  -44.7936 O.2       9 UNK        -0.5000 
     27 CA          1.8414  -21.0822  -44.0392 C.3       9 UNK         0.1400 
     28 CB          3.3625  -20.9477  -44.1981 C.3       9 UNK        -0.1800 
     29 N           1.2234  -19.7560  -44.0629 N.am      9 UNK        -0.5000 
     30 C          -0.0731  -19.5156  -43.8203 C.2       8 UNK         0.5000 
     31 O          -0.8843  -20.3874  -43.5096 O.2       8 UNK        -0.5000 
     32 CA         -0.5567  -18.0681  -44.0096 C.3       8 UNK         0.1400 
     33 CB         -0.2442  -17.2119  -42.7732 C.3       8 UNK        -0.1800 
     34 N           0.0227  -17.4469  -45.1990 N.am      8 UNK        -0.5000 
     35 C          -0.2485  -17.8230  -46.4567 C.2       7 UNK         0.5000 
     36 O          -1.0183  -18.7375  -46.7481 O.2       7 UNK        -0.5000 
     37 CA          0.5259  -17.0911  -47.5658 C.3       7 UNK         0.1400 
     38 CB         -0.0696  -15.6970  -47.8151 C.3       7 UNK        -0.1800 
     39 N           1.9507  -16.9690  -47.2466 N.am      7 UNK        -0.5000 
     40 C           2.7903  -18.0125  -47.1474 C.2       6 UNK         0.5000 
     41 O           2.4581  -19.1766  -47.3634 O.2       6 UNK        -0.5000 
     42 CA          4.2324  -17.7249  -46.6856 C.3       6 UNK         0.1400 
     43 CB          5.1331  -17.4285  -47.8937 C.3       6 UNK        -0.1800 
     44 N           4.3314  -16.6210  -45.7320 N.am      6 UNK        -0.5000 
     45 C           3.7106  -16.5548  -44.5456 C.2       5 UNK         0.5000 
     46 O           3.0366  -17.4729  -44.0785 O.2       5 UNK        -0.5000 
     47 CA          3.8212  -15.2249  -43.7721 C.3       5 UNK         0.1400 
     48 CB          4.8306  -15.3543  -42.6223 C.3       5 UNK        -0.1800 
     49 N           4.1916  -14.0746  -44.6050 N.am      5 UNK        -0.5000 
     50 C           3.4825  -13.5953  -45.6352 C.2       4 UNK         0.5000 
     51 O           2.4083  -14.0767  -46.0007 O.2       4 UNK        -0.5000 
     52 CA          4.0861  -12.3787  -46.3653 C.3       4 UNK         0.1400 
     53 CB          3.4381  -12.1437  -47.7411 C.3       4 UNK        -0.1800 
     54 N           3.9382  -11.1668  -45.5649 N.am      4 UNK        -0.5000 
     55 C           4.6426  -10.8508  -44.4681 C.2       3 UNK         0.5000 
     56 O           5.6014  -11.5085  -44.0610 O.2       3 UNK        -0.5000 
     57 CA          4.1741   -9.6083  -43.6798 C.3       3 UNK         0.1400 
     58 CB          5.0184   -8.3811  -44.0547 C.3       3 UNK        -0.1800 
     59 N           2.7563   -9.3022  -43.9013 N.am      3 UNK        -0.5000 
     60 C           1.7409  -10.0756  -43.4917 C.2       2 UNK         0.5000 
     61 O           1.8906  -11.0583  -42.7624 O.2       2 UNK        -0.5000 
     62 CA          0.3385   -9.7622  -44.0403 C.3       2 UNK         0.1400 
     63 CB          0.3143   -8.6530  -45.1192 C.3       2 UNK        -0.1800 
     64 N          -0.1771  -11.0190  -44.5741 N.am      2 UNK        -0.5000 
     65 C          -1.4339  -11.2807  -44.9394 C.2       1 UNK         0.5000 
     66 O          -2.3579  -10.4660  -44.8802 O.2       1 UNK        -0.5000 
     67 C          -3.2316  -22.8467  -44.9553 C.2       11 UNK         0.5000 
     68 O          -4.0986  -23.7138  -45.0600 O.2       11 UNK        -0.5000 
     69 N          -2.3186  -22.8305  -43.9727 N.am      12 UNK        -0.5000 
     70 CA         -2.2131  -23.8393  -42.9136 C.3       12 UNK         0.1400 
     71 CB         -1.1688  -23.3906  -41.8805 C.3       12 UNK        -0.1800 
     72 C          -1.8863  -25.2473  -43.4504 C.2       12 UNK         0.5000 
     73 O          -2.4094  -26.2342  -42.9324 O.2       12 UNK        -0.5000 
     74 N          -1.0667  -25.3089  -44.5083 N.am      13 UNK        -0.5000 
     75 CA         -0.7477  -26.5232  -45.2627 C.3       13 UNK         0.1400 
     76 CB          0.5401  -26.2732  -46.0641 C.3       13 UNK        -0.1800 
     77 C          -1.8809  -26.9863  -46.2054 C.2       13 UNK         0.5000 
     78 O          -1.7694  -28.0680  -46.7824 O.2       13 UNK        -0.5000 
     79 N          -2.9220  -26.1559  -46.3744 N.am      14 UNK        -0.5000 
     80 CA         -4.0791  -26.3003  -47.2676 C.3       14 UNK         0.1400 
     81 CB         -4.8753  -27.5856  -46.9674 C.3       14 UNK        -0.1800 
     82 C          -3.7488  -26.1577  -48.7676 C.2       14 UNK         0.5000 
     83 O          -4.6465  -26.2966  -49.5985 O.2       14 UNK        -0.5000 
     84 N          -2.4979  -25.8201  -49.1026 N.am      15 UNK        -0.5000 
     85 CA         -2.0267  -25.5642  -50.4618 C.3       15 UNK         0.1400 
     86 CB         -0.4971  -25.4203  -50.4538 C.3       15 UNK        -0.1800 
     87 C          -2.6878  -24.3203  -51.0753 C.2       15 UNK         0.5000 
     88 O          -3.1054  -24.3674  -52.2304 O.2       15 UNK        -0.5000 
     89 N          -2.8192  -23.2539  -50.2723 N.am      16 UNK        -0.5000 
     90 CA         -3.4776  -22.0043  -50.6674 C.3       16 UNK         0.1400 
     91 CB         -2.9319  -20.8390  -49.8327 C.3       16 UNK        -0.1800 
     92 C          -5.0160  -22.0704  -50.5950 C.2       16 UNK         0.5000 
     93 O          -5.6789  -21.1254  -51.0231 O.2       16 UNK        -0.5000 
     94 N          -5.5595  -23.1691  -50.0549 N.am      17 UNK        -0.5000 
     95 CA         -6.9831  -23.4904  -50.1133 C.3       17 UNK         0.1400 
     96 CB         -7.3979  -24.2328  -48.8327 C.3       17 UNK        -0.1800 
     97 C          -7.2905  -24.3252  -51.3698 C.2       17 UNK         0.5000 
     98 O          -8.2802  -24.0551  -52.0508 O.2       17 UNK        -0.5000 
     99 N          -6.4363  -25.3185  -51.6573 N.am      18 UNK        -0.5000 
    100 CA        -6.5637  -26.2310  -52.7934 C.3       18 UNK         0.1400 
    101 CB        -5.6411  -27.4386  -52.5661 C.3       18 UNK        -0.1800 
    102 C         -6.2605  -25.5794  -54.1559 C.2       18 UNK         0.5000 
    103 O         -6.8884  -25.9479  -55.1499 O.2       18 UNK        -0.5000 
    104 N         -5.3048  -24.6450  -54.1885 N.am      19 UNK        -0.5000 
    105 CA        -4.8358  -23.9564  -55.3879 C.3       19 UNK         0.1400 
    106 CB        -3.6170  -24.7118  -55.9483 C.3       19 UNK        -0.1800 
    107 C         -4.4792  -22.5015  -55.0504 C.2       19 UNK         0.5000 
    108 O         -4.4615  -22.1205  -53.8800 O.2       19 UNK        -0.5000 
    109 N         -4.1660  -21.7037  -56.0774 N.am      20 UNK        -0.5000 
    110 CA        -3.7574  -20.3008  -55.9589 C.3       20 UNK         0.1400 
    111 CB        -4.0861  -19.5794  -57.2787 C.3       20 UNK        -0.1800 
    112 C         -2.2723  -20.1534  -55.5545 C.2       20 UNK         0.5000 
    113 O         -1.5181  -19.4370  -56.2166 O.2       20 UNK        -0.5000 
    114 N         -1.8682  -20.8322  -54.4705 N.am      21 UNK        -0.5000 
    115 CA        -0.4886  -20.8848  -53.9673 C.3       21 UNK         0.1400 
    116 CB        -0.3874  -21.9303  -52.8467 C.3       21 UNK        -0.1800 
    117 C          0.0682  -19.5256  -53.4946 C.2       21 UNK         0.5000 
    118 O          1.2873  -19.3549  -53.4586 O.2       21 UNK        -0.5000 
    119 N         -0.8247  -18.5796  -53.1751 N.am      22 UNK        -0.5000 
    120 CA        -0.4944  -17.1691  -52.9141 C.3       22 UNK         0.1400 
    121 C         -0.0537  -16.3694  -54.1789 C.2       22 UNK         0.5000 
    122 N         -0.2283  -16.8744  -55.3959 N.am      22 UNK        -0.7600 
    123 O          0.4644  -15.2635  -54.0518 O.2       22 UNK        -0.5000 
    124 C124       -1.6470  -16.4286  -52.1887 C.3       23 UNK        -0.0398 
    125 S125       -2.0656  -17.1610  -50.5729 S.3       23 UNK        -0.2404 
    126 C126       -3.8146  -16.6800  -50.4376 C.3       23 UNK        -0.0205 
    127 H127       -2.3171  -11.4248  -49.7367 H         1 UNK         0.0600 
    128 H128       -3.4736  -12.5632  -49.0421 H         1 UNK         0.0600 
    129 H129       -2.0255  -13.1643  -49.8555 H         1 UNK         0.0600 
    130 H130       -3.2739  -12.8763  -46.8441 H         1 UNK         0.3000 
    131 H131       -0.7537  -13.2374  -45.5190 H         1 UNK         0.0600 
    132 H132       -2.1248  -13.5039  -43.4603 H         1 UNK         0.0800 
    133 H133       -3.5607  -12.9919  -44.3068 H         1 UNK         0.0800 
    134 H134       -4.6901  -14.1438  -46.1266 H         1 UNK         0.0800 
    135 H135       -5.2631  -15.2435  -44.8984 H         1 UNK         0.0800 
    136 H136       -3.7088  -15.0318  -48.2788 H         1 UNK         0.1150 
    137 H137       -5.1005  -18.8939  -49.4942 H         1 UNK         0.1150 
    138 H138       -5.6793  -17.5789  -45.4541 H         1 UNK         0.1150 
    139 H139       -7.1531  -19.6495  -47.1255 H         1 UNK         0.0800 
    140 H140       -5.8158  -20.4779  -47.8849 H         1 UNK         0.0800 
    141 H141       -3.3473  -20.1096  -44.6169 H         1 UNK         0.0800 
    142 H142       -3.4340  -19.6248  -46.2776 H         1 UNK         0.0800 
    143 H143       -3.6946  -22.1086  -46.8989 H         1 UNK         0.0600 
    144 H144       -1.2818  -20.7158  -46.2543 H         1 UNK         0.3000 
    145 H145        0.9371  -23.2075  -47.5300 H         1 UNK         0.0600 
    146 H146        0.2286  -20.4759  -48.7118 H         1 UNK         0.0600 
    147 H147        1.7212  -21.3722  -48.9745 H         1 UNK         0.0600 
    148 H148        0.2062  -22.0068  -49.5904 H         1 UNK         0.0600 
    149 H149        1.4155  -20.5782  -46.5416 H         1 UNK         0.3000 
    150 H150        1.6400  -21.5230  -43.0607 H         1 UNK         0.0600 
    151 H151        3.8498  -21.9197  -44.1131 H         1 UNK         0.0600 
    152 H152        3.7852  -20.3017  -43.4282 H         1 UNK         0.0600 
    153 H153        3.6298  -20.5315  -45.1689 H         1 UNK         0.0600 
    154 H154        1.8331  -18.9680  -44.2637 H         1 UNK         0.3000 
    155 H155       -1.6409  -18.0931  -44.1392 H         1 UNK         0.0600 
    156 H156       -0.6326  -16.1996  -42.8864 H         1 UNK         0.0600 
    157 H157       -0.7041  -17.6378  -41.8807 H         1 UNK         0.0600 
    158 H158        0.8275  -17.1409  -42.5869 H         1 UNK         0.0600 
    159 H159        0.7077  -16.7218  -45.0478 H         1 UNK         0.3000 
    160 H160        0.4274  -17.6745  -48.4839 H         1 UNK         0.0600 
    161 H161       -1.1375  -15.7598  -48.0269 H         1 UNK         0.0600 
    162 H162        0.4040  -15.2095  -48.6671 H         1 UNK         0.0600 
    163 H163        0.0489  -15.0464  -46.9488 H         1 UNK         0.0600 
    164 H164        2.2842  -16.0423  -47.0099 H         1 UNK         0.3000 
    165 H165        4.6088  -18.6218  -46.1912 H         1 UNK         0.0600 
    166 H166        6.1735  -17.3084  -47.5910 H         1 UNK         0.0600 
    167 H167        5.0985  -18.2456  -48.6156 H         1 UNK         0.0600 
    168 H168        4.8256  -16.5192  -48.4118 H         1 UNK         0.0600 
    169 H169        4.8697  -15.8197  -46.0246 H         1 UNK         0.3000 
    170 H170        2.8380  -15.0196  -43.3440 H         1 UNK         0.0600 
    171 H171        4.5682  -16.1822  -41.9621 H         1 UNK         0.0600 
    172 H172        5.8403  -15.5359  -42.9926 H         1 UNK         0.0600 
    173 H173        4.8530  -14.4498  -42.0139 H         1 UNK         0.0600 
    174 H174        5.0275  -13.5691  -44.3347 H         1 UNK         0.3000 
    175 H175        5.1490  -12.5734  -46.5236 H         1 UNK         0.0600 
    176 H176        2.3762  -11.9092  -47.6538 H         1 UNK         0.0600 
    177 H177        3.9201  -11.3207  -48.2687 H         1 UNK         0.0600 
    178 H178        3.5267  -13.0296  -48.3713 H         1 UNK         0.0600 
    179 H179        3.1664  -10.5672  -45.8135 H         1 UNK         0.3000 
    180 H180        4.3203   -9.8158  -42.6176 H         1 UNK         0.0600 
    181 H181        4.9036   -8.1186  -45.1071 H         1 UNK         0.0600 
    182 H182        6.0784   -8.5677  -43.8766 H         1 UNK         0.0600 
    183 H183        4.7383   -7.5124  -43.4585 H         1 UNK         0.0600 
    184 H184        2.5524   -8.5081  -44.4912 H         1 UNK         0.3000 
    185 H185       -0.2818   -9.4552  -43.1962 H         1 UNK         0.0600 
    186 H186       -0.7016   -8.4468  -45.4552 H         1 UNK         0.0600 
    187 H187        0.7072   -7.7122  -44.7318 H         1 UNK         0.0600 
    188 H188        0.8981   -8.9294  -45.9982 H         1 UNK         0.0600 
    189 H189        0.5072  -11.7635  -44.6102 H         1 UNK         0.3000 
    190 H190       -1.6583  -22.0578  -43.9293 H         1 UNK         0.3000 
    191 H191       -3.1823  -23.8948  -42.4137 H         1 UNK         0.0600 
    192 H192       -0.1769  -23.2986  -42.3231 H         1 UNK         0.0600 
    193 H193       -1.0976  -24.1065  -41.0608 H         1 UNK         0.0600 
    194 H194       -1.4319  -22.4251  -41.4481 H         1 UNK         0.0600 
    195 H195       -0.6099  -24.4543  -44.8118 H         1 UNK         0.3000 
    196 H196       -0.5591  -27.3326  -44.5546 H         1 UNK         0.0600 
    197 H197        0.4036  -25.4865  -46.8063 H         1 UNK         0.0600 
    198 H198        0.8551  -27.1729  -46.5942 H         1 UNK         0.0600 
    199 H199        1.3614  -25.9782  -45.4107 H         1 UNK         0.0600 
    200 H200       -2.9140  -25.2900  -45.8485 H         1 UNK         0.3000 
    201 H201       -4.7319  -25.4582  -47.0353 H         1 UNK         0.0600 
    202 H202       -5.1132  -27.6632  -45.9065 H         1 UNK         0.0600 
    203 H203       -4.3278  -28.4825  -47.2575 H         1 UNK         0.0600 
    204 H204       -5.8201  -27.5942  -47.5122 H         1 UNK         0.0600 
    205 H205       -1.8540  -25.6072  -48.3526 H         1 UNK         0.3000 
    206 H206       -2.2897  -26.4249  -51.0802 H         1 UNK         0.0600 
    207 H207       -0.0190  -26.3266  -50.0816 H         1 UNK         0.0600 
    208 H208       -0.1171  -25.2412  -51.4604 H         1 UNK         0.0600 
    209 H209       -0.1710  -24.5894  -49.8275 H         1 UNK         0.0600 
    210 H210       -2.4589  -23.3164  -49.3246 H         1 UNK         0.3000 
    211 H211       -3.2181  -21.7980  -51.7050 H         1 UNK         0.0600 
    212 H212       -3.2916  -20.8614  -48.8060 H         1 UNK         0.0600 
    213 H213       -3.2401  -19.8903  -50.2682 H         1 UNK         0.0600 
    214 H214       -1.8454  -20.8291  -49.8158 H         1 UNK         0.0600 
    215 H215       -4.9397  -23.9023  -49.7451 H         1 UNK         0.3000 
    216 H216       -7.5705  -22.5711  -50.1661 H         1 UNK         0.0600 
    217 H217       -8.4701  -24.4320  -48.8322 H         1 UNK         0.0600 
    218 H218       -7.1771  -23.6393  -47.9451 H         1 UNK         0.0600 
    219 H219       -6.8899  -25.1912  -48.7292 H         1 UNK         0.0600 
    220 H220       -5.6826  -25.5248  -51.0088 H         1 UNK         0.3000 
    221 H221       -7.5935  -26.5932  -52.8226 H         1 UNK         0.0600 
    222 H222       -4.5956  -27.1354  -52.4938 H         1 UNK         0.0600 
    223 H223       -5.9001  -27.9651  -51.6472 H         1 UNK         0.0600 
    224 H224       -5.7216  -28.1543  -53.3852 H         1 UNK         0.0600 
    225 H225       -4.8233  -24.3800  -53.3335 H         1 UNK         0.3000 
    226 H226       -5.6275  -23.9323  -56.1395 H         1 UNK         0.0600 
    227 H227       -3.8704  -25.7443  -56.1894 H         1 UNK         0.0600 
    228 H228       -3.2458  -24.2498  -56.8635 H         1 UNK         0.0600 
    229 H229       -2.7954  -24.7292  -55.2305 H         1 UNK         0.0600 
    230 H230       -4.1662  -22.0880  -57.0113 H         1 UNK         0.3000 
    231 H231       -4.3479  -19.8265  -55.1721 H         1 UNK         0.0600 
    232 H232       -3.8494  -18.5165  -57.2149 H         1 UNK         0.0600 
    233 H233       -5.1468  -19.6584  -57.5175 H         1 UNK         0.0600 
    234 H234       -3.5217  -19.9930  -58.1154 H         1 UNK         0.0600 
    235 H235       -2.5612  -21.3933  -53.9865 H         1 UNK         0.3000 
    236 H236        0.1413  -21.2190  -54.7942 H         1 UNK         0.0600 
    237 H237        0.6527  -22.0964  -52.5639 H         1 UNK         0.0600 
    238 H238       -0.7963  -22.8913  -53.1589 H         1 UNK         0.0600 
    239 H239       -0.9149  -21.6090  -51.9506 H         1 UNK         0.0600 
    240 H240       -1.8052  -18.8105  -53.2160 H         1 UNK         0.3000 
    241 H241        0.3680  -17.1593  -52.2445 H         1 UNK         0.0600 
    242 H242        0.0690  -16.3383  -56.1955 H         1 UNK         0.3800 
    243 H243       -0.6495  -17.7863  -55.5403 H         1 UNK         0.3800 
    244 H244       -2.5366  -16.4136  -52.8207 H         1 UNK         0.0800 
    245 H245       -1.3818  -15.3850  -52.0089 H         1 UNK         0.0800 
    246 H246       -4.4009  -17.2323  -51.1738 H         1 UNK         0.0800 
    247 H247       -3.9222  -15.6223  -50.6837 H         1 UNK         0.0800 
@<TRIPOS>BOND
     1    1    2 1    
     2    1  127 1    
     3    1  128 1    
     4    1  129 1    
     5    2    3 2    
     6    2    4 am   BACKBONE|DICT|INTERRES
     7    4    5 1    
     8    4  130 1    
     9    5    6 1    
    10    5   65 1    
    11    5  131 1    
    12    6    7 1    
    13    6  132 1    
    14    6  133 1    
    15    7    8 1    
    16    8    9 1    
    17    8  134 1    
    18    8  135 1    
    19    9   10 ar   
    20    9   14 ar   
    21   10   11 ar   
    22   10  136 1    
    23   11   12 ar   
    24   11  126 1    
    25   12   13 ar   
    26   12  137 1    
    27   13   14 ar   
    28   13   15 1    
    29   14  138 1    
    30   15   16 1    
    31   15  139 1    
    32   15  140 1    
    33   16   17 1    
    34   17   18 1    
    35   17  141 1    
    36   17  142 1    
    37   18   19 1    
    38   18   67 1    
    39   18  143 1    
    40   19   20 am   BACKBONE|DICT|INTERRES
    41   19  144 1    
    42   20   21 2    
    43   20   22 1    
    44   22   23 1    
    45   22   24 1    
    46   22  145 1    
    47   23  146 1    
    48   23  147 1    
    49   23  148 1    
    50   24   25 am   BACKBONE|DICT|INTERRES
    51   24  149 1    
    52   25   26 2    
    53   25   27 1    
    54   27   28 1    
    55   27   29 1    
    56   27  150 1    
    57   28  151 1    
    58   28  152 1    
    59   28  153 1    
    60   29   30 am   BACKBONE|DICT|INTERRES
    61   29  154 1    
    62   30   31 2    
    63   30   32 1    
    64   32   33 1    
    65   32   34 1    
    66   32  155 1    
    67   33  156 1    
    68   33  157 1    
    69   33  158 1    
    70   34   35 am   BACKBONE|DICT|INTERRES
    71   34  159 1    
    72   35   36 2    
    73   35   37 1    
    74   37   38 1    
    75   37   39 1    
    76   37  160 1    
    77   38  161 1    
    78   38  162 1    
    79   38  163 1    
    80   39   40 am   BACKBONE|DICT|INTERRES
    81   39  164 1    
    82   40   41 2    
    83   40   42 1    
    84   42   43 1    
    85   42   44 1    
    86   42  165 1    
    87   43  166 1    
    88   43  167 1    
    89   43  168 1    
    90   44   45 am   BACKBONE|DICT|INTERRES
    91   44  169 1    
    92   45   46 2    
    93   45   47 1    
    94   47   48 1    
    95   47   49 1    
    96   47  170 1    
    97   48  171 1    
    98   48  172 1    
    99   48  173 1    
   100   49   50 am   BACKBONE|DICT|INTERRES
   101   49  174 1    
   102   50   51 2    
   103   50   52 1    
   104   52   53 1    
   105   52   54 1    
   106   52  175 1    
   107   53  176 1    
   108   53  177 1    
   109   53  178 1    
   110   54   55 am   BACKBONE|DICT|INTERRES
   111   54  179 1    
   112   55   56 2    
   113   55   57 1    
   114   57   58 1    
   115   57   59 1    
   116   57  180 1    
   117   58  181 1    
   118   58  182 1    
   119   58  183 1    
   120   59   60 am   BACKBONE|DICT|INTERRES
   121   59  184 1    
   122   60   61 2    
   123   60   62 1    
   124   62   63 1    
   125   62   64 1    
   126   62  185 1    
   127   63  186 1    
   128   63  187 1    
   129   63  188 1    
   130   64   65 am   BACKBONE|DICT|INTERRES
   131   64  189 1    
   132   65   66 2    
   133   67   68 2    
   134   67   69 am   BACKBONE|DICT|INTERRES
   135   69   70 1    
   136   69  190 1    
   137   70   71 1    
   138   70   72 1    
   139   70  191 1    
   140   71  192 1    
   141   71  193 1    
   142   71  194 1    
   143   72   73 2    
   144   72   74 am   BACKBONE|DICT|INTERRES
   145   74   75 1    
   146   74  195 1    
   147   75   76 1    
   148   75   77 1    
   149   75  196 1    
   150   76  197 1    
   151   76  198 1    
   152   76  199 1    
   153   77   78 2    
   154   77   79 am   BACKBONE|DICT|INTERRES
   155   79   80 1    
   156   79  200 1    
   157   80   81 1    
   158   80   82 1    
   159   80  201 1    
   160   81  202 1    
   161   81  203 1    
   162   81  204 1    
   163   82   83 2    
   164   82   84 am   BACKBONE|DICT|INTERRES
   165   84   85 1    
   166   84  205 1    
   167   85   86 1    
   168   85   87 1    
   169   85  206 1    
   170   86  207 1    
   171   86  208 1    
   172   86  209 1    
   173   87   88 2    
   174   87   89 am   BACKBONE|DICT|INTERRES
   175   89   90 1    
   176   89  210 1    
   177   90   91 1    
   178   90   92 1    
   179   90  211 1    
   180   91  212 1    
   181   91  213 1    
   182   91  214 1    
   183   92   93 2    
   184   92   94 am   BACKBONE|DICT|INTERRES
   185   94   95 1    
   186   94  215 1    
   187   95   96 1    
   188   95   97 1    
   189   95  216 1    
   190   96  217 1    
   191   96  218 1    
   192   96  219 1    
   193   97   98 2    
   194   97   99 am   BACKBONE|DICT|INTERRES
   195   99  100 1    
   196   99  220 1    
   197  100  101 1    
   198  100  102 1    
   199  100  221 1    
   200  101  222 1    
   201  101  223 1    
   202  101  224 1    
   203  102  103 2    
   204  102  104 am   BACKBONE|DICT|INTERRES
   205  104  105 1    
   206  104  225 1    
   207  105  106 1    
   208  105  107 1    
   209  105  226 1    
   210  106  227 1    
   211  106  228 1    
   212  106  229 1    
   213  107  108 2    
   214  107  109 am   BACKBONE|DICT|INTERRES
   215  109  110 1    
   216  109  230 1    
   217  110  111 1    
   218  110  112 1    
   219  110  231 1    
   220  111  232 1    
   221  111  233 1    
   222  111  234 1    
   223  112  113 2    
   224  112  114 am   BACKBONE|DICT|INTERRES
   225  114  115 1    
   226  114  235 1    
   227  115  116 1    
   228  115  117 1    
   229  115  236 1    
   230  116  237 1    
   231  116  238 1    
   232  116  239 1    
   233  117  118 2    
   234  117  119 am   BACKBONE|DICT|INTERRES
   235  119  120 1    
   236  119  240 1    
   237  120  121 1    
   238  120  124 1    
   239  120  241 1    
   240  121  122 am   BACKBONE|DICT|INTERRES
   241  121  123 2    
   242  122  242 1    
   243  122  243 1    
   244  124  125 1    
   245  124  244 1    
   246  124  245 1    
   247  125  126 1    
   248  126  246 1    
   249  126  247 1    
@<TRIPOS>SUBSTRUCTURE
     1 UNK         1 GROUP             0       ****    0 ROOT    
