@<TRIPOS>MOLECULE
3R540
247   249    1
SMALL
USER_CHARGES


@<TRIPOS>ATOM
      1 CA          4.1892  -12.1011  -54.4498 C.3       0 UNK        -0.1800 
      2 C           4.3375  -13.5299  -53.9457 C.2       0 UNK         0.5000 
      3 O           5.4378  -14.0801  -53.9860 O.2       0 UNK        -0.5000 
      4 N           3.2334  -14.1295  -53.4815 N.am      1 UNK        -0.5000 
      5 CA          3.1771  -15.4777  -52.9054 C.3       1 UNK         0.1400 
      6 C6          1.7091  -15.9604  -52.7922 C.3       23 UNK        -0.0398 
      7 S7          1.5187  -17.6729  -52.1834 S.3       23 UNK        -0.2404 
      8 C8         -0.2500  -17.7143  -51.7379 C.3       23 UNK        -0.0205 
      9 C9         -0.6396  -16.6240  -50.7474 C.ar      23 UNK        -0.0193 
     10 C10        -1.5786  -15.6494  -51.1001 C.ar      23 UNK        -0.1150 
     11 C11        -1.9561  -14.6550  -50.1880 C.ar      23 UNK        -0.0193 
     12 C12        -1.3478  -14.6231  -48.9293 C.ar      23 UNK        -0.1150 
     13 C13        -0.4004  -15.5848  -48.5676 C.ar      23 UNK        -0.0193 
     14 C14        -0.0583  -16.5868  -49.4789 C.ar      23 UNK        -0.1150 
     15 C15         0.2566  -15.5468  -47.1936 C.3       23 UNK        -0.0205 
     16 S16        -0.9159  -15.7684  -45.8126 S.3       23 UNK        -0.2404 
     17 C17        -1.9682  -17.1341  -46.4027 C.3       23 UNK        -0.0398 
     18 CA         -1.2221  -18.4733  -46.6013 C.3       11 UNK         0.1400 
     19 N          -0.6747  -19.0312  -45.3591 N.am      11 UNK        -0.5000 
     20 C           0.0704  -20.1465  -45.3008 C.2       10 UNK         0.5000 
     21 O           0.4368  -20.7789  -46.2901 O.2       10 UNK        -0.5000 
     22 CA          0.4081  -20.6945  -43.9062 C.3       10 UNK         0.1400 
     23 CB          1.6775  -20.0496  -43.3443 C.3       10 UNK        -0.1800 
     24 N          -0.7009  -20.5283  -42.9696 N.am      10 UNK        -0.5000 
     25 C          -1.8221  -21.2612  -43.0114 C.2       9 UNK         0.5000 
     26 O          -2.0118  -22.1770  -43.8126 O.2       9 UNK        -0.5000 
     27 CA         -2.9367  -20.8677  -42.0266 C.3       9 UNK         0.1400 
     28 CB         -2.6868  -21.4879  -40.6441 C.3       9 UNK        -0.1800 
     29 N          -3.0758  -19.4156  -41.9002 N.am      9 UNK        -0.5000 
     30 C          -3.5027  -18.6189  -42.8911 C.2       8 UNK         0.5000 
     31 O          -3.8487  -19.0369  -43.9956 O.2       8 UNK        -0.5000 
     32 CA         -3.5166  -17.1011  -42.6273 C.3       8 UNK         0.1400 
     33 CB         -4.8892  -16.6648  -42.0946 C.3       8 UNK        -0.1800 
     34 N          -2.4766  -16.6334  -41.7097 N.am      8 UNK        -0.5000 
     35 C          -1.1559  -16.7924  -41.8709 C.2       7 UNK         0.5000 
     36 O          -0.6507  -17.4164  -42.8077 O.2       7 UNK        -0.5000 
     37 CA         -0.2364  -16.1762  -40.7945 C.3       7 UNK         0.1400 
     38 CB         -0.9831  -15.5548  -39.5921 C.3       7 UNK        -0.1800 
     39 N           0.7652  -17.1375  -40.3304 N.am      7 UNK        -0.5000 
     40 C           0.5350  -18.3439  -39.7881 C.2       6 UNK         0.5000 
     41 O          -0.5928  -18.7945  -39.5794 O.2       6 UNK        -0.5000 
     42 CA          1.7765  -19.1956  -39.4647 C.3       6 UNK         0.1400 
     43 CB          1.4636  -20.7032  -39.4224 C.3       6 UNK        -0.1800 
     44 N           2.8189  -18.9434  -40.4589 N.am      6 UNK        -0.5000 
     45 C           4.0724  -18.5548  -40.2067 C.2       5 UNK         0.5000 
     46 O           4.5436  -18.4370  -39.0751 O.2       5 UNK        -0.5000 
     47 CA          4.9436  -18.2189  -41.4341 C.3       5 UNK         0.1400 
     48 CB          5.7651  -19.4457  -41.8580 C.3       5 UNK        -0.1800 
     49 N           4.1997  -17.7269  -42.6007 N.am      5 UNK        -0.5000 
     50 C           3.4559  -16.6140  -42.6576 C.2       4 UNK         0.5000 
     51 O           3.2192  -15.9159  -41.6701 O.2       4 UNK        -0.5000 
     52 CA          2.8907  -16.2172  -44.0440 C.3       4 UNK         0.1400 
     53 CB          2.2612  -14.8126  -44.0281 C.3       4 UNK        -0.1800 
     54 N           3.8973  -16.2569  -45.1116 N.am      4 UNK        -0.5000 
     55 C           4.3929  -17.3579  -45.6934 C.2       3 UNK         0.5000 
     56 O           4.0686  -18.4977  -45.3587 O.2       3 UNK        -0.5000 
     57 CA          5.4524  -17.1445  -46.7964 C.3       3 UNK         0.1400 
     58 CB          5.6796  -18.4041  -47.6597 C.3       3 UNK        -0.1800 
     59 N           5.1969  -15.9718  -47.6435 N.am      3 UNK        -0.5000 
     60 C           4.1426  -15.7709  -48.4495 C.2       2 UNK         0.5000 
     61 O           3.1930  -16.5494  -48.5355 O.2       2 UNK        -0.5000 
     62 CA          4.1334  -14.4697  -49.2883 C.3       2 UNK         0.1400 
     63 CB          5.5139  -13.7841  -49.4009 C.3       2 UNK        -0.1800 
     64 N           3.5566  -14.6507  -50.6258 N.am      2 UNK        -0.5000 
     65 C           3.9432  -15.5324  -51.5630 C.2       1 UNK         0.5000 
     66 O           4.8811  -16.3216  -51.4311 O.2       1 UNK        -0.5000 
     67 C          -2.1478  -19.4691  -47.3227 C.2       11 UNK         0.5000 
     68 O          -2.0322  -19.6317  -48.5381 O.2       11 UNK        -0.5000 
     69 N          -3.0283  -20.1337  -46.5614 N.am      12 UNK        -0.5000 
     70 CA         -3.9047  -21.1854  -47.0626 C.3       12 UNK         0.1400 
     71 CB         -4.9302  -21.5763  -45.9890 C.3       12 UNK        -0.1800 
     72 C          -3.1114  -22.4085  -47.5452 C.2       12 UNK         0.5000 
     73 O          -3.3516  -22.8703  -48.6601 O.2       12 UNK        -0.5000 
     74 N          -2.1616  -22.8895  -46.7294 N.am      13 UNK        -0.5000 
     75 CA         -1.2913  -24.0273  -47.0436 C.3       13 UNK         0.1400 
     76 CB         -0.3870  -24.3376  -45.8425 C.3       13 UNK        -0.1800 
     77 C          -0.4523  -23.8230  -48.3196 C.2       13 UNK         0.5000 
     78 O          -0.3626  -24.7399  -49.1374 O.2       13 UNK        -0.5000 
     79 N           0.0848  -22.6076  -48.4998 N.am      14 UNK        -0.5000 
     80 CA          0.8264  -22.1740  -49.6883 C.3       14 UNK         0.1400 
     81 CB          1.4015  -20.7702  -49.4363 C.3       14 UNK        -0.1800 
     82 C          -0.0061  -22.1829  -50.9875 C.2       14 UNK         0.5000 
     83 O           0.5711  -22.2663  -52.0719 O.2       14 UNK        -0.5000 
     84 N          -1.3357  -22.1138  -50.8552 N.am      15 UNK        -0.5000 
     85 CA         -2.3060  -22.1150  -51.9454 C.3       15 UNK         0.1400 
     86 CB         -3.1744  -20.8595  -51.8072 C.3       15 UNK        -0.1800 
     87 C          -3.1527  -23.4026  -51.9737 C.2       15 UNK         0.5000 
     88 O          -4.2519  -23.3866  -52.5321 O.2       15 UNK        -0.5000 
     89 N          -2.6363  -24.4911  -51.3821 N.am      16 UNK        -0.5000 
     90 CA         -3.2264  -25.8345  -51.3412 C.3       16 UNK         0.1400 
     91 CB         -3.2690  -26.4510  -52.7559 C.3       16 UNK        -0.1800 
     92 C          -4.5943  -25.8643  -50.6273 C.2       16 UNK         0.5000 
     93 O          -5.5803  -26.3448  -51.1869 O.2       16 UNK        -0.5000 
     94 N          -4.6122  -25.3250  -49.4012 N.am      17 UNK        -0.5000 
     95 CA         -5.7737  -25.1166  -48.5288 C.3       17 UNK         0.1400 
     96 CB         -6.4879  -26.4425  -48.1902 C.3       17 UNK        -0.1800 
     97 C          -6.7141  -24.0246  -49.0778 C.2       17 UNK         0.5000 
     98 O          -7.9356  -24.1843  -49.0548 O.2       17 UNK        -0.5000 
     99 N          -6.1031  -22.9287  -49.5542 N.am      18 UNK        -0.5000 
    100 CA        -6.7272  -21.7338  -50.1346 C.3       18 UNK         0.1400 
    101 CB        -7.4938  -20.9395  -49.0568 C.3       18 UNK        -0.1800 
    102 C         -7.5827  -22.0400  -51.3833 C.2       18 UNK         0.5000 
    103 O         -8.6460  -21.4453  -51.5721 O.2       18 UNK        -0.5000 
    104 N         -7.1084  -22.9825  -52.2063 N.am      19 UNK        -0.5000 
    105 CA        -7.7592  -23.4103  -53.4404 C.3       19 UNK         0.1400 
    106 CB        -7.5217  -24.9155  -53.6359 C.3       19 UNK        -0.1800 
    107 C         -7.2312  -22.6221  -54.6480 C.2       19 UNK         0.5000 
    108 O         -8.0198  -22.2224  -55.5056 O.2       19 UNK        -0.5000 
    109 N         -5.9077  -22.4228  -54.7011 N.am      20 UNK        -0.5000 
    110 CA        -5.2181  -21.7805  -55.8207 C.3       20 UNK         0.1400 
    111 CB        -3.7685  -22.2893  -55.8586 C.3       20 UNK        -0.1800 
    112 C         -5.2372  -20.2428  -55.7491 C.2       20 UNK         0.5000 
    113 O         -5.1104  -19.5902  -56.7860 O.2       20 UNK        -0.5000 
    114 N         -5.3680  -19.6950  -54.5365 N.am      21 UNK        -0.5000 
    115 CA        -5.2553  -18.2795  -54.1956 C.3       21 UNK         0.1400 
    116 CB        -3.8111  -17.7805  -54.4454 C.3       21 UNK        -0.1800 
    117 C         -5.6626  -18.0997  -52.7219 C.2       21 UNK         0.5000 
    118 O         -6.1535  -19.0434  -52.0991 O.2       21 UNK        -0.5000 
    119 N         -5.4146  -16.9010  -52.1845 N.am      22 UNK        -0.5000 
    120 CA        -5.5582  -16.5189  -50.7674 C.3       22 UNK         0.1400 
    121 C         -4.6376  -17.2704  -49.7578 C.2       22 UNK         0.5000 
    122 N         -3.6619  -18.0457  -50.2067 N.am      22 UNK        -0.7600 
    123 O         -4.8347  -17.1647  -48.5506 O.2       22 UNK        -0.5000 
    124 C124       -5.4878  -14.9730  -50.5819 C.3       23 UNK        -0.0398 
    125 S125       -4.3018  -14.1055  -51.6801 S.3       23 UNK        -0.2404 
    126 C126       -2.9720  -13.5723  -50.5477 C.3       23 UNK        -0.0205 
    127 H127        4.8311  -11.4328  -53.8759 H         1 UNK         0.0600 
    128 H128        3.1627  -11.7439  -54.3629 H         1 UNK         0.0600 
    129 H129        4.4823  -12.0405  -55.4979 H         1 UNK         0.0600 
    130 H130        2.3633  -13.6166  -53.4879 H         1 UNK         0.3000 
    131 H131        3.6890  -16.1493  -53.5984 H         1 UNK         0.0600 
    132 H132        1.1519  -15.2804  -52.1479 H         1 UNK         0.0800 
    133 H133        1.2286  -15.9068  -53.7701 H         1 UNK         0.0800 
    134 H134       -0.8441  -17.6406  -52.6498 H         1 UNK         0.0800 
    135 H135       -0.4791  -18.6863  -51.2983 H         1 UNK         0.0800 
    136 H136       -2.0194  -15.6719  -52.0859 H         1 UNK         0.1150 
    137 H137       -1.6138  -13.8505  -48.2216 H         1 UNK         0.1150 
    138 H138        0.6761  -17.3339  -49.2114 H         1 UNK         0.1150 
    139 H139        1.0254  -16.3156  -47.1104 H         1 UNK         0.0800 
    140 H140        0.7683  -14.5912  -47.0784 H         1 UNK         0.0800 
    141 H141       -2.4391  -16.8129  -47.3331 H         1 UNK         0.0800 
    142 H142       -2.7903  -17.2593  -45.7001 H         1 UNK         0.0800 
    143 H143       -0.3741  -18.3054  -47.2654 H         1 UNK         0.0600 
    144 H144       -0.8832  -18.5328  -44.5003 H         1 UNK         0.3000 
    145 H145        0.6074  -21.7624  -44.0143 H         1 UNK         0.0600 
    146 H146        2.0131  -20.5787  -42.4545 H         1 UNK         0.0600 
    147 H147        2.4904  -20.1057  -44.0679 H         1 UNK         0.0600 
    148 H148        1.5200  -19.0009  -43.0969 H         1 UNK         0.0600 
    149 H149       -0.6613  -19.7382  -42.3405 H         1 UNK         0.3000 
    150 H150       -3.8777  -21.2661  -42.4122 H         1 UNK         0.0600 
    151 H151       -2.6280  -22.5750  -40.7109 H         1 UNK         0.0600 
    152 H152       -3.4939  -21.2480  -39.9518 H         1 UNK         0.0600 
    153 H153       -1.7526  -21.1371  -40.2049 H         1 UNK         0.0600 
    154 H154       -2.7706  -18.9977  -41.0316 H         1 UNK         0.3000 
    155 H155       -3.3511  -16.5987  -43.5809 H         1 UNK         0.0600 
    156 H156       -5.6872  -16.9744  -42.7711 H         1 UNK         0.0600 
    157 H157       -4.9500  -15.5806  -41.9989 H         1 UNK         0.0600 
    158 H158       -5.0990  -17.1019  -41.1175 H         1 UNK         0.0600 
    159 H159       -2.7962  -16.1299  -40.8952 H         1 UNK         0.3000 
    160 H160        0.3136  -15.3754  -41.2892 H         1 UNK         0.0600 
    161 H161       -0.2782  -15.1305  -38.8769 H         1 UNK         0.0600 
    162 H162       -1.5886  -16.2885  -39.0586 H         1 UNK         0.0600 
    163 H163       -1.6387  -14.7424  -39.9079 H         1 UNK         0.0600 
    164 H164        1.7266  -16.8638  -40.4997 H         1 UNK         0.3000 
    165 H165        2.1138  -18.8875  -38.4732 H         1 UNK         0.0600 
    166 H166        2.3648  -21.2878  -39.2375 H         1 UNK         0.0600 
    167 H167        0.7594  -20.9331  -38.6219 H         1 UNK         0.0600 
    168 H168        1.0212  -21.0530  -40.3554 H         1 UNK         0.0600 
    169 H169        2.5311  -18.9951  -41.4251 H         1 UNK         0.3000 
    170 H170        5.6363  -17.4307  -41.1325 H         1 UNK         0.0600 
    171 H171        6.3557  -19.8296  -41.0250 H         1 UNK         0.0600 
    172 H172        5.1241  -20.2559  -42.2083 H         1 UNK         0.0600 
    173 H173        6.4601  -19.1973  -42.6604 H         1 UNK         0.0600 
    174 H174        4.3171  -18.2433  -43.4680 H         1 UNK         0.3000 
    175 H175        2.1013  -16.9305  -44.2907 H         1 UNK         0.0600 
    176 H176        2.9746  -14.0542  -43.7033 H         1 UNK         0.0600 
    177 H177        1.9014  -14.5260  -45.0145 H         1 UNK         0.0600 
    178 H178        1.4062  -14.7746  -43.3531 H         1 UNK         0.0600 
    179 H179        4.2469  -15.3630  -45.4236 H         1 UNK         0.3000 
    180 H180        6.3869  -16.9399  -46.2724 H         1 UNK         0.0600 
    181 H181        4.7661  -18.7190  -48.1655 H         1 UNK         0.0600 
    182 H182        6.0191  -19.2417  -47.0494 H         1 UNK         0.0600 
    183 H183        6.4400  -18.2291  -48.4207 H         1 UNK         0.0600 
    184 H184        5.9221  -15.2683  -47.6390 H         1 UNK         0.3000 
    185 H185        3.4664  -13.7840  -48.7640 H         1 UNK         0.0600 
    186 H186        5.8846  -13.4657  -48.4261 H         1 UNK         0.0600 
    187 H187        6.2597  -14.4442  -49.8459 H         1 UNK         0.0600 
    188 H188        5.4550  -12.8900  -50.0219 H         1 UNK         0.0600 
    189 H189        2.7677  -14.0573  -50.8358 H         1 UNK         0.3000 
    190 H190       -3.1165  -19.8941  -45.5781 H         1 UNK         0.3000 
    191 H191       -4.4469  -20.7823  -47.9204 H         1 UNK         0.0600 
    192 H192       -4.4496  -21.9591  -45.0884 H         1 UNK         0.0600 
    193 H193       -5.6068  -22.3485  -46.3568 H         1 UNK         0.0600 
    194 H194       -5.5408  -20.7202  -45.7014 H         1 UNK         0.0600 
    195 H195       -2.0413  -22.4677  -45.8137 H         1 UNK         0.3000 
    196 H196       -1.9368  -24.8919  -47.2106 H         1 UNK         0.0600 
    197 H197        0.2334  -25.2133  -46.0371 H         1 UNK         0.0600 
    198 H198       -0.9746  -24.5476  -44.9487 H         1 UNK         0.0600 
    199 H199        0.2812  -23.5065  -45.6180 H         1 UNK         0.0600 
    200 H200       -0.0051  -21.9204  -47.7548 H         1 UNK         0.3000 
    201 H201        1.6589  -22.8656  -49.8303 H         1 UNK         0.0600 
    202 H202        2.0757  -20.7661  -48.5798 H         1 UNK         0.0600 
    203 H203        0.6126  -20.0423  -49.2433 H         1 UNK         0.0600 
    204 H204        1.9693  -20.4155  -50.2975 H         1 UNK         0.0600 
    205 H205       -1.7266  -22.0700  -49.9215 H         1 UNK         0.3000 
    206 H206       -1.7977  -22.0650  -52.9098 H         1 UNK         0.0600 
    207 H207       -2.5714  -19.9629  -51.9413 H         1 UNK         0.0600 
    208 H208       -3.9640  -20.8328  -52.5546 H         1 UNK         0.0600 
    209 H209       -3.6419  -20.8074  -50.8241 H         1 UNK         0.0600 
    210 H210       -1.7487  -24.3908  -50.9049 H         1 UNK         0.3000 
    211 H211       -2.5534  -26.4462  -50.7385 H         1 UNK         0.0600 
    212 H212       -3.9478  -25.9110  -53.4168 H         1 UNK         0.0600 
    213 H213       -3.6064  -27.4873  -52.7191 H         1 UNK         0.0600 
    214 H214       -2.2811  -26.4480  -53.2163 H         1 UNK         0.0600 
    215 H215       -3.7670  -24.8595  -49.0925 H         1 UNK         0.3000 
    216 H216       -5.3754  -24.7232  -47.5926 H         1 UNK         0.0600 
    217 H217       -7.2389  -26.2899  -47.4144 H         1 UNK         0.0600 
    218 H218       -5.7837  -27.1864  -47.8180 H         1 UNK         0.0600 
    219 H219       -6.9995  -26.8657  -49.0549 H         1 UNK         0.0600 
    220 H220       -5.0886  -22.9154  -49.5110 H         1 UNK         0.3000 
    221 H221       -5.9079  -21.1039  -50.4776 H         1 UNK         0.0600 
    222 H222       -8.3679  -21.4834  -48.6979 H         1 UNK         0.0600 
    223 H223       -6.8603  -20.7184  -48.1989 H         1 UNK         0.0600 
    224 H224       -7.8404  -19.9844  -49.4533 H         1 UNK         0.0600 
    225 H225       -6.2007  -23.3909  -52.0100 H         1 UNK         0.3000 
    226 H226       -8.8368  -23.2469  -53.3713 H         1 UNK         0.0600 
    227 H227       -7.9329  -25.4884  -52.8044 H         1 UNK         0.0600 
    228 H228       -8.0009  -25.2730  -54.5480 H         1 UNK         0.0600 
    229 H229       -6.4589  -25.1514  -53.7066 H         1 UNK         0.0600 
    230 H230       -5.3253  -22.7878  -53.9512 H         1 UNK         0.3000 
    231 H231       -5.7032  -22.0758  -56.7536 H         1 UNK         0.0600 
    232 H232       -3.7326  -23.3759  -55.9402 H         1 UNK         0.0600 
    233 H233       -3.2190  -22.0021  -54.9621 H         1 UNK         0.0600 
    234 H234       -3.2330  -21.8803  -56.7163 H         1 UNK         0.0600 
    235 H235       -5.5612  -20.2918  -53.7421 H         1 UNK         0.3000 
    236 H236       -5.9548  -17.7117  -54.8117 H         1 UNK         0.0600 
    237 H237       -3.7051  -16.7179  -54.2257 H         1 UNK         0.0600 
    238 H238       -3.0902  -18.3188  -53.8297 H         1 UNK         0.0600 
    239 H239       -3.5136  -17.9074  -55.4858 H         1 UNK         0.0600 
    240 H240       -5.0056  -16.1830  -52.7653 H         1 UNK         0.3000 
    241 H241       -6.5660  -16.8237  -50.4792 H         1 UNK         0.0600 
    242 H242       -3.0737  -18.5607  -49.5568 H         1 UNK         0.3800 
    243 H243       -3.5045  -18.1278  -51.1937 H         1 UNK         0.3800 
    244 H244       -6.4699  -14.5574  -50.8105 H         1 UNK         0.0800 
    245 H245       -5.3040  -14.6960  -49.5423 H         1 UNK         0.0800 
    246 H246       -3.4229  -13.1543  -49.6463 H         1 UNK         0.0800 
    247 H247       -2.4302  -12.7544  -51.0238 H         1 UNK         0.0800 
@<TRIPOS>BOND
     1    1    2 1    
     2    1  127 1    
     3    1  128 1    
     4    1  129 1    
     5    2    3 2    
     6    2    4 am   BACKBONE|DICT|INTERRES
     7    4    5 1    
     8    4  130 1    
     9    5    6 1    
    10    5   65 1    
    11    5  131 1    
    12    6    7 1    
    13    6  132 1    
    14    6  133 1    
    15    7    8 1    
    16    8    9 1    
    17    8  134 1    
    18    8  135 1    
    19    9   10 ar   
    20    9   14 ar   
    21   10   11 ar   
    22   10  136 1    
    23   11   12 ar   
    24   11  126 1    
    25   12   13 ar   
    26   12  137 1    
    27   13   14 ar   
    28   13   15 1    
    29   14  138 1    
    30   15   16 1    
    31   15  139 1    
    32   15  140 1    
    33   16   17 1    
    34   17   18 1    
    35   17  141 1    
    36   17  142 1    
    37   18   19 1    
    38   18   67 1    
    39   18  143 1    
    40   19   20 am   BACKBONE|DICT|INTERRES
    41   19  144 1    
    42   20   21 2    
    43   20   22 1    
    44   22   23 1    
    45   22   24 1    
    46   22  145 1    
    47   23  146 1    
    48   23  147 1    
    49   23  148 1    
    50   24   25 am   BACKBONE|DICT|INTERRES
    51   24  149 1    
    52   25   26 2    
    53   25   27 1    
    54   27   28 1    
    55   27   29 1    
    56   27  150 1    
    57   28  151 1    
    58   28  152 1    
    59   28  153 1    
    60   29   30 am   BACKBONE|DICT|INTERRES
    61   29  154 1    
    62   30   31 2    
    63   30   32 1    
    64   32   33 1    
    65   32   34 1    
    66   32  155 1    
    67   33  156 1    
    68   33  157 1    
    69   33  158 1    
    70   34   35 am   BACKBONE|DICT|INTERRES
    71   34  159 1    
    72   35   36 2    
    73   35   37 1    
    74   37   38 1    
    75   37   39 1    
    76   37  160 1    
    77   38  161 1    
    78   38  162 1    
    79   38  163 1    
    80   39   40 am   BACKBONE|DICT|INTERRES
    81   39  164 1    
    82   40   41 2    
    83   40   42 1    
    84   42   43 1    
    85   42   44 1    
    86   42  165 1    
    87   43  166 1    
    88   43  167 1    
    89   43  168 1    
    90   44   45 am   BACKBONE|DICT|INTERRES
    91   44  169 1    
    92   45   46 2    
    93   45   47 1    
    94   47   48 1    
    95   47   49 1    
    96   47  170 1    
    97   48  171 1    
    98   48  172 1    
    99   48  173 1    
   100   49   50 am   BACKBONE|DICT|INTERRES
   101   49  174 1    
   102   50   51 2    
   103   50   52 1    
   104   52   53 1    
   105   52   54 1    
   106   52  175 1    
   107   53  176 1    
   108   53  177 1    
   109   53  178 1    
   110   54   55 am   BACKBONE|DICT|INTERRES
   111   54  179 1    
   112   55   56 2    
   113   55   57 1    
   114   57   58 1    
   115   57   59 1    
   116   57  180 1    
   117   58  181 1    
   118   58  182 1    
   119   58  183 1    
   120   59   60 am   BACKBONE|DICT|INTERRES
   121   59  184 1    
   122   60   61 2    
   123   60   62 1    
   124   62   63 1    
   125   62   64 1    
   126   62  185 1    
   127   63  186 1    
   128   63  187 1    
   129   63  188 1    
   130   64   65 am   BACKBONE|DICT|INTERRES
   131   64  189 1    
   132   65   66 2    
   133   67   68 2    
   134   67   69 am   BACKBONE|DICT|INTERRES
   135   69   70 1    
   136   69  190 1    
   137   70   71 1    
   138   70   72 1    
   139   70  191 1    
   140   71  192 1    
   141   71  193 1    
   142   71  194 1    
   143   72   73 2    
   144   72   74 am   BACKBONE|DICT|INTERRES
   145   74   75 1    
   146   74  195 1    
   147   75   76 1    
   148   75   77 1    
   149   75  196 1    
   150   76  197 1    
   151   76  198 1    
   152   76  199 1    
   153   77   78 2    
   154   77   79 am   BACKBONE|DICT|INTERRES
   155   79   80 1    
   156   79  200 1    
   157   80   81 1    
   158   80   82 1    
   159   80  201 1    
   160   81  202 1    
   161   81  203 1    
   162   81  204 1    
   163   82   83 2    
   164   82   84 am   BACKBONE|DICT|INTERRES
   165   84   85 1    
   166   84  205 1    
   167   85   86 1    
   168   85   87 1    
   169   85  206 1    
   170   86  207 1    
   171   86  208 1    
   172   86  209 1    
   173   87   88 2    
   174   87   89 am   BACKBONE|DICT|INTERRES
   175   89   90 1    
   176   89  210 1    
   177   90   91 1    
   178   90   92 1    
   179   90  211 1    
   180   91  212 1    
   181   91  213 1    
   182   91  214 1    
   183   92   93 2    
   184   92   94 am   BACKBONE|DICT|INTERRES
   185   94   95 1    
   186   94  215 1    
   187   95   96 1    
   188   95   97 1    
   189   95  216 1    
   190   96  217 1    
   191   96  218 1    
   192   96  219 1    
   193   97   98 2    
   194   97   99 am   BACKBONE|DICT|INTERRES
   195   99  100 1    
   196   99  220 1    
   197  100  101 1    
   198  100  102 1    
   199  100  221 1    
   200  101  222 1    
   201  101  223 1    
   202  101  224 1    
   203  102  103 2    
   204  102  104 am   BACKBONE|DICT|INTERRES
   205  104  105 1    
   206  104  225 1    
   207  105  106 1    
   208  105  107 1    
   209  105  226 1    
   210  106  227 1    
   211  106  228 1    
   212  106  229 1    
   213  107  108 2    
   214  107  109 am   BACKBONE|DICT|INTERRES
   215  109  110 1    
   216  109  230 1    
   217  110  111 1    
   218  110  112 1    
   219  110  231 1    
   220  111  232 1    
   221  111  233 1    
   222  111  234 1    
   223  112  113 2    
   224  112  114 am   BACKBONE|DICT|INTERRES
   225  114  115 1    
   226  114  235 1    
   227  115  116 1    
   228  115  117 1    
   229  115  236 1    
   230  116  237 1    
   231  116  238 1    
   232  116  239 1    
   233  117  118 2    
   234  117  119 am   BACKBONE|DICT|INTERRES
   235  119  120 1    
   236  119  240 1    
   237  120  121 1    
   238  120  124 1    
   239  120  241 1    
   240  121  122 am   BACKBONE|DICT|INTERRES
   241  121  123 2    
   242  122  242 1    
   243  122  243 1    
   244  124  125 1    
   245  124  244 1    
   246  124  245 1    
   247  125  126 1    
   248  126  246 1    
   249  126  247 1    
@<TRIPOS>SUBSTRUCTURE
     1 UNK         1 GROUP             0       ****    0 ROOT    
