@<TRIPOS>MOLECULE
3R540
247   249    1
SMALL
USER_CHARGES


@<TRIPOS>ATOM
      1 CA         -0.5043  -10.2429  -48.5842 C.3       0 UNK        -0.1800 
      2 C           0.2011  -11.4228  -47.9326 C.2       0 UNK         0.5000 
      3 O           0.1321  -11.5777  -46.7137 O.2       0 UNK        -0.5000 
      4 N           0.9000  -12.2377  -48.7346 N.am      1 UNK        -0.5000 
      5 CA          1.6099  -13.4807  -48.3791 C.3       1 UNK         0.1400 
      6 C6          0.7084  -14.5386  -47.6911 C.3       23 UNK        -0.0398 
      7 S7         -0.7037  -15.0724  -48.7137 S.3       23 UNK        -0.2404 
      8 C8         -0.6328  -16.8751  -48.4781 C.3       23 UNK        -0.0205 
      9 C9          0.3247  -17.5496  -49.4493 C.ar      23 UNK        -0.0193 
     10 C10        -0.1398  -17.9845  -50.6939 C.ar      23 UNK        -0.1150 
     11 C11         0.7163  -18.6368  -51.5850 C.ar      23 UNK        -0.0193 
     12 C12         2.0516  -18.8417  -51.2286 C.ar      23 UNK        -0.1150 
     13 C13         2.5332  -18.4060  -49.9907 C.ar      23 UNK        -0.0193 
     14 C14         1.6630  -17.7644  -49.1031 C.ar      23 UNK        -0.1150 
     15 C15         3.9988  -18.6224  -49.6286 C.3       23 UNK        -0.0205 
     16 S16         4.2361  -19.5724  -48.0912 S.3       23 UNK        -0.2404 
     17 C17         3.1335  -21.0011  -48.3612 C.3       23 UNK        -0.0398 
     18 CA          3.4984  -22.2224  -47.4825 C.3       11 UNK         0.1400 
     19 N           3.4071  -21.9143  -46.0504 N.am      11 UNK        -0.5000 
     20 C           4.0139  -22.6020  -45.0752 C.2       10 UNK         0.5000 
     21 O           4.7365  -23.5789  -45.2754 O.2       10 UNK        -0.5000 
     22 CA          3.7515  -22.1334  -43.6312 C.3       10 UNK         0.1400 
     23 CB          4.6354  -20.9265  -43.2822 C.3       10 UNK        -0.1800 
     24 N           2.3468  -21.8032  -43.3762 N.am      10 UNK        -0.5000 
     25 C           1.3428  -22.6925  -43.3813 C.2       9 UNK         0.5000 
     26 O           1.4917  -23.8916  -43.6166 O.2       9 UNK        -0.5000 
     27 CA         -0.0715  -22.1514  -43.1008 C.3       9 UNK         0.1400 
     28 CB         -0.2857  -21.9353  -41.5952 C.3       9 UNK        -0.1800 
     29 N          -0.3498  -20.9082  -43.8164 N.am      9 UNK        -0.5000 
     30 C          -0.4385  -20.8043  -45.1491 C.2       8 UNK         0.5000 
     31 O          -0.3608  -21.7622  -45.9183 O.2       8 UNK        -0.5000 
     32 CA         -0.5845  -19.3840  -45.7248 C.3       8 UNK         0.1400 
     33 CB         -2.0504  -18.9279  -45.6732 C.3       8 UNK        -0.1800 
     34 N           0.2759  -18.4040  -45.0535 N.am      8 UNK        -0.5000 
     35 C           1.6129  -18.4997  -44.9997 C.2       7 UNK         0.5000 
     36 O           2.2465  -19.4126  -45.5212 O.2       7 UNK        -0.5000 
     37 CA          2.3729  -17.4431  -44.1851 C.3       7 UNK         0.1400 
     38 CB          2.6211  -16.1785  -45.0089 C.3       7 UNK        -0.1800 
     39 N           1.6871  -17.1042  -42.9421 N.am      7 UNK        -0.5000 
     40 C           1.5807  -17.9428  -41.9027 C.2       6 UNK         0.5000 
     41 O           2.1045  -19.0570  -41.8619 O.2       6 UNK        -0.5000 
     42 CA          0.6833  -17.4772  -40.7442 C.3       6 UNK         0.1400 
     43 CB          1.4111  -16.4560  -39.8571 C.3       6 UNK        -0.1800 
     44 N          -0.5728  -16.9031  -41.2282 N.am      6 UNK        -0.5000 
     45 C          -1.5148  -17.5998  -41.8798 C.2       5 UNK         0.5000 
     46 O          -1.4392  -18.8078  -42.1021 O.2       5 UNK        -0.5000 
     47 CA         -2.7358  -16.8183  -42.3943 C.3       5 UNK         0.1400 
     48 CB         -3.8593  -16.8338  -41.3472 C.3       5 UNK        -0.1800 
     49 N          -2.4477  -15.4332  -42.7660 N.am      5 UNK        -0.5000 
     50 C          -1.6123  -15.0296  -43.7340 C.2       4 UNK         0.5000 
     51 O          -0.9254  -15.8000  -44.4091 O.2       4 UNK        -0.5000 
     52 CA         -1.5649  -13.5090  -44.0097 C.3       4 UNK         0.1400 
     53 CB         -2.2697  -12.6559  -42.9304 C.3       4 UNK        -0.1800 
     54 N          -0.2253  -12.9645  -44.2393 N.am      4 UNK        -0.5000 
     55 C           0.8723  -13.1168  -43.4881 C.2       3 UNK         0.5000 
     56 O           0.9907  -13.9235  -42.5619 O.2       3 UNK        -0.5000 
     57 CA          2.0218  -12.1500  -43.8037 C.3       3 UNK         0.1400 
     58 CB          2.1387  -11.0717  -42.7151 C.3       3 UNK        -0.1800 
     59 N           3.2777  -12.8886  -43.8832 N.am      3 UNK        -0.5000 
     60 C           4.2701  -12.7529  -44.7759 C.2       2 UNK         0.5000 
     61 O           5.2941  -13.4293  -44.6828 O.2       2 UNK        -0.5000 
     62 CA          4.1209  -11.7519  -45.9514 C.3       2 UNK         0.1400 
     63 CB          5.4402  -11.5254  -46.7195 C.3       2 UNK        -0.1800 
     64 N           3.0493  -12.1299  -46.8823 N.am      2 UNK        -0.5000 
     65 C           2.9097  -13.2764  -47.5631 C.2       1 UNK         0.5000 
     66 O           3.7575  -14.1682  -47.5783 O.2       1 UNK        -0.5000 
     67 C           2.6225  -23.4286  -47.8857 C.2       11 UNK         0.5000 
     68 O           2.8009  -23.9468  -48.9887 O.2       11 UNK        -0.5000 
     69 N           1.6839  -23.8290  -47.0125 N.am      12 UNK        -0.5000 
     70 CA          0.6304  -24.8253  -47.2322 C.3       12 UNK         0.1400 
     71 CB          1.2242  -26.2383  -47.4070 C.3       12 UNK        -0.1800 
     72 C          -0.3045  -24.4022  -48.3839 C.2       12 UNK         0.5000 
     73 O          -0.5646  -25.1778  -49.3037 O.2       12 UNK        -0.5000 
     74 N          -0.7641  -23.1466  -48.3145 N.am      13 UNK        -0.5000 
     75 CA         -1.5708  -22.4818  -49.3359 C.3       13 UNK         0.1400 
     76 CB         -1.3937  -20.9643  -49.1928 C.3       13 UNK        -0.1800 
     77 C          -3.0617  -22.8564  -49.3009 C.2       13 UNK         0.5000 
     78 O          -3.7766  -22.5240  -50.2473 O.2       13 UNK        -0.5000 
     79 N          -3.4996  -23.5350  -48.2307 N.am      14 UNK        -0.5000 
     80 CA         -4.8828  -23.9028  -47.9215 C.3       14 UNK         0.1400 
     81 CB         -5.4461  -24.9160  -48.9427 C.3       14 UNK        -0.1800 
     82 C          -5.7449  -22.6424  -47.7208 C.2       14 UNK         0.5000 
     83 O          -5.5036  -21.9126  -46.7576 O.2       14 UNK        -0.5000 
     84 N          -6.7159  -22.3951  -48.6096 N.am      15 UNK        -0.5000 
     85 CA         -7.5688  -21.2067  -48.5614 C.3       15 UNK         0.1400 
     86 CB         -8.8842  -21.4929  -49.2969 C.3       15 UNK        -0.1800 
     87 C          -6.8794  -19.9598  -49.1451 C.2       15 UNK         0.5000 
     88 O          -7.2925  -18.8465  -48.8185 O.2       15 UNK        -0.5000 
     89 N          -5.8570  -20.1646  -49.9911 N.am      16 UNK        -0.5000 
     90 CA         -4.9838  -19.1821  -50.6466 C.3       16 UNK         0.1400 
     91 CB         -4.1929  -18.3625  -49.6094 C.3       16 UNK        -0.1800 
     92 C          -5.6899  -18.2569  -51.6583 C.2       16 UNK         0.5000 
     93 O          -5.2543  -18.1713  -52.8052 O.2       16 UNK        -0.5000 
     94 N          -6.7513  -17.5707  -51.2215 N.am      17 UNK        -0.5000 
     95 CA         -7.5400  -16.6371  -52.0265 C.3       17 UNK         0.1400 
     96 CB         -8.2528  -15.6517  -51.0877 C.3       17 UNK        -0.1800 
     97 C          -8.5604  -17.3504  -52.9319 C.2       17 UNK         0.5000 
     98 O          -8.8864  -16.8325  -54.0009 O.2       17 UNK        -0.5000 
     99 N          -9.0457  -18.5142  -52.4827 N.am      18 UNK        -0.5000 
    100 CA        -9.9747  -19.3787  -53.2037 C.3       18 UNK         0.1400 
    101 CB       -11.1493  -19.7400  -52.2719 C.3       18 UNK        -0.1800 
    102 C         -9.1876  -20.5950  -53.7169 C.2       18 UNK         0.5000 
    103 O         -8.5033  -20.4849  -54.7351 O.2       18 UNK        -0.5000 
    104 N         -9.2736  -21.7218  -52.9983 N.am      19 UNK        -0.5000 
    105 CA        -8.4864  -22.9322  -53.2212 C.3       19 UNK         0.1400 
    106 CB        -9.1236  -24.0946  -52.4398 C.3       19 UNK        -0.1800 
    107 C         -7.0173  -22.7070  -52.8158 C.2       19 UNK         0.5000 
    108 O         -6.6616  -22.9004  -51.6514 O.2       19 UNK        -0.5000 
    109 N         -6.2073  -22.2595  -53.7796 N.am      20 UNK        -0.5000 
    110 CA        -4.7695  -22.0672  -53.6444 C.3       20 UNK         0.1400 
    111 CB        -4.3055  -21.0329  -54.6838 C.3       20 UNK        -0.1800 
    112 C         -4.0553  -23.4141  -53.8359 C.2       20 UNK         0.5000 
    113 O         -3.9029  -23.8664  -54.9724 O.2       20 UNK        -0.5000 
    114 N         -3.6520  -24.0430  -52.7271 N.am      21 UNK        -0.5000 
    115 CA        -2.8702  -25.2848  -52.7324 C.3       21 UNK         0.1400 
    116 CB        -3.1518  -26.0649  -51.4408 C.3       21 UNK        -0.1800 
    117 C         -1.3582  -25.0357  -52.9207 C.2       21 UNK         0.5000 
    118 O         -0.6181  -25.9789  -53.2034 O.2       21 UNK        -0.5000 
    119 N         -0.9323  -23.7763  -52.7702 N.am      22 UNK        -0.5000 
    120 CA         0.4243  -23.2783  -53.0294 C.3       22 UNK         0.1400 
    121 C          0.8185  -23.3191  -54.5343 C.2       22 UNK         0.5000 
    122 N          2.1065  -23.4155  -54.8368 N.am      22 UNK        -0.7600 
    123 O         -0.0193  -23.2346  -55.4297 O.2       22 UNK        -0.5000 
    124 C124        0.6327  -21.8647  -52.4179 C.3       23 UNK        -0.0398 
    125 S125       -0.7101  -20.6791  -52.8020 S.3       23 UNK        -0.2404 
    126 C126        0.1991  -19.1090  -52.9358 C.3       23 UNK        -0.0205 
    127 H127       -1.5768  -10.3009  -48.3986 H         1 UNK         0.0600 
    128 H128       -0.3461  -10.2200  -49.6626 H         1 UNK         0.0600 
    129 H129       -0.1347   -9.3071  -48.1651 H         1 UNK         0.0600 
    130 H130        0.9286  -12.0171  -49.7204 H         1 UNK         0.3000 
    131 H131        1.9333  -13.9054  -49.3311 H         1 UNK         0.0600 
    132 H132        1.3024  -15.4177  -47.4501 H         1 UNK         0.0800 
    133 H133        0.3231  -14.1758  -46.7385 H         1 UNK         0.0800 
    134 H134       -0.3478  -17.0917  -47.4496 H         1 UNK         0.0800 
    135 H135       -1.6342  -17.2863  -48.6026 H         1 UNK         0.0800 
    136 H136       -1.1730  -17.8253  -50.9679 H         1 UNK         0.1150 
    137 H137        2.7181  -19.3381  -51.9196 H         1 UNK         0.1150 
    138 H138        2.0332  -17.4455  -48.1398 H         1 UNK         0.1150 
    139 H139        4.4813  -17.6505  -49.5182 H         1 UNK         0.0800 
    140 H140        4.5243  -19.1353  -50.4355 H         1 UNK         0.0800 
    141 H141        2.1070  -20.6839  -48.1659 H         1 UNK         0.0800 
    142 H142        3.1795  -21.2649  -49.4196 H         1 UNK         0.0800 
    143 H143        4.5318  -22.4967  -47.7049 H         1 UNK         0.0600 
    144 H144        2.8869  -21.0713  -45.8078 H         1 UNK         0.3000 
    145 H145        4.0247  -22.9532  -42.9635 H         1 UNK         0.0600 
    146 H146        4.4993  -20.6241  -42.2437 H         1 UNK         0.0600 
    147 H147        4.4110  -20.0670  -43.9137 H         1 UNK         0.0600 
    148 H148        5.6912  -21.1647  -43.4167 H         1 UNK         0.0600 
    149 H149        2.1409  -20.8354  -43.1581 H         1 UNK         0.3000 
    150 H150       -0.7884  -22.9017  -43.4407 H         1 UNK         0.0600 
    151 H151       -0.0929  -22.8519  -41.0364 H         1 UNK         0.0600 
    152 H152       -1.3120  -21.6345  -41.3837 H         1 UNK         0.0600 
    153 H153        0.3751  -21.1627  -41.2004 H         1 UNK         0.0600 
    154 H154       -0.4828  -20.0757  -43.2495 H         1 UNK         0.3000 
    155 H155       -0.2719  -19.4206  -46.7699 H         1 UNK         0.0600 
    156 H156       -2.6772  -19.5554  -46.3073 H         1 UNK         0.0600 
    157 H157       -2.1676  -17.8993  -46.0135 H         1 UNK         0.0600 
    158 H158       -2.4524  -18.9969  -44.6639 H         1 UNK         0.0600 
    159 H159       -0.1748  -17.5951  -44.6354 H         1 UNK         0.3000 
    160 H160        3.3473  -17.8663  -43.9331 H         1 UNK         0.0600 
    161 H161        1.7084  -15.6004  -45.1461 H         1 UNK         0.0600 
    162 H162        3.0232  -16.4206  -45.9935 H         1 UNK         0.0600 
    163 H163        3.3532  -15.5446  -44.5138 H         1 UNK         0.0600 
    164 H164        1.2036  -16.2148  -42.9079 H         1 UNK         0.3000 
    165 H165        0.4450  -18.3511  -40.1341 H         1 UNK         0.0600 
    166 H166        0.8030  -16.1783  -38.9961 H         1 UNK         0.0600 
    167 H167        2.3459  -16.8683  -39.4753 H         1 UNK         0.0600 
    168 H168        1.6536  -15.5441  -40.4041 H         1 UNK         0.0600 
    169 H169       -0.6950  -15.9068  -41.1186 H         1 UNK         0.3000 
    170 H170       -3.1033  -17.3237  -43.2874 H         1 UNK         0.0600 
    171 H171       -4.1182  -17.8560  -41.0674 H         1 UNK         0.0600 
    172 H172       -3.5688  -16.3079  -40.4368 H         1 UNK         0.0600 
    173 H173       -4.7652  -16.3654  -41.7323 H         1 UNK         0.0600 
    174 H174       -2.9629  -14.7247  -42.2641 H         1 UNK         0.3000 
    175 H175       -2.1056  -13.3661  -44.9463 H         1 UNK         0.0600 
    176 H176       -1.8079  -12.7813  -41.9499 H         1 UNK         0.0600 
    177 H177       -2.2217  -11.5960  -43.1811 H         1 UNK         0.0600 
    178 H178       -3.3275  -12.9070  -42.8433 H         1 UNK         0.0600 
    179 H179       -0.1628  -12.3383  -45.0398 H         1 UNK         0.3000 
    180 H180        1.7899  -11.6426  -44.7354 H         1 UNK         0.0600 
    181 H181        2.9253  -10.3549  -42.9511 H         1 UNK         0.0600 
    182 H182        2.3637  -11.5063  -41.7402 H         1 UNK         0.0600 
    183 H183        1.2072  -10.5123  -42.6185 H         1 UNK         0.0600 
    184 H184        3.3729  -13.5935  -43.1658 H         1 UNK         0.3000 
    185 H185        3.8417  -10.7913  -45.5165 H         1 UNK         0.0600 
    186 H186        5.3166  -10.7747  -47.5001 H         1 UNK         0.0600 
    187 H187        6.2243  -11.1705  -46.0496 H         1 UNK         0.0600 
    188 H188        5.8026  -12.4397  -47.1903 H         1 UNK         0.0600 
    189 H189        2.2644  -11.4925  -46.9258 H         1 UNK         0.3000 
    190 H190        1.6159  -23.3170  -46.1430 H         1 UNK         0.3000 
    191 H191        0.0225  -24.8329  -46.3262 H         1 UNK         0.0600 
    192 H192        0.4337  -26.9881  -47.4513 H         1 UNK         0.0600 
    193 H193        1.8724  -26.4981  -46.5700 H         1 UNK         0.0600 
    194 H194        1.8076  -26.3270  -48.3237 H         1 UNK         0.0600 
    195 H195       -0.5289  -22.5938  -47.4907 H         1 UNK         0.3000 
    196 H196       -1.1949  -22.7785  -50.3125 H         1 UNK         0.0600 
    197 H197       -1.8005  -20.6042  -48.2495 H         1 UNK         0.0600 
    198 H198       -1.9074  -20.4339  -49.9949 H         1 UNK         0.0600 
    199 H199       -0.3423  -20.6798  -49.2396 H         1 UNK         0.0600 
    200 H200       -2.8256  -23.7277  -47.5043 H         1 UNK         0.3000 
    201 H201       -4.8578  -24.4044  -46.9530 H         1 UNK         0.0600 
    202 H202       -5.4459  -24.5310  -49.9615 H         1 UNK         0.0600 
    203 H203       -6.4709  -25.1952  -48.6952 H         1 UNK         0.0600 
    204 H204       -4.8577  -25.8331  -48.9374 H         1 UNK         0.0600 
    205 H205       -6.8008  -22.9858  -49.4291 H         1 UNK         0.3000 
    206 H206       -7.8133  -20.9882  -47.5195 H         1 UNK         0.0600 
    207 H207       -9.3912  -22.3628  -48.8792 H         1 UNK         0.0600 
    208 H208       -9.5678  -20.6469  -49.2157 H         1 UNK         0.0600 
    209 H209       -8.7122  -21.6788  -50.3540 H         1 UNK         0.0600 
    210 H210       -5.6238  -21.1304  -50.1962 H         1 UNK         0.3000 
    211 H211       -4.2574  -19.7683  -51.2113 H         1 UNK         0.0600 
    212 H212       -4.8413  -17.7285  -49.0044 H         1 UNK         0.0600 
    213 H213       -3.4731  -17.7100  -50.1039 H         1 UNK         0.0600 
    214 H214       -3.6393  -19.0112  -48.9316 H         1 UNK         0.0600 
    215 H215       -7.0492  -17.7335  -50.2620 H         1 UNK         0.3000 
    216 H216       -6.8651  -16.0671  -52.6687 H         1 UNK         0.0600 
    217 H217       -7.5357  -15.0913  -50.4875 H         1 UNK         0.0600 
    218 H218       -8.9322  -16.1649  -50.4059 H         1 UNK         0.0600 
    219 H219       -8.8394  -14.9268  -51.6537 H         1 UNK         0.0600 
    220 H220       -8.6845  -18.8670  -51.6093 H         1 UNK         0.3000 
    221 H221      -10.3859  -18.8689  -54.0774 H         1 UNK         0.0600 
    222 H222      -11.8337  -20.4394  -52.7542 H         1 UNK         0.0600 
    223 H223      -10.8168  -20.1863  -51.3347 H         1 UNK         0.0600 
    224 H224      -11.7271  -18.8504  -52.0203 H         1 UNK         0.0600 
    225 H225       -9.8690  -21.7245  -52.1841 H         1 UNK         0.3000 
    226 H226       -8.5202  -23.1853  -54.2831 H         1 UNK         0.0600 
    227 H227      -10.1401  -24.2884  -52.7824 H         1 UNK         0.0600 
    228 H228       -8.5534  -25.0140  -52.5788 H         1 UNK         0.0600 
    229 H229       -9.1643  -23.8951  -51.3685 H         1 UNK         0.0600 
    230 H230       -6.5983  -22.0798  -54.6940 H         1 UNK         0.3000 
    231 H231       -4.5440  -21.6736  -52.6522 H         1 UNK         0.0600 
    232 H232       -3.2347  -20.8464  -54.5964 H         1 UNK         0.0600 
    233 H233       -4.8148  -20.0801  -54.5469 H         1 UNK         0.0600 
    234 H234       -4.4992  -21.3641  -55.7048 H         1 UNK         0.0600 
    235 H235       -3.8417  -23.6150  -51.8236 H         1 UNK         0.3000 
    236 H236       -3.1959  -25.9088  -53.5672 H         1 UNK         0.0600 
    237 H237       -2.8884  -25.4884  -50.5558 H         1 UNK         0.0600 
    238 H238       -4.2057  -26.3330  -51.3677 H         1 UNK         0.0600 
    239 H239       -2.5782  -26.9919  -51.4086 H         1 UNK         0.0600 
    240 H240       -1.6243  -23.0626  -52.6001 H         1 UNK         0.3000 
    241 H241        1.1047  -23.9576  -52.5116 H         1 UNK         0.0600 
    242 H242        2.3788  -23.4321  -55.8076 H         1 UNK         0.3800 
    243 H243        2.8174  -23.4882  -54.1253 H         1 UNK         0.3800 
    244 H244        1.5905  -21.4501  -52.7357 H         1 UNK         0.0800 
    245 H245        0.7076  -21.9432  -51.3332 H         1 UNK         0.0800 
    246 H246       -0.4685  -18.3527  -53.3511 H         1 UNK         0.0800 
    247 H247        1.0165  -19.2167  -53.6504 H         1 UNK         0.0800 
@<TRIPOS>BOND
     1    1    2 1    
     2    1  127 1    
     3    1  128 1    
     4    1  129 1    
     5    2    3 2    
     6    2    4 am   BACKBONE|DICT|INTERRES
     7    4    5 1    
     8    4  130 1    
     9    5    6 1    
    10    5   65 1    
    11    5  131 1    
    12    6    7 1    
    13    6  132 1    
    14    6  133 1    
    15    7    8 1    
    16    8    9 1    
    17    8  134 1    
    18    8  135 1    
    19    9   10 ar   
    20    9   14 ar   
    21   10   11 ar   
    22   10  136 1    
    23   11   12 ar   
    24   11  126 1    
    25   12   13 ar   
    26   12  137 1    
    27   13   14 ar   
    28   13   15 1    
    29   14  138 1    
    30   15   16 1    
    31   15  139 1    
    32   15  140 1    
    33   16   17 1    
    34   17   18 1    
    35   17  141 1    
    36   17  142 1    
    37   18   19 1    
    38   18   67 1    
    39   18  143 1    
    40   19   20 am   BACKBONE|DICT|INTERRES
    41   19  144 1    
    42   20   21 2    
    43   20   22 1    
    44   22   23 1    
    45   22   24 1    
    46   22  145 1    
    47   23  146 1    
    48   23  147 1    
    49   23  148 1    
    50   24   25 am   BACKBONE|DICT|INTERRES
    51   24  149 1    
    52   25   26 2    
    53   25   27 1    
    54   27   28 1    
    55   27   29 1    
    56   27  150 1    
    57   28  151 1    
    58   28  152 1    
    59   28  153 1    
    60   29   30 am   BACKBONE|DICT|INTERRES
    61   29  154 1    
    62   30   31 2    
    63   30   32 1    
    64   32   33 1    
    65   32   34 1    
    66   32  155 1    
    67   33  156 1    
    68   33  157 1    
    69   33  158 1    
    70   34   35 am   BACKBONE|DICT|INTERRES
    71   34  159 1    
    72   35   36 2    
    73   35   37 1    
    74   37   38 1    
    75   37   39 1    
    76   37  160 1    
    77   38  161 1    
    78   38  162 1    
    79   38  163 1    
    80   39   40 am   BACKBONE|DICT|INTERRES
    81   39  164 1    
    82   40   41 2    
    83   40   42 1    
    84   42   43 1    
    85   42   44 1    
    86   42  165 1    
    87   43  166 1    
    88   43  167 1    
    89   43  168 1    
    90   44   45 am   BACKBONE|DICT|INTERRES
    91   44  169 1    
    92   45   46 2    
    93   45   47 1    
    94   47   48 1    
    95   47   49 1    
    96   47  170 1    
    97   48  171 1    
    98   48  172 1    
    99   48  173 1    
   100   49   50 am   BACKBONE|DICT|INTERRES
   101   49  174 1    
   102   50   51 2    
   103   50   52 1    
   104   52   53 1    
   105   52   54 1    
   106   52  175 1    
   107   53  176 1    
   108   53  177 1    
   109   53  178 1    
   110   54   55 am   BACKBONE|DICT|INTERRES
   111   54  179 1    
   112   55   56 2    
   113   55   57 1    
   114   57   58 1    
   115   57   59 1    
   116   57  180 1    
   117   58  181 1    
   118   58  182 1    
   119   58  183 1    
   120   59   60 am   BACKBONE|DICT|INTERRES
   121   59  184 1    
   122   60   61 2    
   123   60   62 1    
   124   62   63 1    
   125   62   64 1    
   126   62  185 1    
   127   63  186 1    
   128   63  187 1    
   129   63  188 1    
   130   64   65 am   BACKBONE|DICT|INTERRES
   131   64  189 1    
   132   65   66 2    
   133   67   68 2    
   134   67   69 am   BACKBONE|DICT|INTERRES
   135   69   70 1    
   136   69  190 1    
   137   70   71 1    
   138   70   72 1    
   139   70  191 1    
   140   71  192 1    
   141   71  193 1    
   142   71  194 1    
   143   72   73 2    
   144   72   74 am   BACKBONE|DICT|INTERRES
   145   74   75 1    
   146   74  195 1    
   147   75   76 1    
   148   75   77 1    
   149   75  196 1    
   150   76  197 1    
   151   76  198 1    
   152   76  199 1    
   153   77   78 2    
   154   77   79 am   BACKBONE|DICT|INTERRES
   155   79   80 1    
   156   79  200 1    
   157   80   81 1    
   158   80   82 1    
   159   80  201 1    
   160   81  202 1    
   161   81  203 1    
   162   81  204 1    
   163   82   83 2    
   164   82   84 am   BACKBONE|DICT|INTERRES
   165   84   85 1    
   166   84  205 1    
   167   85   86 1    
   168   85   87 1    
   169   85  206 1    
   170   86  207 1    
   171   86  208 1    
   172   86  209 1    
   173   87   88 2    
   174   87   89 am   BACKBONE|DICT|INTERRES
   175   89   90 1    
   176   89  210 1    
   177   90   91 1    
   178   90   92 1    
   179   90  211 1    
   180   91  212 1    
   181   91  213 1    
   182   91  214 1    
   183   92   93 2    
   184   92   94 am   BACKBONE|DICT|INTERRES
   185   94   95 1    
   186   94  215 1    
   187   95   96 1    
   188   95   97 1    
   189   95  216 1    
   190   96  217 1    
   191   96  218 1    
   192   96  219 1    
   193   97   98 2    
   194   97   99 am   BACKBONE|DICT|INTERRES
   195   99  100 1    
   196   99  220 1    
   197  100  101 1    
   198  100  102 1    
   199  100  221 1    
   200  101  222 1    
   201  101  223 1    
   202  101  224 1    
   203  102  103 2    
   204  102  104 am   BACKBONE|DICT|INTERRES
   205  104  105 1    
   206  104  225 1    
   207  105  106 1    
   208  105  107 1    
   209  105  226 1    
   210  106  227 1    
   211  106  228 1    
   212  106  229 1    
   213  107  108 2    
   214  107  109 am   BACKBONE|DICT|INTERRES
   215  109  110 1    
   216  109  230 1    
   217  110  111 1    
   218  110  112 1    
   219  110  231 1    
   220  111  232 1    
   221  111  233 1    
   222  111  234 1    
   223  112  113 2    
   224  112  114 am   BACKBONE|DICT|INTERRES
   225  114  115 1    
   226  114  235 1    
   227  115  116 1    
   228  115  117 1    
   229  115  236 1    
   230  116  237 1    
   231  116  238 1    
   232  116  239 1    
   233  117  118 2    
   234  117  119 am   BACKBONE|DICT|INTERRES
   235  119  120 1    
   236  119  240 1    
   237  120  121 1    
   238  120  124 1    
   239  120  241 1    
   240  121  122 am   BACKBONE|DICT|INTERRES
   241  121  123 2    
   242  122  242 1    
   243  122  243 1    
   244  124  125 1    
   245  124  244 1    
   246  124  245 1    
   247  125  126 1    
   248  126  246 1    
   249  126  247 1    
@<TRIPOS>SUBSTRUCTURE
     1 UNK         1 GROUP             0       ****    0 ROOT    
