@<TRIPOS>MOLECULE
3R540
247   249    1
SMALL
USER_CHARGES


@<TRIPOS>ATOM
      1 CA         -4.9744  -15.1623  -45.2837 C.3       0 UNK        -0.1800 
      2 C          -3.5041  -14.9988  -44.9305 C.2       0 UNK         0.5000 
      3 O          -3.1227  -13.9818  -44.3509 O.2       0 UNK        -0.5000 
      4 N          -2.6788  -16.0021  -45.2589 N.am      1 UNK        -0.5000 
      5 CA         -1.2224  -16.0218  -45.0539 C.3       1 UNK         0.1400 
      6 C6         -0.5759  -17.3110  -45.6072 C.3       23 UNK        -0.0398 
      7 S7         -0.8321  -17.5001  -47.4002 S.3       23 UNK        -0.2404 
      8 C8          0.7414  -16.8785  -48.0717 C.3       23 UNK        -0.0205 
      9 C9          1.1982  -17.7490  -49.2288 C.ar      23 UNK        -0.0193 
     10 C10         0.9072  -17.3935  -50.5482 C.ar      23 UNK        -0.1150 
     11 C11         1.2826  -18.2296  -51.6038 C.ar      23 UNK        -0.0193 
     12 C12         1.9416  -19.4314  -51.3270 C.ar      23 UNK        -0.1150 
     13 C13         2.2474  -19.7971  -50.0127 C.ar      23 UNK        -0.0193 
     14 C14         1.8952  -18.9317  -48.9709 C.ar      23 UNK        -0.1150 
     15 C15         2.9517  -21.1308  -49.7543 C.3       23 UNK        -0.0205 
     16 S16         2.4741  -21.9804  -48.2056 S.3       23 UNK        -0.2404 
     17 C17         0.6541  -21.8576  -48.2634 C.3       23 UNK        -0.0398 
     18 CA         -0.0876  -22.9327  -47.4409 C.3       11 UNK         0.1400 
     19 N           0.4095  -23.0336  -46.0661 N.am      11 UNK        -0.5000 
     20 C           0.0671  -24.0009  -45.2036 C.2       10 UNK         0.5000 
     21 O          -0.7066  -24.9154  -45.4794 O.2       10 UNK        -0.5000 
     22 CA          0.6416  -23.9069  -43.7782 C.3       10 UNK         0.1400 
     23 CB          1.9917  -24.6344  -43.6982 C.3       10 UNK        -0.1800 
     24 N           0.8101  -22.5333  -43.3046 N.am      10 UNK        -0.5000 
     25 C          -0.1537  -21.6039  -43.2263 C.2       9 UNK         0.5000 
     26 O          -1.3312  -21.8129  -43.5204 O.2       9 UNK        -0.5000 
     27 CA          0.2834  -20.1931  -42.7876 C.3       9 UNK         0.1400 
     28 CB          0.0057  -19.9910  -41.2915 C.3       9 UNK        -0.1800 
     29 N           1.6988  -19.9159  -43.0536 N.am      9 UNK        -0.5000 
     30 C           2.2571  -19.8386  -44.2700 C.2       8 UNK         0.5000 
     31 O           1.6297  -19.9601  -45.3239 O.2       8 UNK        -0.5000 
     32 CA          3.7903  -19.6881  -44.2920 C.3       8 UNK         0.1400 
     33 CB          4.4447  -21.0566  -44.5396 C.3       8 UNK        -0.1800 
     34 N           4.2956  -18.7379  -45.2843 N.am      8 UNK        -0.5000 
     35 C           3.9626  -17.4441  -45.3646 C.2       7 UNK         0.5000 
     36 O           3.1080  -16.9064  -44.6532 O.2       7 UNK        -0.5000 
     37 CA          4.7571  -16.5915  -46.3702 C.3       7 UNK         0.1400 
     38 CB          4.6522  -17.0971  -47.8229 C.3       7 UNK        -0.1800 
     39 N           4.2759  -15.2207  -46.2676 N.am      7 UNK        -0.5000 
     40 C           4.8638  -14.1138  -46.7290 C.2       6 UNK         0.5000 
     41 O           5.9206  -14.1064  -47.3612 O.2       6 UNK        -0.5000 
     42 CA          4.1456  -12.7851  -46.4239 C.3       6 UNK         0.1400 
     43 CB          3.2612  -12.3697  -47.6101 C.3       6 UNK        -0.1800 
     44 N           3.3143  -12.8474  -45.2188 N.am      6 UNK        -0.5000 
     45 C           3.7778  -12.8529  -43.9606 C.2       5 UNK         0.5000 
     46 O           4.9778  -12.8113  -43.6840 O.2       5 UNK        -0.5000 
     47 CA          2.7299  -12.9325  -42.8263 C.3       5 UNK         0.1400 
     48 CB          3.1599  -12.1583  -41.5632 C.3       5 UNK        -0.1800 
     49 N           1.3711  -12.5514  -43.2336 N.am      5 UNK        -0.5000 
     50 C           0.9515  -11.3540  -43.6721 C.2       4 UNK         0.5000 
     51 O           1.6779  -10.3670  -43.7914 O.2       4 UNK        -0.5000 
     52 CA         -0.5329  -11.2479  -44.0643 C.3       4 UNK         0.1400 
     53 CB         -0.7435  -11.7487  -45.5018 C.3       4 UNK        -0.1800 
     54 N          -1.4227  -11.9811  -43.1636 N.am      4 UNK        -0.5000 
     55 C          -1.6710  -11.6382  -41.8913 C.2       3 UNK         0.5000 
     56 O          -1.1620  -10.6676  -41.3297 O.2       3 UNK        -0.5000 
     57 CA         -2.6570  -12.5278  -41.1171 C.3       3 UNK         0.1400 
     58 CB         -4.1089  -12.1637  -41.4662 C.3       3 UNK        -0.1800 
     59 N          -2.4305  -13.9431  -41.4026 N.am      3 UNK        -0.5000 
     60 C          -1.5886  -14.7274  -40.7158 C.2       2 UNK         0.5000 
     61 O          -0.9495  -14.3508  -39.7329 O.2       2 UNK        -0.5000 
     62 CA         -1.4303  -16.1813  -41.2047 C.3       2 UNK         0.1400 
     63 CB         -2.4237  -17.0979  -40.4743 C.3       2 UNK        -0.1800 
     64 N          -1.6162  -16.3376  -42.6483 N.am      2 UNK        -0.5000 
     65 C          -0.8090  -15.8158  -43.5829 C.2       1 UNK         0.5000 
     66 O           0.1972  -15.1562  -43.3267 O.2       1 UNK        -0.5000 
     67 C          -1.5991  -22.6325  -47.4803 C.2       11 UNK         0.5000 
     68 O          -2.2990  -23.1415  -48.3563 O.2       11 UNK        -0.5000 
     69 N          -2.0736  -21.8047  -46.5392 N.am      12 UNK        -0.5000 
     70 CA         -3.4849  -21.4628  -46.3824 C.3       12 UNK         0.1400 
     71 CB         -3.6184  -20.1504  -45.5952 C.3       12 UNK        -0.1800 
     72 C          -4.2621  -22.6058  -45.7116 C.2       12 UNK         0.5000 
     73 O          -5.3714  -22.9130  -46.1456 O.2       12 UNK        -0.5000 
     74 N          -3.6472  -23.2522  -44.7096 N.am      13 UNK        -0.5000 
     75 CA         -4.1896  -24.4221  -44.0120 C.3       13 UNK         0.1400 
     76 CB         -3.2871  -24.7706  -42.8196 C.3       13 UNK        -0.1800 
     77 C          -4.3710  -25.6438  -44.9353 C.2       13 UNK         0.5000 
     78 O          -5.3776  -26.3445  -44.8280 O.2       13 UNK        -0.5000 
     79 N          -3.4161  -25.8491  -45.8532 N.am      14 UNK        -0.5000 
     80 CA         -3.4605  -26.8679  -46.9055 C.3       14 UNK         0.1400 
     81 CB         -2.0333  -27.0937  -47.4306 C.3       14 UNK        -0.1800 
     82 C          -4.4017  -26.5085  -48.0745 C.2       14 UNK         0.5000 
     83 O          -4.6390  -27.3596  -48.9321 O.2       14 UNK        -0.5000 
     84 N          -4.8914  -25.2594  -48.1069 N.am      15 UNK        -0.5000 
     85 CA         -5.7298  -24.6470  -49.1431 C.3       15 UNK         0.1400 
     86 CB         -7.0926  -25.3607  -49.2567 C.3       15 UNK        -0.1800 
     87 C          -5.0186  -24.4886  -50.5047 C.2       15 UNK         0.5000 
     88 O          -5.6840  -24.3337  -51.5291 O.2       15 UNK        -0.5000 
     89 N          -3.6793  -24.4805  -50.4928 N.am      16 UNK        -0.5000 
     90 CA         -2.8359  -24.2252  -51.6579 C.3       16 UNK         0.1400 
     91 CB         -1.4072  -24.7186  -51.3793 C.3       16 UNK        -0.1800 
     92 C          -2.8441  -22.7320  -52.0152 C.2       16 UNK         0.5000 
     93 O          -3.0621  -22.3833  -53.1733 O.2       16 UNK        -0.5000 
     94 N          -2.6752  -21.8762  -50.9969 N.am      17 UNK        -0.5000 
     95 CA         -2.7331  -20.4181  -51.1335 C.3       17 UNK         0.1400 
     96 CB         -2.0745  -19.7602  -49.9138 C.3       17 UNK        -0.1800 
     97 C          -4.1653  -19.8852  -51.3365 C.2       17 UNK         0.5000 
     98 O          -4.3342  -18.7567  -51.7974 O.2       17 UNK        -0.5000 
     99 N          -5.1701  -20.7018  -50.9883 N.am      18 UNK        -0.5000 
    100 CA        -6.5881  -20.4121  -51.2004 C.3       18 UNK         0.1400 
    101 CB        -7.4282  -21.3019  -50.2714 C.3       18 UNK        -0.1800 
    102 C         -7.0200  -20.5988  -52.6687 C.2       18 UNK         0.5000 
    103 O         -8.0026  -19.9849  -53.0873 O.2       18 UNK        -0.5000 
    104 N         -6.2917  -21.4331  -53.4244 N.am      19 UNK        -0.5000 
    105 CA        -6.4854  -21.6291  -54.8591 C.3       19 UNK         0.1400 
    106 CB        -5.8250  -22.9515  -55.2790 C.3       19 UNK        -0.1800 
    107 C         -5.8876  -20.4546  -55.6522 C.2       19 UNK         0.5000 
    108 O         -4.8918  -19.8682  -55.2230 O.2       19 UNK        -0.5000 
    109 N         -6.4739  -20.1613  -56.8204 N.am      20 UNK        -0.5000 
    110 CA        -6.0829  -19.0547  -57.7034 C.3       20 UNK         0.1400 
    111 CB        -7.0932  -18.9542  -58.8566 C.3       20 UNK        -0.1800 
    112 C         -4.6454  -19.1559  -58.2543 C.2       20 UNK         0.5000 
    113 O         -4.0350  -18.1279  -58.5496 O.2       20 UNK        -0.5000 
    114 N         -4.1265  -20.3864  -58.3648 N.am      21 UNK        -0.5000 
    115 CA        -2.7465  -20.6774  -58.7563 C.3       21 UNK         0.1400 
    116 CB        -2.6559  -22.1516  -59.1807 C.3       21 UNK        -0.1800 
    117 C         -1.7194  -20.3755  -57.6450 C.2       21 UNK         0.5000 
    118 O         -0.5407  -20.1960  -57.9531 O.2       21 UNK        -0.5000 
    119 N         -2.1739  -20.3334  -56.3839 N.am      22 UNK        -0.5000 
    120 CA        -1.3648  -20.1129  -55.1740 C.3       22 UNK         0.1400 
    121 C         -0.3207  -21.2370  -54.8734 C.2       22 UNK         0.5000 
    122 N         -0.5100  -22.4551  -55.3673 N.am      22 UNK        -0.7600 
    123 O          0.6696  -21.0195  -54.1829 O.2       22 UNK        -0.5000 
    124 C124       -0.7813  -18.6704  -55.1136 C.3       23 UNK        -0.0398 
    125 S125       -0.7927  -17.9853  -53.4197 S.3       23 UNK        -0.2404 
    126 C126        0.9822  -17.8369  -53.0429 C.3       23 UNK        -0.0205 
    127 H127       -5.5839  -15.1085  -44.3818 H         1 UNK         0.0600 
    128 H128       -5.1707  -16.1171  -45.7722 H         1 UNK         0.0600 
    129 H129       -5.2876  -14.3640  -45.9563 H         1 UNK         0.0600 
    130 H130       -3.0525  -16.7984  -45.7546 H         1 UNK         0.3000 
    131 H131       -0.8133  -15.1785  -45.6131 H         1 UNK         0.0600 
    132 H132        0.4915  -17.3462  -45.3837 H         1 UNK         0.0800 
    133 H133       -1.0074  -18.1878  -45.1243 H         1 UNK         0.0800 
    134 H134        0.6136  -15.8437  -48.3927 H         1 UNK         0.0800 
    135 H135        1.5133  -16.8679  -47.3026 H         1 UNK         0.0800 
    136 H136        0.3742  -16.4762  -50.7550 H         1 UNK         0.1150 
    137 H137        2.2157  -20.0872  -52.1418 H         1 UNK         0.1150 
    138 H138        2.1267  -19.1931  -47.9475 H         1 UNK         0.1150 
    139 H139        2.7603  -21.8159  -50.5817 H         1 UNK         0.0800 
    140 H140        4.0284  -20.9582  -49.7396 H         1 UNK         0.0800 
    141 H141        0.3403  -21.9096  -49.3077 H         1 UNK         0.0800 
    142 H142        0.3803  -20.8646  -47.9027 H         1 UNK         0.0800 
    143 H143        0.0702  -23.9000  -47.9227 H         1 UNK         0.0600 
    144 H144        1.0407  -22.3022  -45.7661 H         1 UNK         0.3000 
    145 H145       -0.0562  -24.4043  -43.1032 H         1 UNK         0.0600 
    146 H146        2.3729  -24.6495  -42.6770 H         1 UNK         0.0600 
    147 H147        1.8958  -25.6714  -44.0230 H         1 UNK         0.0600 
    148 H148        2.7429  -24.1602  -44.3313 H         1 UNK         0.0600 
    149 H149        1.7436  -22.2647  -43.0337 H         1 UNK         0.3000 
    150 H150       -0.3171  -19.4747  -43.3459 H         1 UNK         0.0600 
    151 H151        0.6097  -20.6585  -40.6757 H         1 UNK         0.0600 
    152 H152       -1.0409  -20.1906  -41.0581 H         1 UNK         0.0600 
    153 H153        0.2186  -18.9670  -40.9853 H         1 UNK         0.0600 
    154 H154        2.2887  -19.8081  -42.2409 H         1 UNK         0.3000 
    155 H155        4.1153  -19.3268  -43.3142 H         1 UNK         0.0600 
    156 H156        4.1847  -21.4530  -45.5223 H         1 UNK         0.0600 
    157 H157        4.1241  -21.7877  -43.7964 H         1 UNK         0.0600 
    158 H158        5.5314  -20.9930  -44.4803 H         1 UNK         0.0600 
    159 H159        4.9897  -19.0979  -45.9220 H         1 UNK         0.3000 
    160 H160        5.8024  -16.6196  -46.0565 H         1 UNK         0.0600 
    161 H161        3.6807  -16.8702  -48.2555 H         1 UNK         0.0600 
    162 H162        4.8090  -18.1733  -47.8994 H         1 UNK         0.0600 
    163 H163        5.4032  -16.6224  -48.4542 H         1 UNK         0.0600 
    164 H164        3.4447  -15.1339  -45.6953 H         1 UNK         0.3000 
    165 H165        4.9098  -12.0183  -46.2793 H         1 UNK         0.0600 
    166 H166        2.7922  -11.4016  -47.4326 H         1 UNK         0.0600 
    167 H167        3.8501  -12.2821  -48.5241 H         1 UNK         0.0600 
    168 H168        2.4704  -13.0974  -47.7978 H         1 UNK         0.0600 
    169 H169        2.3154  -12.8794  -45.3546 H         1 UNK         0.3000 
    170 H170        2.6709  -13.9879  -42.5562 H         1 UNK         0.0600 
    171 H171        4.0935  -12.5522  -41.1602 H         1 UNK         0.0600 
    172 H172        3.3150  -11.0991  -41.7696 H         1 UNK         0.0600 
    173 H173        2.4091  -12.2408  -40.7771 H         1 UNK         0.0600 
    174 H174        0.7020  -13.3168  -43.2063 H         1 UNK         0.3000 
    175 H175       -0.8120  -10.1927  -44.0284 H         1 UNK         0.0600 
    176 H176       -0.1177  -11.1969  -46.2046 H         1 UNK         0.0600 
    177 H177       -0.4963  -12.8056  -45.6006 H         1 UNK         0.0600 
    178 H178       -1.7792  -11.6183  -45.8164 H         1 UNK         0.0600 
    179 H179       -1.9318  -12.7649  -43.5639 H         1 UNK         0.3000 
    180 H180       -2.5145  -12.3402  -40.0506 H         1 UNK         0.0600 
    181 H181       -4.3261  -12.3238  -42.5228 H         1 UNK         0.0600 
    182 H182       -4.3110  -11.1149  -41.2453 H         1 UNK         0.0600 
    183 H183       -4.8136  -12.7596  -40.8861 H         1 UNK         0.0600 
    184 H184       -2.8719  -14.3094  -42.2364 H         1 UNK         0.3000 
    185 H185       -0.4165  -16.5044  -40.9593 H         1 UNK         0.0600 
    186 H186       -2.2704  -17.0574  -39.3951 H         1 UNK         0.0600 
    187 H187       -3.4568  -16.8077  -40.6700 H         1 UNK         0.0600 
    188 H188       -2.3062  -18.1368  -40.7796 H         1 UNK         0.0600 
    189 H189       -2.4398  -16.8379  -42.9486 H         1 UNK         0.3000 
    190 H190       -1.4438  -21.4670  -45.8244 H         1 UNK         0.3000 
    191 H191       -3.9198  -21.3038  -47.3716 H         1 UNK         0.0600 
    192 H192       -3.1159  -19.3332  -46.1122 H         1 UNK         0.0600 
    193 H193       -4.6662  -19.8686  -45.4844 H         1 UNK         0.0600 
    194 H194       -3.1927  -20.2283  -44.5947 H         1 UNK         0.0600 
    195 H195       -2.7511  -22.9008  -44.3862 H         1 UNK         0.3000 
    196 H196       -5.1732  -24.1481  -43.6252 H         1 UNK         0.0600 
    197 H197       -3.7200  -25.5778  -42.2276 H         1 UNK         0.0600 
    198 H198       -3.1551  -23.9143  -42.1577 H         1 UNK         0.0600 
    199 H199       -2.3009  -25.0988  -43.1461 H         1 UNK         0.0600 
    200 H200       -2.5742  -25.2807  -45.8169 H         1 UNK         0.3000 
    201 H201       -3.8187  -27.8034  -46.4712 H         1 UNK         0.0600 
    202 H202       -2.0116  -27.8732  -48.1932 H         1 UNK         0.0600 
    203 H203       -1.3636  -27.4071  -46.6296 H         1 UNK         0.0600 
    204 H204       -1.6219  -26.1866  -47.8758 H         1 UNK         0.0600 
    205 H205       -4.6517  -24.6457  -47.3389 H         1 UNK         0.3000 
    206 H206       -5.9257  -23.6321  -48.7956 H         1 UNK         0.0600 
    207 H207       -7.5720  -25.4503  -48.2820 H         1 UNK         0.0600 
    208 H208       -7.7740  -24.8046  -49.9013 H         1 UNK         0.0600 
    209 H209       -6.9940  -26.3617  -49.6770 H         1 UNK         0.0600 
    210 H210       -3.2104  -24.5109  -49.5950 H         1 UNK         0.3000 
    211 H211       -3.2314  -24.7830  -52.5096 H         1 UNK         0.0600 
    212 H212       -0.9549  -24.2041  -50.5309 H         1 UNK         0.0600 
    213 H213       -0.7637  -24.5518  -52.2442 H         1 UNK         0.0600 
    214 H214       -1.3958  -25.7875  -51.1657 H         1 UNK         0.0600 
    215 H215       -2.5327  -22.2531  -50.0650 H         1 UNK         0.3000 
    216 H216       -2.1546  -20.1384  -52.0138 H         1 UNK         0.0600 
    217 H217       -2.1132  -18.6729  -49.9926 H         1 UNK         0.0600 
    218 H218       -1.0223  -20.0300  -49.8418 H         1 UNK         0.0600 
    219 H219       -2.5659  -20.0387  -48.9823 H         1 UNK         0.0600 
    220 H220       -4.9375  -21.6121  -50.6238 H         1 UNK         0.3000 
    221 H221       -6.7731  -19.3705  -50.9293 H         1 UNK         0.0600 
    222 H222       -7.3419  -22.3552  -50.5365 H         1 UNK         0.0600 
    223 H223       -7.1271  -21.1876  -49.2298 H         1 UNK         0.0600 
    224 H224       -8.4846  -21.0381  -50.3346 H         1 UNK         0.0600 
    225 H225       -5.4665  -21.8584  -53.0253 H         1 UNK         0.3000 
    226 H226       -7.5560  -21.6932  -55.0654 H         1 UNK         0.0600 
    227 H227       -6.0279  -23.1744  -56.3270 H         1 UNK         0.0600 
    228 H228       -4.7421  -22.9203  -55.1558 H         1 UNK         0.0600 
    229 H229       -6.2038  -23.7868  -54.6893 H         1 UNK         0.0600 
    230 H230       -7.2755  -20.7016  -57.1133 H         1 UNK         0.3000 
    231 H231       -6.1394  -18.1334  -57.1199 H         1 UNK         0.0600 
    232 H232       -7.1060  -19.8624  -59.4604 H         1 UNK         0.0600 
    233 H233       -6.8489  -18.1229  -59.5195 H         1 UNK         0.0600 
    234 H234       -8.1032  -18.7831  -58.4836 H         1 UNK         0.0600 
    235 H235       -4.7052  -21.1736  -58.1126 H         1 UNK         0.3000 
    236 H236       -2.4912  -20.0575  -59.6185 H         1 UNK         0.0600 
    237 H237       -3.3237  -22.3634  -60.0160 H         1 UNK         0.0600 
    238 H238       -1.6448  -22.4044  -59.5031 H         1 UNK         0.0600 
    239 H239       -2.9172  -22.8236  -58.3623 H         1 UNK         0.0600 
    240 H240       -3.1684  -20.4326  -56.2153 H         1 UNK         0.3000 
    241 H241       -2.0955  -20.2010  -54.3711 H         1 UNK         0.0600 
    242 H242       -1.3327  -22.6649  -55.9079 H         1 UNK         0.3800 
    243 H243        0.1652  -23.1768  -55.1740 H         1 UNK         0.3800 
    244 H244        0.2135  -18.6240  -55.5589 H         1 UNK         0.0800 
    245 H245       -1.3955  -17.9956  -55.7114 H         1 UNK         0.0800 
    246 H246        1.5680  -18.4556  -53.7236 H         1 UNK         0.0800 
    247 H247        1.2997  -16.8079  -53.2167 H         1 UNK         0.0800 
@<TRIPOS>BOND
     1    1    2 1    
     2    1  127 1    
     3    1  128 1    
     4    1  129 1    
     5    2    3 2    
     6    2    4 am   BACKBONE|DICT|INTERRES
     7    4    5 1    
     8    4  130 1    
     9    5    6 1    
    10    5   65 1    
    11    5  131 1    
    12    6    7 1    
    13    6  132 1    
    14    6  133 1    
    15    7    8 1    
    16    8    9 1    
    17    8  134 1    
    18    8  135 1    
    19    9   10 ar   
    20    9   14 ar   
    21   10   11 ar   
    22   10  136 1    
    23   11   12 ar   
    24   11  126 1    
    25   12   13 ar   
    26   12  137 1    
    27   13   14 ar   
    28   13   15 1    
    29   14  138 1    
    30   15   16 1    
    31   15  139 1    
    32   15  140 1    
    33   16   17 1    
    34   17   18 1    
    35   17  141 1    
    36   17  142 1    
    37   18   19 1    
    38   18   67 1    
    39   18  143 1    
    40   19   20 am   BACKBONE|DICT|INTERRES
    41   19  144 1    
    42   20   21 2    
    43   20   22 1    
    44   22   23 1    
    45   22   24 1    
    46   22  145 1    
    47   23  146 1    
    48   23  147 1    
    49   23  148 1    
    50   24   25 am   BACKBONE|DICT|INTERRES
    51   24  149 1    
    52   25   26 2    
    53   25   27 1    
    54   27   28 1    
    55   27   29 1    
    56   27  150 1    
    57   28  151 1    
    58   28  152 1    
    59   28  153 1    
    60   29   30 am   BACKBONE|DICT|INTERRES
    61   29  154 1    
    62   30   31 2    
    63   30   32 1    
    64   32   33 1    
    65   32   34 1    
    66   32  155 1    
    67   33  156 1    
    68   33  157 1    
    69   33  158 1    
    70   34   35 am   BACKBONE|DICT|INTERRES
    71   34  159 1    
    72   35   36 2    
    73   35   37 1    
    74   37   38 1    
    75   37   39 1    
    76   37  160 1    
    77   38  161 1    
    78   38  162 1    
    79   38  163 1    
    80   39   40 am   BACKBONE|DICT|INTERRES
    81   39  164 1    
    82   40   41 2    
    83   40   42 1    
    84   42   43 1    
    85   42   44 1    
    86   42  165 1    
    87   43  166 1    
    88   43  167 1    
    89   43  168 1    
    90   44   45 am   BACKBONE|DICT|INTERRES
    91   44  169 1    
    92   45   46 2    
    93   45   47 1    
    94   47   48 1    
    95   47   49 1    
    96   47  170 1    
    97   48  171 1    
    98   48  172 1    
    99   48  173 1    
   100   49   50 am   BACKBONE|DICT|INTERRES
   101   49  174 1    
   102   50   51 2    
   103   50   52 1    
   104   52   53 1    
   105   52   54 1    
   106   52  175 1    
   107   53  176 1    
   108   53  177 1    
   109   53  178 1    
   110   54   55 am   BACKBONE|DICT|INTERRES
   111   54  179 1    
   112   55   56 2    
   113   55   57 1    
   114   57   58 1    
   115   57   59 1    
   116   57  180 1    
   117   58  181 1    
   118   58  182 1    
   119   58  183 1    
   120   59   60 am   BACKBONE|DICT|INTERRES
   121   59  184 1    
   122   60   61 2    
   123   60   62 1    
   124   62   63 1    
   125   62   64 1    
   126   62  185 1    
   127   63  186 1    
   128   63  187 1    
   129   63  188 1    
   130   64   65 am   BACKBONE|DICT|INTERRES
   131   64  189 1    
   132   65   66 2    
   133   67   68 2    
   134   67   69 am   BACKBONE|DICT|INTERRES
   135   69   70 1    
   136   69  190 1    
   137   70   71 1    
   138   70   72 1    
   139   70  191 1    
   140   71  192 1    
   141   71  193 1    
   142   71  194 1    
   143   72   73 2    
   144   72   74 am   BACKBONE|DICT|INTERRES
   145   74   75 1    
   146   74  195 1    
   147   75   76 1    
   148   75   77 1    
   149   75  196 1    
   150   76  197 1    
   151   76  198 1    
   152   76  199 1    
   153   77   78 2    
   154   77   79 am   BACKBONE|DICT|INTERRES
   155   79   80 1    
   156   79  200 1    
   157   80   81 1    
   158   80   82 1    
   159   80  201 1    
   160   81  202 1    
   161   81  203 1    
   162   81  204 1    
   163   82   83 2    
   164   82   84 am   BACKBONE|DICT|INTERRES
   165   84   85 1    
   166   84  205 1    
   167   85   86 1    
   168   85   87 1    
   169   85  206 1    
   170   86  207 1    
   171   86  208 1    
   172   86  209 1    
   173   87   88 2    
   174   87   89 am   BACKBONE|DICT|INTERRES
   175   89   90 1    
   176   89  210 1    
   177   90   91 1    
   178   90   92 1    
   179   90  211 1    
   180   91  212 1    
   181   91  213 1    
   182   91  214 1    
   183   92   93 2    
   184   92   94 am   BACKBONE|DICT|INTERRES
   185   94   95 1    
   186   94  215 1    
   187   95   96 1    
   188   95   97 1    
   189   95  216 1    
   190   96  217 1    
   191   96  218 1    
   192   96  219 1    
   193   97   98 2    
   194   97   99 am   BACKBONE|DICT|INTERRES
   195   99  100 1    
   196   99  220 1    
   197  100  101 1    
   198  100  102 1    
   199  100  221 1    
   200  101  222 1    
   201  101  223 1    
   202  101  224 1    
   203  102  103 2    
   204  102  104 am   BACKBONE|DICT|INTERRES
   205  104  105 1    
   206  104  225 1    
   207  105  106 1    
   208  105  107 1    
   209  105  226 1    
   210  106  227 1    
   211  106  228 1    
   212  106  229 1    
   213  107  108 2    
   214  107  109 am   BACKBONE|DICT|INTERRES
   215  109  110 1    
   216  109  230 1    
   217  110  111 1    
   218  110  112 1    
   219  110  231 1    
   220  111  232 1    
   221  111  233 1    
   222  111  234 1    
   223  112  113 2    
   224  112  114 am   BACKBONE|DICT|INTERRES
   225  114  115 1    
   226  114  235 1    
   227  115  116 1    
   228  115  117 1    
   229  115  236 1    
   230  116  237 1    
   231  116  238 1    
   232  116  239 1    
   233  117  118 2    
   234  117  119 am   BACKBONE|DICT|INTERRES
   235  119  120 1    
   236  119  240 1    
   237  120  121 1    
   238  120  124 1    
   239  120  241 1    
   240  121  122 am   BACKBONE|DICT|INTERRES
   241  121  123 2    
   242  122  242 1    
   243  122  243 1    
   244  124  125 1    
   245  124  244 1    
   246  124  245 1    
   247  125  126 1    
   248  126  246 1    
   249  126  247 1    
@<TRIPOS>SUBSTRUCTURE
     1 UNK         1 GROUP             0       ****    0 ROOT    
