@<TRIPOS>MOLECULE
3R540
247   249    1
SMALL
USER_CHARGES


@<TRIPOS>ATOM
      1 CA          5.4367  -10.3779  -50.2997 C.3       0 UNK        -0.1800 
      2 C           4.5352  -10.4019  -49.0735 C.2       0 UNK         0.5000 
      3 O           3.8539   -9.4143  -48.7987 O.2       0 UNK        -0.5000 
      4 N           4.5406  -11.5224  -48.3362 N.am      1 UNK        -0.5000 
      5 CA          3.7348  -11.7852  -47.1301 C.3       1 UNK         0.1400 
      6 C6          2.2014  -11.7739  -47.3838 C.3       23 UNK        -0.0398 
      7 S7          1.6903  -12.9059  -48.7212 S.3       23 UNK        -0.2404 
      8 C8          1.2371  -14.3744  -47.7548 C.3       23 UNK        -0.0205 
      9 C9          0.6403  -15.4550  -48.6393 C.ar      23 UNK        -0.0193 
     10 C10        -0.7082  -15.3921  -49.0067 C.ar      23 UNK        -0.1150 
     11 C11        -1.2778  -16.4077  -49.7784 C.ar      23 UNK        -0.0193 
     12 C12        -0.4795  -17.4636  -50.2206 C.ar      23 UNK        -0.1150 
     13 C13         0.8589  -17.5550  -49.8342 C.ar      23 UNK        -0.0193 
     14 C14         1.4192  -16.5411  -49.0521 C.ar      23 UNK        -0.1150 
     15 C15         1.6731  -18.7807  -50.2201 C.3       23 UNK        -0.0205 
     16 S16         1.6083  -20.0664  -48.9273 S.3       23 UNK        -0.2404 
     17 C17        -0.1846  -20.3958  -48.8295 C.3       23 UNK        -0.0398 
     18 CA         -0.5191  -21.6650  -48.0167 C.3       11 UNK         0.1400 
     19 N          -0.2526  -21.5011  -46.5820 N.am      11 UNK        -0.5000 
     20 C          -0.3183  -22.4935  -45.6826 C.2       10 UNK         0.5000 
     21 O          -0.6010  -23.6555  -45.9701 O.2       10 UNK        -0.5000 
     22 CA         -0.0714  -22.1307  -44.2083 C.3       10 UNK         0.1400 
     23 CB          1.4231  -21.8989  -43.9396 C.3       10 UNK        -0.1800 
     24 N          -0.8431  -20.9673  -43.7753 N.am      10 UNK        -0.5000 
     25 C          -2.1824  -20.9082  -43.7435 C.2       9 UNK         0.5000 
     26 O          -2.9181  -21.8481  -44.0425 O.2       9 UNK        -0.5000 
     27 CA         -2.8090  -19.5507  -43.3725 C.3       9 UNK         0.1400 
     28 CB         -2.7881  -19.3286  -41.8534 C.3       9 UNK        -0.1800 
     29 N          -2.1589  -18.4274  -44.0493 N.am      9 UNK        -0.5000 
     30 C          -2.0847  -18.2951  -45.3820 C.2       8 UNK         0.5000 
     31 O          -2.5779  -19.0922  -46.1772 O.2       8 UNK        -0.5000 
     32 CA         -1.2702  -17.1065  -45.9108 C.3       8 UNK         0.1400 
     33 CB         -2.0950  -15.8109  -45.8474 C.3       8 UNK        -0.1800 
     34 N          -0.0151  -16.9435  -45.1769 N.am      8 UNK        -0.5000 
     35 C           0.9918  -17.8294  -45.2111 C.2       7 UNK         0.5000 
     36 O           0.9756  -18.8583  -45.8847 O.2       7 UNK        -0.5000 
     37 CA          2.1893  -17.5501  -44.2849 C.3       7 UNK         0.1400 
     38 CB          3.1178  -16.4894  -44.8957 C.3       7 UNK        -0.1800 
     39 N           1.7671  -17.1227  -42.9504 N.am      7 UNK        -0.5000 
     40 C           1.0777  -17.8937  -42.0939 C.2       6 UNK         0.5000 
     41 O           0.7974  -19.0708  -42.3142 O.2       6 UNK        -0.5000 
     42 CA          0.5727  -17.2368  -40.7934 C.3       6 UNK         0.1400 
     43 CB          1.5668  -17.4817  -39.6489 C.3       6 UNK        -0.1800 
     44 N           0.3354  -15.7991  -40.9196 N.am      6 UNK        -0.5000 
     45 C          -0.5059  -15.2162  -41.7864 C.2       5 UNK         0.5000 
     46 O          -1.2627  -15.8483  -42.5240 O.2       5 UNK        -0.5000 
     47 CA         -0.4522  -13.6759  -41.8820 C.3       5 UNK         0.1400 
     48 CB         -1.6784  -13.0530  -41.1988 C.3       5 UNK        -0.1800 
     49 N           0.7672  -13.0944  -41.3037 N.am      5 UNK        -0.5000 
     50 C           2.0072  -13.2799  -41.7774 C.2       4 UNK         0.5000 
     51 O           2.2614  -13.9165  -42.8041 O.2       4 UNK        -0.5000 
     52 CA          3.1514  -12.7505  -40.9021 C.3       4 UNK         0.1400 
     53 CB          3.3517  -13.6982  -39.6981 C.3       4 UNK        -0.1800 
     54 N           4.3630  -12.6733  -41.7140 N.am      4 UNK        -0.5000 
     55 C           5.5591  -12.2179  -41.3235 C.2       3 UNK         0.5000 
     56 O           5.7946  -11.7617  -40.2038 O.2       3 UNK        -0.5000 
     57 CA          6.6824  -12.2657  -42.3750 C.3       3 UNK         0.1400 
     58 CB          6.9969  -13.7117  -42.7953 C.3       3 UNK        -0.1800 
     59 N           6.3730  -11.4690  -43.5621 N.am      3 UNK        -0.5000 
     60 C           6.2421  -10.1343  -43.5820 C.2       2 UNK         0.5000 
     61 O           6.3794   -9.4177  -42.5897 O.2       2 UNK        -0.5000 
     62 CA          5.9296   -9.4765  -44.9403 C.3       2 UNK         0.1400 
     63 CB          7.1906   -8.8176  -45.5216 C.3       2 UNK        -0.1800 
     64 N           5.3844  -10.4006  -45.9366 N.am      2 UNK        -0.5000 
     65 C           4.1356  -10.8881  -45.9329 C.2       1 UNK         0.5000 
     66 O           3.3270  -10.6585  -45.0322 O.2       1 UNK        -0.5000 
     67 C          -1.9682  -22.1133  -48.2991 C.2       11 UNK         0.5000 
     68 O          -2.1729  -22.9770  -49.1528 O.2       11 UNK        -0.5000 
     69 N          -2.9416  -21.5500  -47.5705 N.am      12 UNK        -0.5000 
     70 CA         -4.3502  -21.9301  -47.6513 C.3       12 UNK         0.1400 
     71 CB         -5.2106  -20.9143  -46.8867 C.3       12 UNK        -0.1800 
     72 C          -4.6042  -23.3617  -47.1474 C.2       12 UNK         0.5000 
     73 O          -5.3140  -24.1137  -47.8149 O.2       12 UNK        -0.5000 
     74 N          -3.9973  -23.7242  -46.0070 N.am      13 UNK        -0.5000 
     75 CA         -4.0820  -25.0577  -45.4046 C.3       13 UNK         0.1400 
     76 CB         -3.4784  -25.0276  -43.9924 C.3       13 UNK        -0.1800 
     77 C          -3.4078  -26.1477  -46.2571 C.2       13 UNK         0.5000 
     78 O          -3.9517  -27.2458  -46.3802 O.2       13 UNK        -0.5000 
     79 N          -2.2534  -25.8182  -46.8523 N.am      14 UNK        -0.5000 
     80 CA         -1.5234  -26.6733  -47.7909 C.3       14 UNK         0.1400 
     81 CB         -0.0967  -26.1268  -47.9574 C.3       14 UNK        -0.1800 
     82 C          -2.2064  -26.7899  -49.1677 C.2       14 UNK         0.5000 
     83 O          -1.8801  -27.7090  -49.9196 O.2       14 UNK        -0.5000 
     84 N          -3.1190  -25.8542  -49.4701 N.am      15 UNK        -0.5000 
     85 CA         -3.8224  -25.6604  -50.7377 C.3       15 UNK         0.1400 
     86 CB         -4.7777  -26.8354  -51.0285 C.3       15 UNK        -0.1800 
     87 C          -2.8343  -25.3701  -51.8822 C.2       15 UNK         0.5000 
     88 O          -2.8106  -26.0837  -52.8867 O.2       15 UNK        -0.5000 
     89 N          -2.0176  -24.3257  -51.6877 N.am      16 UNK        -0.5000 
     90 CA         -0.9623  -23.8682  -52.5958 C.3       16 UNK         0.1400 
     91 CB         -0.2957  -22.6219  -51.9931 C.3       16 UNK        -0.1800 
     92 C          -1.4338  -23.5794  -54.0355 C.2       16 UNK         0.5000 
     93 O          -0.6775  -23.8224  -54.9766 O.2       16 UNK        -0.5000 
     94 N          -2.6743  -23.0981  -54.1796 N.am      17 UNK        -0.5000 
     95 CA         -3.3383  -22.8371  -55.4563 C.3       17 UNK         0.1400 
     96 CB         -3.8643  -21.3956  -55.4466 C.3       17 UNK        -0.1800 
     97 C          -4.4628  -23.8558  -55.7358 C.2       17 UNK         0.5000 
     98 O          -5.3809  -23.5513  -56.5003 O.2       17 UNK        -0.5000 
     99 N          -4.3839  -25.0448  -55.1176 N.am      18 UNK        -0.5000 
    100 CA        -5.3103  -26.1732  -55.2406 C.3       18 UNK         0.1400 
    101 CB        -5.1799  -26.8256  -56.6354 C.3       18 UNK        -0.1800 
    102 C         -6.7487  -25.7677  -54.8617 C.2       18 UNK         0.5000 
    103 O         -6.9867  -25.4149  -53.7060 O.2       18 UNK        -0.5000 
    104 N         -7.6712  -25.7838  -55.8333 N.am      19 UNK        -0.5000 
    105 CA        -9.0780  -25.4033  -55.6792 C.3       19 UNK         0.1400 
    106 CB        -9.8196  -25.7027  -56.9908 C.3       19 UNK        -0.1800 
    107 C         -9.2970  -23.9348  -55.2594 C.2       19 UNK         0.5000 
    108 O        -10.3307  -23.6302  -54.6636 O.2       19 UNK        -0.5000 
    109 N         -8.3237  -23.0593  -55.5494 N.am      20 UNK        -0.5000 
    110 CA        -8.3170  -21.6572  -55.1265 C.3       20 UNK         0.1400 
    111 CB        -7.6028  -20.8163  -56.1965 C.3       20 UNK        -0.1800 
    112 C         -7.6934  -21.4499  -53.7288 C.2       20 UNK         0.5000 
    113 O         -7.6090  -20.3037  -53.2827 O.2       20 UNK        -0.5000 
    114 N         -7.2714  -22.5394  -53.0641 N.am      21 UNK        -0.5000 
    115 CA        -6.6783  -22.6102  -51.7261 C.3       21 UNK         0.1400 
    116 CB        -7.7298  -22.2927  -50.6411 C.3       21 UNK        -0.1800 
    117 C         -5.4018  -21.7577  -51.6177 C.2       21 UNK         0.5000 
    118 O         -4.3360  -22.2252  -52.0185 O.2       21 UNK        -0.5000 
    119 N         -5.5397  -20.5305  -51.1006 N.am      22 UNK        -0.5000 
    120 CA        -4.4866  -19.5058  -51.0655 C.3       22 UNK         0.1400 
    121 C         -4.0549  -19.0185  -52.4787 C.2       22 UNK         0.5000 
    122 N         -4.9677  -18.9386  -53.4402 N.am      22 UNK        -0.7600 
    123 O         -2.8878  -18.7158  -52.7050 O.2       22 UNK        -0.5000 
    124 C124       -4.9071  -18.2994  -50.1756 C.3       23 UNK        -0.0398 
    125 S125       -3.5698  -17.7234  -49.0851 S.3       23 UNK        -0.2404 
    126 C126       -2.7664  -16.4246  -50.0784 C.3       23 UNK        -0.0205 
    127 H127        4.8421  -10.2139  -51.1984 H         1 UNK         0.0600 
    128 H128        5.9834  -11.3135  -50.4204 H         1 UNK         0.0600 
    129 H129        6.1619   -9.5684  -50.2166 H         1 UNK         0.0600 
    130 H130        5.1239  -12.2925  -48.6332 H         1 UNK         0.3000 
    131 H131        3.9975  -12.7978  -46.8201 H         1 UNK         0.0600 
    132 H132        1.6579  -12.0398  -46.4755 H         1 UNK         0.0800 
    133 H133        1.8644  -10.7699  -47.6449 H         1 UNK         0.0800 
    134 H134        2.1216  -14.7505  -47.2399 H         1 UNK         0.0800 
    135 H135        0.5215  -14.0983  -46.9801 H         1 UNK         0.0800 
    136 H136       -1.3198  -14.5705  -48.6616 H         1 UNK         0.1150 
    137 H137       -0.9246  -18.2518  -50.8118 H         1 UNK         0.1150 
    138 H138        2.4530  -16.6118  -48.7448 H         1 UNK         0.1150 
    139 H139        1.3131  -19.1956  -51.1630 H         1 UNK         0.0800 
    140 H140        2.7129  -18.4968  -50.3876 H         1 UNK         0.0800 
    141 H141       -0.5583  -20.4811  -49.8512 H         1 UNK         0.0800 
    142 H142       -0.6825  -19.5311  -48.3871 H         1 UNK         0.0800 
    143 H143        0.1268  -22.4706  -48.3724 H         1 UNK         0.0600 
    144 H144        0.0210  -20.5711  -46.2766 H         1 UNK         0.3000 
    145 H145       -0.3922  -22.9808  -43.6026 H         1 UNK         0.0600 
    146 H146        1.6113  -21.7395  -42.8778 H         1 UNK         0.0600 
    147 H147        1.8017  -21.0306  -44.4791 H         1 UNK         0.0600 
    148 H148        2.0141  -22.7618  -44.2489 H         1 UNK         0.0600 
    149 H149       -0.3087  -20.1584  -43.4718 H         1 UNK         0.3000 
    150 H150       -3.8513  -19.5663  -43.6979 H         1 UNK         0.0600 
    151 H151       -3.3676  -20.0986  -41.3428 H         1 UNK         0.0600 
    152 H152       -3.2199  -18.3638  -41.5865 H         1 UNK         0.0600 
    153 H153       -1.7755  -19.3673  -41.4541 H         1 UNK         0.0600 
    154 H154       -1.7384  -17.7116  -43.4680 H         1 UNK         0.3000 
    155 H155       -1.0246  -17.3115  -46.9541 H         1 UNK         0.0600 
    156 H156       -2.9687  -15.8818  -46.4963 H         1 UNK         0.0600 
    157 H157       -1.5166  -14.9496  -46.1764 H         1 UNK         0.0600 
    158 H158       -2.4555  -15.6029  -44.8403 H         1 UNK         0.0600 
    159 H159        0.0386  -16.1665  -44.5348 H         1 UNK         0.3000 
    160 H160        2.7541  -18.4790  -44.1803 H         1 UNK         0.0600 
    161 H161        2.6204  -15.5237  -44.9875 H         1 UNK         0.0600 
    162 H162        3.4481  -16.7865  -45.8920 H         1 UNK         0.0600 
    163 H163        4.0095  -16.3476  -44.2848 H         1 UNK         0.0600 
    164 H164        1.9470  -16.1566  -42.7073 H         1 UNK         0.3000 
    165 H165       -0.3768  -17.7050  -40.5299 H         1 UNK         0.0600 
    166 H166        1.1904  -17.0846  -38.7059 H         1 UNK         0.0600 
    167 H167        1.7394  -18.5492  -39.5044 H         1 UNK         0.0600 
    168 H168        2.5333  -17.0174  -39.8483 H         1 UNK         0.0600 
    169 H169        0.9056  -15.1992  -40.3441 H         1 UNK         0.3000 
    170 H170       -0.4806  -13.4168  -42.9424 H         1 UNK         0.0600 
    171 H171       -1.6959  -13.2671  -40.1295 H         1 UNK         0.0600 
    172 H172       -1.6939  -11.9704  -41.3261 H         1 UNK         0.0600 
    173 H173       -2.6037  -13.4418  -41.6266 H         1 UNK         0.0600 
    174 H174        0.6451  -12.5654  -40.4517 H         1 UNK         0.3000 
    175 H175        2.8955  -11.7482  -40.5537 H         1 UNK         0.0600 
    176 H176        3.6758  -14.6889  -40.0193 H         1 UNK         0.0600 
    177 H177        4.0947  -13.3166  -38.9988 H         1 UNK         0.0600 
    178 H178        2.4292  -13.8223  -39.1298 H         1 UNK         0.0600 
    179 H179        4.2384  -13.0152  -42.6589 H         1 UNK         0.3000 
    180 H180        7.5817  -11.8484  -41.9167 H         1 UNK         0.0600 
    181 H181        7.8698  -13.7497  -43.4473 H         1 UNK         0.0600 
    182 H182        6.1639  -14.1745  -43.3259 H         1 UNK         0.0600 
    183 H183        7.2165  -14.3316  -41.9250 H         1 UNK         0.0600 
    184 H184        6.2493  -11.9697  -44.4289 H         1 UNK         0.3000 
    185 H185        5.1902   -8.6933  -44.7594 H         1 UNK         0.0600 
    186 H186        6.9670   -8.2853  -46.4464 H         1 UNK         0.0600 
    187 H187        7.6101   -8.0911  -44.8243 H         1 UNK         0.0600 
    188 H188        7.9670   -9.5532  -45.7355 H         1 UNK         0.0600 
    189 H189        5.9840  -10.6335  -46.7150 H         1 UNK         0.3000 
    190 H190       -2.7102  -20.7958  -46.9267 H         1 UNK         0.3000 
    191 H191       -4.6432  -21.8932  -48.7016 H         1 UNK         0.0600 
    192 H192       -5.0917  -19.9117  -47.2974 H         1 UNK         0.0600 
    193 H193       -4.9433  -20.8748  -45.8302 H         1 UNK         0.0600 
    194 H194       -6.2688  -21.1700  -46.9517 H         1 UNK         0.0600 
    195 H195       -3.4565  -23.0328  -45.4943 H         1 UNK         0.3000 
    196 H196       -5.1391  -25.3160  -45.3146 H         1 UNK         0.0600 
    197 H197       -4.0158  -24.3302  -43.3498 H         1 UNK         0.0600 
    198 H198       -2.4301  -24.7268  -44.0097 H         1 UNK         0.0600 
    199 H199       -3.5319  -26.0101  -43.5218 H         1 UNK         0.0600 
    200 H200       -1.8291  -24.9181  -46.6390 H         1 UNK         0.3000 
    201 H201       -1.4596  -27.6772  -47.3663 H         1 UNK         0.0600 
    202 H202        0.4260  -26.0895  -47.0016 H         1 UNK         0.0600 
    203 H203       -0.1010  -25.1199  -48.3774 H         1 UNK         0.0600 
    204 H204        0.4911  -26.7586  -48.6245 H         1 UNK         0.0600 
    205 H205       -3.2774  -25.1312  -48.7808 H         1 UNK         0.3000 
    206 H206       -4.4297  -24.7633  -50.6144 H         1 UNK         0.0600 
    207 H207       -4.2406  -27.7687  -51.1981 H         1 UNK         0.0600 
    208 H208       -5.4703  -26.9914  -50.2014 H         1 UNK         0.0600 
    209 H209       -5.3747  -26.6373  -51.9182 H         1 UNK         0.0600 
    210 H210       -2.1173  -23.8016  -50.8205 H         1 UNK         0.3000 
    211 H211       -0.2172  -24.6641  -52.6499 H         1 UNK         0.0600 
    212 H212       -1.0121  -21.8076  -51.8744 H         1 UNK         0.0600 
    213 H213        0.5120  -22.2598  -52.6305 H         1 UNK         0.0600 
    214 H214        0.1349  -22.8377  -51.0152 H         1 UNK         0.0600 
    215 H215       -3.2226  -22.9030  -53.3430 H         1 UNK         0.3000 
    216 H216       -2.6266  -22.9245  -56.2791 H         1 UNK         0.0600 
    217 H217       -4.2175  -21.1000  -56.4347 H         1 UNK         0.0600 
    218 H218       -3.0849  -20.6901  -55.1580 H         1 UNK         0.0600 
    219 H219       -4.6928  -21.2874  -54.7475 H         1 UNK         0.0600 
    220 H220       -3.6221  -25.1955  -54.4632 H         1 UNK         0.3000 
    221 H221       -4.9987  -26.9124  -54.5015 H         1 UNK         0.0600 
    222 H222       -5.4372  -26.1386  -57.4423 H         1 UNK         0.0600 
    223 H223       -4.1581  -27.1636  -56.8085 H         1 UNK         0.0600 
    224 H224       -5.8235  -27.7020  -56.7227 H         1 UNK         0.0600 
    225 H225       -7.3791  -26.0541  -56.7612 H         1 UNK         0.3000 
    226 H226       -9.5046  -26.0307  -54.8940 H         1 UNK         0.0600 
    227 H227       -9.7501  -26.7588  -57.2522 H         1 UNK         0.0600 
    228 H228      -10.8798  -25.4602  -56.9053 H         1 UNK         0.0600 
    229 H229       -9.4161  -25.1225  -57.8217 H         1 UNK         0.0600 
    230 H230       -7.4895  -23.3894  -56.0232 H         1 UNK         0.3000 
    231 H231       -9.3449  -21.2946  -55.0631 H         1 UNK         0.0600 
    232 H232       -7.5803  -19.7607  -55.9232 H         1 UNK         0.0600 
    233 H233       -8.1137  -20.8899  -57.1566 H         1 UNK         0.0600 
    234 H234       -6.5748  -21.1401  -56.3436 H         1 UNK         0.0600 
    235 H235       -7.3531  -23.4382  -53.5276 H         1 UNK         0.3000 
    236 H236       -6.3690  -23.6464  -51.5838 H         1 UNK         0.0600 
    237 H237       -8.1687  -21.3019  -50.7600 H         1 UNK         0.0600 
    238 H238       -8.5446  -23.0162  -50.6714 H         1 UNK         0.0600 
    239 H239       -7.2910  -22.3460  -49.6436 H         1 UNK         0.0600 
    240 H240       -6.4710  -20.2238  -50.8614 H         1 UNK         0.3000 
    241 H241       -3.6146  -19.9883  -50.6182 H         1 UNK         0.0600 
    242 H242       -4.6919  -18.6166  -54.3531 H         1 UNK         0.3800 
    243 H243       -5.9215  -19.2463  -53.2803 H         1 UNK         0.3800 
    244 H244       -5.3023  -17.4644  -50.7579 H         1 UNK         0.0800 
    245 H245       -5.7208  -18.5878  -49.5088 H         1 UNK         0.0800 
    246 H246       -3.2253  -15.4610  -49.8526 H         1 UNK         0.0800 
    247 H247       -2.9156  -16.5987  -51.1434 H         1 UNK         0.0800 
@<TRIPOS>BOND
     1    1    2 1    
     2    1  127 1    
     3    1  128 1    
     4    1  129 1    
     5    2    3 2    
     6    2    4 am   BACKBONE|DICT|INTERRES
     7    4    5 1    
     8    4  130 1    
     9    5    6 1    
    10    5   65 1    
    11    5  131 1    
    12    6    7 1    
    13    6  132 1    
    14    6  133 1    
    15    7    8 1    
    16    8    9 1    
    17    8  134 1    
    18    8  135 1    
    19    9   10 ar   
    20    9   14 ar   
    21   10   11 ar   
    22   10  136 1    
    23   11   12 ar   
    24   11  126 1    
    25   12   13 ar   
    26   12  137 1    
    27   13   14 ar   
    28   13   15 1    
    29   14  138 1    
    30   15   16 1    
    31   15  139 1    
    32   15  140 1    
    33   16   17 1    
    34   17   18 1    
    35   17  141 1    
    36   17  142 1    
    37   18   19 1    
    38   18   67 1    
    39   18  143 1    
    40   19   20 am   BACKBONE|DICT|INTERRES
    41   19  144 1    
    42   20   21 2    
    43   20   22 1    
    44   22   23 1    
    45   22   24 1    
    46   22  145 1    
    47   23  146 1    
    48   23  147 1    
    49   23  148 1    
    50   24   25 am   BACKBONE|DICT|INTERRES
    51   24  149 1    
    52   25   26 2    
    53   25   27 1    
    54   27   28 1    
    55   27   29 1    
    56   27  150 1    
    57   28  151 1    
    58   28  152 1    
    59   28  153 1    
    60   29   30 am   BACKBONE|DICT|INTERRES
    61   29  154 1    
    62   30   31 2    
    63   30   32 1    
    64   32   33 1    
    65   32   34 1    
    66   32  155 1    
    67   33  156 1    
    68   33  157 1    
    69   33  158 1    
    70   34   35 am   BACKBONE|DICT|INTERRES
    71   34  159 1    
    72   35   36 2    
    73   35   37 1    
    74   37   38 1    
    75   37   39 1    
    76   37  160 1    
    77   38  161 1    
    78   38  162 1    
    79   38  163 1    
    80   39   40 am   BACKBONE|DICT|INTERRES
    81   39  164 1    
    82   40   41 2    
    83   40   42 1    
    84   42   43 1    
    85   42   44 1    
    86   42  165 1    
    87   43  166 1    
    88   43  167 1    
    89   43  168 1    
    90   44   45 am   BACKBONE|DICT|INTERRES
    91   44  169 1    
    92   45   46 2    
    93   45   47 1    
    94   47   48 1    
    95   47   49 1    
    96   47  170 1    
    97   48  171 1    
    98   48  172 1    
    99   48  173 1    
   100   49   50 am   BACKBONE|DICT|INTERRES
   101   49  174 1    
   102   50   51 2    
   103   50   52 1    
   104   52   53 1    
   105   52   54 1    
   106   52  175 1    
   107   53  176 1    
   108   53  177 1    
   109   53  178 1    
   110   54   55 am   BACKBONE|DICT|INTERRES
   111   54  179 1    
   112   55   56 2    
   113   55   57 1    
   114   57   58 1    
   115   57   59 1    
   116   57  180 1    
   117   58  181 1    
   118   58  182 1    
   119   58  183 1    
   120   59   60 am   BACKBONE|DICT|INTERRES
   121   59  184 1    
   122   60   61 2    
   123   60   62 1    
   124   62   63 1    
   125   62   64 1    
   126   62  185 1    
   127   63  186 1    
   128   63  187 1    
   129   63  188 1    
   130   64   65 am   BACKBONE|DICT|INTERRES
   131   64  189 1    
   132   65   66 2    
   133   67   68 2    
   134   67   69 am   BACKBONE|DICT|INTERRES
   135   69   70 1    
   136   69  190 1    
   137   70   71 1    
   138   70   72 1    
   139   70  191 1    
   140   71  192 1    
   141   71  193 1    
   142   71  194 1    
   143   72   73 2    
   144   72   74 am   BACKBONE|DICT|INTERRES
   145   74   75 1    
   146   74  195 1    
   147   75   76 1    
   148   75   77 1    
   149   75  196 1    
   150   76  197 1    
   151   76  198 1    
   152   76  199 1    
   153   77   78 2    
   154   77   79 am   BACKBONE|DICT|INTERRES
   155   79   80 1    
   156   79  200 1    
   157   80   81 1    
   158   80   82 1    
   159   80  201 1    
   160   81  202 1    
   161   81  203 1    
   162   81  204 1    
   163   82   83 2    
   164   82   84 am   BACKBONE|DICT|INTERRES
   165   84   85 1    
   166   84  205 1    
   167   85   86 1    
   168   85   87 1    
   169   85  206 1    
   170   86  207 1    
   171   86  208 1    
   172   86  209 1    
   173   87   88 2    
   174   87   89 am   BACKBONE|DICT|INTERRES
   175   89   90 1    
   176   89  210 1    
   177   90   91 1    
   178   90   92 1    
   179   90  211 1    
   180   91  212 1    
   181   91  213 1    
   182   91  214 1    
   183   92   93 2    
   184   92   94 am   BACKBONE|DICT|INTERRES
   185   94   95 1    
   186   94  215 1    
   187   95   96 1    
   188   95   97 1    
   189   95  216 1    
   190   96  217 1    
   191   96  218 1    
   192   96  219 1    
   193   97   98 2    
   194   97   99 am   BACKBONE|DICT|INTERRES
   195   99  100 1    
   196   99  220 1    
   197  100  101 1    
   198  100  102 1    
   199  100  221 1    
   200  101  222 1    
   201  101  223 1    
   202  101  224 1    
   203  102  103 2    
   204  102  104 am   BACKBONE|DICT|INTERRES
   205  104  105 1    
   206  104  225 1    
   207  105  106 1    
   208  105  107 1    
   209  105  226 1    
   210  106  227 1    
   211  106  228 1    
   212  106  229 1    
   213  107  108 2    
   214  107  109 am   BACKBONE|DICT|INTERRES
   215  109  110 1    
   216  109  230 1    
   217  110  111 1    
   218  110  112 1    
   219  110  231 1    
   220  111  232 1    
   221  111  233 1    
   222  111  234 1    
   223  112  113 2    
   224  112  114 am   BACKBONE|DICT|INTERRES
   225  114  115 1    
   226  114  235 1    
   227  115  116 1    
   228  115  117 1    
   229  115  236 1    
   230  116  237 1    
   231  116  238 1    
   232  116  239 1    
   233  117  118 2    
   234  117  119 am   BACKBONE|DICT|INTERRES
   235  119  120 1    
   236  119  240 1    
   237  120  121 1    
   238  120  124 1    
   239  120  241 1    
   240  121  122 am   BACKBONE|DICT|INTERRES
   241  121  123 2    
   242  122  242 1    
   243  122  243 1    
   244  124  125 1    
   245  124  244 1    
   246  124  245 1    
   247  125  126 1    
   248  126  246 1    
   249  126  247 1    
@<TRIPOS>SUBSTRUCTURE
     1 UNK         1 GROUP             0       ****    0 ROOT    
