@<TRIPOS>MOLECULE
3R540
247   249    1
SMALL
USER_CHARGES


@<TRIPOS>ATOM
      1 CA         -0.7872  -13.8965  -47.4728 C.3       0 UNK        -0.1800 
      2 C           0.3556  -12.9849  -47.8903 C.2       0 UNK         0.5000 
      3 O           0.1274  -11.8010  -48.1382 O.2       0 UNK        -0.5000 
      4 N           1.5892  -13.5097  -47.9247 N.am      1 UNK        -0.5000 
      5 CA          2.8114  -12.7785  -48.3061 C.3       1 UNK         0.1400 
      6 C6          4.0185  -13.7272  -48.5143 C.3       23 UNK        -0.0398 
      7 S7          3.7274  -14.9143  -49.8701 S.3       23 UNK        -0.2404 
      8 C8          4.4175  -16.4598  -49.1769 C.3       23 UNK        -0.0205 
      9 C9          4.0721  -17.7430  -49.9384 C.ar      23 UNK        -0.0193 
     10 C10         3.1193  -17.7888  -50.9666 C.ar      23 UNK        -0.1150 
     11 C11         2.8285  -18.9881  -51.6215 C.ar      23 UNK        -0.0193 
     12 C12         3.4998  -20.1542  -51.2516 C.ar      23 UNK        -0.1150 
     13 C13         4.4334  -20.1354  -50.2126 C.ar      23 UNK        -0.0193 
     14 C14         4.7177  -18.9281  -49.5669 C.ar      23 UNK        -0.1150 
     15 C15         5.1279  -21.4218  -49.7866 C.3       23 UNK        -0.0205 
     16 S16         4.2830  -22.2309  -48.3879 S.3       23 UNK        -0.2404 
     17 C17         2.7010  -22.7191  -49.1577 C.3       23 UNK        -0.0398 
     18 CA          1.7041  -23.3761  -48.1741 C.3       11 UNK         0.1400 
     19 N           1.4680  -22.5383  -46.9954 N.am      11 UNK        -0.5000 
     20 C           0.6859  -22.8460  -45.9522 C.2       10 UNK         0.5000 
     21 O           0.1373  -23.9378  -45.8094 O.2       10 UNK        -0.5000 
     22 CA          0.4198  -21.7212  -44.9310 C.3       10 UNK         0.1400 
     23 CB          1.3302  -21.8777  -43.7054 C.3       10 UNK        -0.1800 
     24 N           0.5722  -20.3694  -45.4847 N.am      10 UNK        -0.5000 
     25 C          -0.1501  -19.8724  -46.5036 C.2       9 UNK         0.5000 
     26 O          -1.0215  -20.5195  -47.0850 O.2       9 UNK        -0.5000 
     27 CA          0.1834  -18.4415  -46.9593 C.3       9 UNK         0.1400 
     28 CB         -0.9496  -17.7715  -47.7591 C.3       9 UNK        -0.1800 
     29 N           0.5590  -17.6365  -45.8004 N.am      9 UNK        -0.5000 
     30 C           1.4814  -16.6708  -45.7943 C.2       8 UNK         0.5000 
     31 O           1.9793  -16.2042  -46.8177 O.2       8 UNK        -0.5000 
     32 CA          1.9190  -16.1042  -44.4300 C.3       8 UNK         0.1400 
     33 CB          1.7375  -14.5804  -44.3883 C.3       8 UNK        -0.1800 
     34 N           1.2354  -16.6946  -43.2783 N.am      8 UNK        -0.5000 
     35 C           1.5295  -17.8799  -42.7276 C.2       7 UNK         0.5000 
     36 O           2.3290  -18.6755  -43.2200 O.2       7 UNK        -0.5000 
     37 CA          0.7914  -18.2435  -41.4295 C.3       7 UNK         0.1400 
     38 CB          1.4062  -17.4972  -40.2352 C.3       7 UNK        -0.1800 
     39 N          -0.6261  -17.9021  -41.5291 N.am      7 UNK        -0.5000 
     40 C          -1.6356  -18.7825  -41.4992 C.2       6 UNK         0.5000 
     41 O          -1.4910  -19.9889  -41.2988 O.2       6 UNK        -0.5000 
     42 CA         -3.0528  -18.2253  -41.7576 C.3       6 UNK         0.1400 
     43 CB         -3.7429  -17.8771  -40.4301 C.3       6 UNK        -0.1800 
     44 N          -3.0688  -17.0449  -42.6266 N.am      6 UNK        -0.5000 
     45 C          -2.6241  -17.0238  -43.8902 C.2       5 UNK         0.5000 
     46 O          -2.2367  -18.0274  -44.4865 O.2       5 UNK        -0.5000 
     47 CA         -2.5441  -15.6584  -44.6011 C.3       5 UNK         0.1400 
     48 CB         -3.7253  -15.4888  -45.5679 C.3       5 UNK        -0.1800 
     49 N          -2.4639  -14.4713  -43.7401 N.am      5 UNK        -0.5000 
     50 C          -1.5914  -14.2363  -42.7511 C.2       4 UNK         0.5000 
     51 O          -0.7929  -15.0769  -42.3331 O.2       4 UNK        -0.5000 
     52 CA         -1.5954  -12.8115  -42.1612 C.3       4 UNK         0.1400 
     53 CB         -0.7114  -12.6978  -40.9065 C.3       4 UNK        -0.1800 
     54 N          -1.1421  -11.8195  -43.1380 N.am      4 UNK        -0.5000 
     55 C          -1.8397  -11.3500  -44.1786 C.2       3 UNK         0.5000 
     56 O          -2.9853  -11.7191  -44.4413 O.2       3 UNK        -0.5000 
     57 CA         -1.1576  -10.3115  -45.0940 C.3       3 UNK         0.1400 
     58 CB         -1.4440   -8.8784  -44.6077 C.3       3 UNK        -0.1800 
     59 N           0.2801  -10.5177  -45.3322 N.am      3 UNK        -0.5000 
     60 C           1.3111  -10.4207  -44.4767 C.2       2 UNK         0.5000 
     61 O           1.1785  -10.1761  -43.2771 O.2       2 UNK        -0.5000 
     62 CA          2.7150  -10.6850  -45.0578 C.3       2 UNK         0.1400 
     63 CB          3.7297  -11.1350  -43.9907 C.3       2 UNK        -0.1800 
     64 N           2.6329  -11.7016  -46.1031 N.am      2 UNK        -0.5000 
     65 C           3.1755  -11.6385  -47.3241 C.2       1 UNK         0.5000 
     66 O           3.9122  -10.7252  -47.6981 O.2       1 UNK        -0.5000 
     67 C           0.3935  -23.7037  -48.9238 C.2       11 UNK         0.5000 
     68 O           0.2314  -24.8280  -49.3974 O.2       11 UNK        -0.5000 
     69 N          -0.5243  -22.7257  -48.9964 N.am      12 UNK        -0.5000 
     70 CA         -1.8439  -22.8784  -49.6050 C.3       12 UNK         0.1400 
     71 CB         -2.4928  -21.5004  -49.8086 C.3       12 UNK        -0.1800 
     72 C          -2.7405  -23.7751  -48.7422 C.2       12 UNK         0.5000 
     73 O          -3.3735  -24.6843  -49.2736 O.2       12 UNK        -0.5000 
     74 N          -2.7304  -23.5403  -47.4219 N.am      13 UNK        -0.5000 
     75 CA         -3.4714  -24.3257  -46.4338 C.3       13 UNK         0.1400 
     76 CB         -3.3367  -23.6755  -45.0485 C.3       13 UNK        -0.1800 
     77 C          -3.0331  -25.8019  -46.4006 C.2       13 UNK         0.5000 
     78 O          -3.8886  -26.6859  -46.3575 O.2       13 UNK        -0.5000 
     79 N          -1.7171  -26.0427  -46.4879 N.am      14 UNK        -0.5000 
     80 CA         -1.1103  -27.3716  -46.5972 C.3       14 UNK         0.1400 
     81 CB          0.4155  -27.2408  -46.4784 C.3       14 UNK        -0.1800 
     82 C          -1.4912  -28.1112  -47.8958 C.2       14 UNK         0.5000 
     83 O          -1.6474  -29.3324  -47.8752 O.2       14 UNK        -0.5000 
     84 N          -1.6615  -27.3590  -48.9912 N.am      15 UNK        -0.5000 
     85 CA         -2.1229  -27.8548  -50.2900 C.3       15 UNK         0.1400 
     86 CB         -1.6138  -26.9042  -51.3868 C.3       15 UNK        -0.1800 
     87 C          -3.6571  -28.0093  -50.3776 C.2       15 UNK         0.5000 
     88 O          -4.1458  -28.5335  -51.3794 O.2       15 UNK        -0.5000 
     89 N          -4.3841  -27.5393  -49.3517 N.am      16 UNK        -0.5000 
     90 CA         -5.8447  -27.4400  -49.2544 C.3       16 UNK         0.1400 
     91 CB         -6.4985  -28.8377  -49.2429 C.3       16 UNK        -0.1800 
     92 C          -6.4538  -26.4869  -50.3076 C.2       16 UNK         0.5000 
     93 O          -7.5592  -26.7270  -50.7978 O.2       16 UNK        -0.5000 
     94 N          -5.7181  -25.4179  -50.6292 N.am      17 UNK        -0.5000 
     95 CA         -6.1013  -24.3506  -51.5459 C.3       17 UNK         0.1400 
     96 CB         -4.9331  -24.1108  -52.5189 C.3       17 UNK        -0.1800 
     97 C          -6.4008  -23.0639  -50.7599 C.2       17 UNK         0.5000 
     98 O          -5.9915  -22.9243  -49.6044 O.2       17 UNK        -0.5000 
     99 N          -7.0805  -22.1202  -51.4198 N.am      18 UNK        -0.5000 
    100 CA        -7.2315  -20.7465  -50.9433 C.3       18 UNK         0.1400 
    101 CB        -8.3785  -20.0748  -51.7139 C.3       18 UNK        -0.1800 
    102 C         -5.9231  -19.9692  -51.1627 C.2       18 UNK         0.5000 
    103 O         -5.2357  -20.2128  -52.1572 O.2       18 UNK        -0.5000 
    104 N         -5.6253  -19.0090  -50.2786 N.am      19 UNK        -0.5000 
    105 CA        -4.4336  -18.1526  -50.3514 C.3       19 UNK         0.1400 
    106 CB        -4.3348  -17.3177  -49.0659 C.3       19 UNK        -0.1800 
    107 C         -4.3903  -17.2425  -51.5970 C.2       19 UNK         0.5000 
    108 O         -3.3052  -16.8458  -52.0198 O.2       19 UNK        -0.5000 
    109 N         -5.5645  -16.9495  -52.1743 N.am      20 UNK        -0.5000 
    110 CA        -5.7164  -16.2230  -53.4355 C.3       20 UNK         0.1400 
    111 CB        -7.1832  -15.7929  -53.5906 C.3       20 UNK        -0.1800 
    112 C         -5.2629  -17.0433  -54.6603 C.2       20 UNK         0.5000 
    113 O         -4.7909  -16.4575  -55.6354 O.2       20 UNK        -0.5000 
    114 N         -5.4092  -18.3740  -54.5896 N.am      21 UNK        -0.5000 
    115 CA        -4.9299  -19.3141  -55.6024 C.3       21 UNK         0.1400 
    116 CB        -5.8398  -20.5539  -55.6233 C.3       21 UNK        -0.1800 
    117 C         -3.4706  -19.7044  -55.3189 C.2       21 UNK         0.5000 
    118 O         -2.6342  -19.6513  -56.2207 O.2       21 UNK        -0.5000 
    119 N         -3.1978  -20.0567  -54.0562 N.am      22 UNK        -0.5000 
    120 CA        -1.8789  -20.3923  -53.5028 C.3       22 UNK         0.1400 
    121 C         -1.2511  -21.7190  -54.0321 C.2       22 UNK         0.5000 
    122 N         -2.0290  -22.6238  -54.6143 N.am      22 UNK        -0.7600 
    123 O         -0.0535  -21.9508  -53.8958 O.2       22 UNK        -0.5000 
    124 C124       -0.9097  -19.1758  -53.5209 C.3       23 UNK        -0.0398 
    125 S125        0.1042  -19.0702  -52.0074 S.3       23 UNK        -0.2404 
    126 C126        1.7768  -19.0252  -52.7174 C.3       23 UNK        -0.0205 
    127 H127       -0.4181  -14.8210  -47.0360 H         1 UNK         0.0600 
    128 H128       -1.4075  -14.1448  -48.3338 H         1 UNK         0.0600 
    129 H129       -1.4119  -13.4001  -46.7303 H         1 UNK         0.0600 
    130 H130        1.7233  -14.4946  -47.7059 H         1 UNK         0.3000 
    131 H131        2.6048  -12.2938  -49.2629 H         1 UNK         0.0600 
    132 H132        4.9179  -13.1615  -48.7647 H         1 UNK         0.0800 
    133 H133        4.2400  -14.2641  -47.5903 H         1 UNK         0.0800 
    134 H134        4.0812  -16.5793  -48.1484 H         1 UNK         0.0800 
    135 H135        5.5025  -16.3542  -49.1338 H         1 UNK         0.0800 
    136 H136        2.5807  -16.9009  -51.2621 H         1 UNK         0.1150 
    137 H137        3.2748  -21.0838  -51.7557 H         1 UNK         0.1150 
    138 H138        5.4402  -18.9140  -48.7627 H         1 UNK         0.1150 
    139 H139        5.1914  -22.1174  -50.6249 H         1 UNK         0.0800 
    140 H140        6.1567  -21.2027  -49.4970 H         1 UNK         0.0800 
    141 H141        2.9194  -23.3939  -49.9876 H         1 UNK         0.0800 
    142 H142        2.2440  -21.8295  -49.5918 H         1 UNK         0.0800 
    143 H143        2.1310  -24.3186  -47.8251 H         1 UNK         0.0600 
    144 H144        1.9041  -21.6286  -47.0084 H         1 UNK         0.3000 
    145 H145       -0.6154  -21.8249  -44.6001 H         1 UNK         0.0600 
    146 H146        1.0482  -21.1802  -42.9170 H         1 UNK         0.0600 
    147 H147        1.2560  -22.8823  -43.2867 H         1 UNK         0.0600 
    148 H148        2.3770  -21.7003  -43.9551 H         1 UNK         0.0600 
    149 H149        1.2879  -19.7921  -45.0626 H         1 UNK         0.3000 
    150 H150        1.0470  -18.5380  -47.6212 H         1 UNK         0.0600 
    151 H151       -1.2562  -18.3900  -48.6038 H         1 UNK         0.0600 
    152 H152       -0.6280  -16.8171  -48.1721 H         1 UNK         0.0600 
    153 H153       -1.8295  -17.5986  -47.1408 H         1 UNK         0.0600 
    154 H154        0.1398  -17.9180  -44.9237 H         1 UNK         0.3000 
    155 H155        2.9861  -16.3130  -44.3296 H         1 UNK         0.0600 
    156 H156        0.7241  -14.2816  -44.6574 H         1 UNK         0.0600 
    157 H157        2.4254  -14.1114  -45.0883 H         1 UNK         0.0600 
    158 H158        1.9581  -14.1771  -43.3997 H         1 UNK         0.0600 
    159 H159        0.5410  -16.0996  -42.8303 H         1 UNK         0.3000 
    160 H160        0.9231  -19.3145  -41.2642 H         1 UNK         0.0600 
    161 H161        1.2995  -16.4160  -40.3349 H         1 UNK         0.0600 
    162 H162        2.4705  -17.7170  -40.1420 H         1 UNK         0.0600 
    163 H163        0.9296  -17.7942  -39.3009 H         1 UNK         0.0600 
    164 H164       -0.8430  -16.9280  -41.7155 H         1 UNK         0.3000 
    165 H165       -3.6297  -19.0105  -42.2506 H         1 UNK         0.0600 
    166 H166       -4.7732  -17.5596  -40.5917 H         1 UNK         0.0600 
    167 H167       -3.7710  -18.7420  -39.7660 H         1 UNK         0.0600 
    168 H168       -3.2217  -17.0761  -39.9043 H         1 UNK         0.0600 
    169 H169       -3.3609  -16.1742  -42.2086 H         1 UNK         0.3000 
    170 H170       -1.6265  -15.6777  -45.1896 H         1 UNK         0.0600 
    171 H171       -3.8076  -16.3409  -46.2431 H         1 UNK         0.0600 
    172 H172       -4.6711  -15.4031  -45.0317 H         1 UNK         0.0600 
    173 H173       -3.6081  -14.5982  -46.1854 H         1 UNK         0.0600 
    174 H174       -3.0356  -13.6825  -44.0261 H         1 UNK         0.3000 
    175 H175       -2.6218  -12.5777  -41.8714 H         1 UNK         0.0600 
    176 H176        0.3377  -12.8924  -41.1341 H         1 UNK         0.0600 
    177 H177       -0.7783  -11.7025  -40.4669 H         1 UNK         0.0600 
    178 H178       -1.0210  -13.4117  -40.1421 H         1 UNK         0.0600 
    179 H179       -0.2174  -11.4249  -42.9919 H         1 UNK         0.3000 
    180 H180       -1.6262  -10.4191  -46.0737 H         1 UNK         0.0600 
    181 H181       -1.0249   -8.6906  -43.6188 H         1 UNK         0.0600 
    182 H182       -2.5177   -8.6973  -44.5440 H         1 UNK         0.0600 
    183 H183       -1.0306   -8.1393  -45.2939 H         1 UNK         0.0600 
    184 H184        0.5017  -10.7524  -46.2938 H         1 UNK         0.3000 
    185 H185        3.0558   -9.7382  -45.4813 H         1 UNK         0.0600 
    186 H186        4.7096  -11.3169  -44.4323 H         1 UNK         0.0600 
    187 H187        3.8585  -10.3707  -43.2233 H         1 UNK         0.0600 
    188 H188        3.4111  -12.0516  -43.4936 H         1 UNK         0.0600 
    189 H189        2.0325  -12.4879  -45.9033 H         1 UNK         0.3000 
    190 H190       -0.3624  -21.8544  -48.5050 H         1 UNK         0.3000 
    191 H191       -1.7165  -23.3464  -50.5836 H         1 UNK         0.0600 
    192 H192       -2.8654  -21.0769  -48.8754 H         1 UNK         0.0600 
    193 H193       -3.3421  -21.5744  -50.4882 H         1 UNK         0.0600 
    194 H194       -1.7868  -20.7861  -50.2295 H         1 UNK         0.0600 
    195 H195       -2.1679  -22.7756  -47.0752 H         1 UNK         0.3000 
    196 H196       -4.5250  -24.2993  -46.7204 H         1 UNK         0.0600 
    197 H197       -3.9409  -24.2057  -44.3114 H         1 UNK         0.0600 
    198 H198       -3.6761  -22.6396  -45.0628 H         1 UNK         0.0600 
    199 H199       -2.3064  -23.6865  -44.6933 H         1 UNK         0.0600 
    200 H200       -1.0766  -25.2532  -46.4561 H         1 UNK         0.3000 
    201 H201       -1.4684  -27.9714  -45.7580 H         1 UNK         0.0600 
    202 H202        0.6995  -26.7882  -45.5281 H         1 UNK         0.0600 
    203 H203        0.8292  -26.6254  -47.2780 H         1 UNK         0.0600 
    204 H204        0.8979  -28.2177  -46.5311 H         1 UNK         0.0600 
    205 H205       -1.4878  -26.3636  -48.9294 H         1 UNK         0.3000 
    206 H206       -1.6862  -28.8396  -50.4676 H         1 UNK         0.0600 
    207 H207       -0.5275  -26.8175  -51.3605 H         1 UNK         0.0600 
    208 H208       -1.8861  -27.2666  -52.3787 H         1 UNK         0.0600 
    209 H209       -2.0313  -25.9028  -51.2790 H         1 UNK         0.0600 
    210 H210       -3.8779  -27.1126  -48.5863 H         1 UNK         0.3000 
    211 H211       -6.0461  -26.9794  -48.2863 H         1 UNK         0.0600 
    212 H212       -6.4060  -29.3387  -50.2067 H         1 UNK         0.0600 
    213 H213       -7.5623  -28.7685  -49.0130 H         1 UNK         0.0600 
    214 H214       -6.0453  -29.4779  -48.4861 H         1 UNK         0.0600 
    215 H215       -4.8535  -25.2500  -50.1154 H         1 UNK         0.3000 
    216 H216       -6.9896  -24.6301  -52.1160 H         1 UNK         0.0600 
    217 H217       -5.1750  -23.3329  -53.2441 H         1 UNK         0.0600 
    218 H218       -4.6958  -25.0154  -53.0789 H         1 UNK         0.0600 
    219 H219       -4.0292  -23.7982  -51.9938 H         1 UNK         0.0600 
    220 H220       -7.3520  -22.2916  -52.3766 H         1 UNK         0.3000 
    221 H221       -7.4748  -20.7553  -49.8787 H         1 UNK         0.0600 
    222 H222       -8.1749  -20.0293  -52.7849 H         1 UNK         0.0600 
    223 H223       -9.3153  -20.6146  -51.5742 H         1 UNK         0.0600 
    224 H224       -8.5394  -19.0535  -51.3665 H         1 UNK         0.0600 
    225 H225       -6.2411  -18.8550  -49.4930 H         1 UNK         0.3000 
    226 H226       -3.5574  -18.8022  -50.4018 H         1 UNK         0.0600 
    227 H227       -4.2481  -17.9583  -48.1880 H         1 UNK         0.0600 
    228 H228       -3.4549  -16.6731  -49.0839 H         1 UNK         0.0600 
    229 H229       -5.2073  -16.6772  -48.9325 H         1 UNK         0.0600 
    230 H230       -6.4085  -17.2959  -51.7437 H         1 UNK         0.3000 
    231 H231       -5.0988  -15.3234  -53.3903 H         1 UNK         0.0600 
    232 H232       -7.4963  -15.1532  -52.7653 H         1 UNK         0.0600 
    233 H233       -7.8542  -16.6524  -53.6238 H         1 UNK         0.0600 
    234 H234       -7.3286  -15.2272  -54.5118 H         1 UNK         0.0600 
    235 H235       -5.7454  -18.7791  -53.7266 H         1 UNK         0.3000 
    236 H236       -4.9738  -18.8483  -56.5893 H         1 UNK         0.0600 
    237 H237       -5.5056  -21.2689  -56.3760 H         1 UNK         0.0600 
    238 H238       -5.8528  -21.0703  -54.6631 H         1 UNK         0.0600 
    239 H239       -6.8666  -20.2815  -55.8679 H         1 UNK         0.0600 
    240 H240       -3.9661  -20.0967  -53.3883 H         1 UNK         0.3000 
    241 H241       -2.1086  -20.6118  -52.4632 H         1 UNK         0.0600 
    242 H242       -3.0123  -22.4499  -54.7395 H         1 UNK         0.3800 
    243 H243       -1.6218  -23.4817  -54.9509 H         1 UNK         0.3800 
    244 H244       -1.4730  -18.2430  -53.5711 H         1 UNK         0.0800 
    245 H245       -0.2838  -19.1854  -54.4147 H         1 UNK         0.0800 
    246 H246        1.8787  -18.1473  -53.3571 H         1 UNK         0.0800 
    247 H247        1.9229  -19.8975  -53.3568 H         1 UNK         0.0800 
@<TRIPOS>BOND
     1    1    2 1    
     2    1  127 1    
     3    1  128 1    
     4    1  129 1    
     5    2    3 2    
     6    2    4 am   BACKBONE|DICT|INTERRES
     7    4    5 1    
     8    4  130 1    
     9    5    6 1    
    10    5   65 1    
    11    5  131 1    
    12    6    7 1    
    13    6  132 1    
    14    6  133 1    
    15    7    8 1    
    16    8    9 1    
    17    8  134 1    
    18    8  135 1    
    19    9   10 ar   
    20    9   14 ar   
    21   10   11 ar   
    22   10  136 1    
    23   11   12 ar   
    24   11  126 1    
    25   12   13 ar   
    26   12  137 1    
    27   13   14 ar   
    28   13   15 1    
    29   14  138 1    
    30   15   16 1    
    31   15  139 1    
    32   15  140 1    
    33   16   17 1    
    34   17   18 1    
    35   17  141 1    
    36   17  142 1    
    37   18   19 1    
    38   18   67 1    
    39   18  143 1    
    40   19   20 am   BACKBONE|DICT|INTERRES
    41   19  144 1    
    42   20   21 2    
    43   20   22 1    
    44   22   23 1    
    45   22   24 1    
    46   22  145 1    
    47   23  146 1    
    48   23  147 1    
    49   23  148 1    
    50   24   25 am   BACKBONE|DICT|INTERRES
    51   24  149 1    
    52   25   26 2    
    53   25   27 1    
    54   27   28 1    
    55   27   29 1    
    56   27  150 1    
    57   28  151 1    
    58   28  152 1    
    59   28  153 1    
    60   29   30 am   BACKBONE|DICT|INTERRES
    61   29  154 1    
    62   30   31 2    
    63   30   32 1    
    64   32   33 1    
    65   32   34 1    
    66   32  155 1    
    67   33  156 1    
    68   33  157 1    
    69   33  158 1    
    70   34   35 am   BACKBONE|DICT|INTERRES
    71   34  159 1    
    72   35   36 2    
    73   35   37 1    
    74   37   38 1    
    75   37   39 1    
    76   37  160 1    
    77   38  161 1    
    78   38  162 1    
    79   38  163 1    
    80   39   40 am   BACKBONE|DICT|INTERRES
    81   39  164 1    
    82   40   41 2    
    83   40   42 1    
    84   42   43 1    
    85   42   44 1    
    86   42  165 1    
    87   43  166 1    
    88   43  167 1    
    89   43  168 1    
    90   44   45 am   BACKBONE|DICT|INTERRES
    91   44  169 1    
    92   45   46 2    
    93   45   47 1    
    94   47   48 1    
    95   47   49 1    
    96   47  170 1    
    97   48  171 1    
    98   48  172 1    
    99   48  173 1    
   100   49   50 am   BACKBONE|DICT|INTERRES
   101   49  174 1    
   102   50   51 2    
   103   50   52 1    
   104   52   53 1    
   105   52   54 1    
   106   52  175 1    
   107   53  176 1    
   108   53  177 1    
   109   53  178 1    
   110   54   55 am   BACKBONE|DICT|INTERRES
   111   54  179 1    
   112   55   56 2    
   113   55   57 1    
   114   57   58 1    
   115   57   59 1    
   116   57  180 1    
   117   58  181 1    
   118   58  182 1    
   119   58  183 1    
   120   59   60 am   BACKBONE|DICT|INTERRES
   121   59  184 1    
   122   60   61 2    
   123   60   62 1    
   124   62   63 1    
   125   62   64 1    
   126   62  185 1    
   127   63  186 1    
   128   63  187 1    
   129   63  188 1    
   130   64   65 am   BACKBONE|DICT|INTERRES
   131   64  189 1    
   132   65   66 2    
   133   67   68 2    
   134   67   69 am   BACKBONE|DICT|INTERRES
   135   69   70 1    
   136   69  190 1    
   137   70   71 1    
   138   70   72 1    
   139   70  191 1    
   140   71  192 1    
   141   71  193 1    
   142   71  194 1    
   143   72   73 2    
   144   72   74 am   BACKBONE|DICT|INTERRES
   145   74   75 1    
   146   74  195 1    
   147   75   76 1    
   148   75   77 1    
   149   75  196 1    
   150   76  197 1    
   151   76  198 1    
   152   76  199 1    
   153   77   78 2    
   154   77   79 am   BACKBONE|DICT|INTERRES
   155   79   80 1    
   156   79  200 1    
   157   80   81 1    
   158   80   82 1    
   159   80  201 1    
   160   81  202 1    
   161   81  203 1    
   162   81  204 1    
   163   82   83 2    
   164   82   84 am   BACKBONE|DICT|INTERRES
   165   84   85 1    
   166   84  205 1    
   167   85   86 1    
   168   85   87 1    
   169   85  206 1    
   170   86  207 1    
   171   86  208 1    
   172   86  209 1    
   173   87   88 2    
   174   87   89 am   BACKBONE|DICT|INTERRES
   175   89   90 1    
   176   89  210 1    
   177   90   91 1    
   178   90   92 1    
   179   90  211 1    
   180   91  212 1    
   181   91  213 1    
   182   91  214 1    
   183   92   93 2    
   184   92   94 am   BACKBONE|DICT|INTERRES
   185   94   95 1    
   186   94  215 1    
   187   95   96 1    
   188   95   97 1    
   189   95  216 1    
   190   96  217 1    
   191   96  218 1    
   192   96  219 1    
   193   97   98 2    
   194   97   99 am   BACKBONE|DICT|INTERRES
   195   99  100 1    
   196   99  220 1    
   197  100  101 1    
   198  100  102 1    
   199  100  221 1    
   200  101  222 1    
   201  101  223 1    
   202  101  224 1    
   203  102  103 2    
   204  102  104 am   BACKBONE|DICT|INTERRES
   205  104  105 1    
   206  104  225 1    
   207  105  106 1    
   208  105  107 1    
   209  105  226 1    
   210  106  227 1    
   211  106  228 1    
   212  106  229 1    
   213  107  108 2    
   214  107  109 am   BACKBONE|DICT|INTERRES
   215  109  110 1    
   216  109  230 1    
   217  110  111 1    
   218  110  112 1    
   219  110  231 1    
   220  111  232 1    
   221  111  233 1    
   222  111  234 1    
   223  112  113 2    
   224  112  114 am   BACKBONE|DICT|INTERRES
   225  114  115 1    
   226  114  235 1    
   227  115  116 1    
   228  115  117 1    
   229  115  236 1    
   230  116  237 1    
   231  116  238 1    
   232  116  239 1    
   233  117  118 2    
   234  117  119 am   BACKBONE|DICT|INTERRES
   235  119  120 1    
   236  119  240 1    
   237  120  121 1    
   238  120  124 1    
   239  120  241 1    
   240  121  122 am   BACKBONE|DICT|INTERRES
   241  121  123 2    
   242  122  242 1    
   243  122  243 1    
   244  124  125 1    
   245  124  244 1    
   246  124  245 1    
   247  125  126 1    
   248  126  246 1    
   249  126  247 1    
@<TRIPOS>SUBSTRUCTURE
     1 UNK         1 GROUP             0       ****    0 ROOT    
