@<TRIPOS>MOLECULE
3R540
247   249    1
SMALL
USER_CHARGES


@<TRIPOS>ATOM
      1 CA         -3.9981  -15.2428  -52.7663 C.3       0 UNK        -0.1800 
      2 C          -3.1252  -14.5730  -51.7141 C.2       0 UNK         0.5000 
      3 O          -3.0352  -13.3451  -51.6835 O.2       0 UNK        -0.5000 
      4 N          -2.4790  -15.3726  -50.8608 N.am      1 UNK        -0.5000 
      5 CA         -1.6491  -14.9250  -49.7392 C.3       1 UNK         0.1400 
      6 C6         -0.7318  -16.0597  -49.2116 C.3       23 UNK        -0.0398 
      7 S7          0.3526  -16.7242  -50.5216 S.3       23 UNK        -0.2404 
      8 C8          1.5455  -17.7349  -49.5859 C.3       23 UNK        -0.0205 
      9 C9          2.0594  -18.8845  -50.4440 C.ar      23 UNK        -0.0193 
     10 C10         2.8497  -18.6266  -51.5665 C.ar      23 UNK        -0.1150 
     11 C11         3.2276  -19.6645  -52.4235 C.ar      23 UNK        -0.0193 
     12 C12         2.8613  -20.9790  -52.1195 C.ar      23 UNK        -0.1150 
     13 C13         2.0889  -21.2558  -50.9883 C.ar      23 UNK        -0.0193 
     14 C14         1.6947  -20.2025  -50.1569 C.ar      23 UNK        -0.1150 
     15 C15         1.5903  -22.6726  -50.7296 C.3       23 UNK        -0.0205 
     16 S16         2.7101  -23.6765  -49.6954 S.3       23 UNK        -0.2404 
     17 C17         2.5901  -22.8968  -48.0477 C.3       23 UNK        -0.0398 
     18 CA          1.4950  -23.4872  -47.1185 C.3       11 UNK         0.1400 
     19 N           1.7413  -23.0866  -45.7307 N.am      11 UNK        -0.5000 
     20 C           0.9750  -23.2940  -44.6522 C.2       10 UNK         0.5000 
     21 O          -0.1234  -23.8452  -44.6893 O.2       10 UNK        -0.5000 
     22 CA          1.5068  -22.7826  -43.2978 C.3       10 UNK         0.1400 
     23 CB          2.2134  -23.9064  -42.5183 C.3       10 UNK        -0.1800 
     24 N           2.3432  -21.5772  -43.3823 N.am      10 UNK        -0.5000 
     25 C           3.5610  -21.4133  -43.9187 C.2       9 UNK         0.5000 
     26 O           4.2020  -22.3185  -44.4525 O.2       9 UNK        -0.5000 
     27 CA          4.1341  -19.9853  -43.9243 C.3       9 UNK         0.1400 
     28 CB          3.9453  -19.3547  -45.3137 C.3       9 UNK        -0.1800 
     29 N           3.5186  -19.1187  -42.9178 N.am      9 UNK        -0.5000 
     30 C           3.7934  -19.1631  -41.6074 C.2       8 UNK         0.5000 
     31 O           4.6223  -19.9248  -41.1076 O.2       8 UNK        -0.5000 
     32 CA          2.9981  -18.2055  -40.7018 C.3       8 UNK         0.1400 
     33 CB          3.5607  -16.7787  -40.7916 C.3       8 UNK        -0.1800 
     34 N           1.5650  -18.1889  -41.0029 N.am      8 UNK        -0.5000 
     35 C           0.7332  -19.2217  -40.8007 C.2       7 UNK         0.5000 
     36 O           1.0881  -20.3081  -40.3436 O.2       7 UNK        -0.5000 
     37 CA         -0.7419  -19.0148  -41.1890 C.3       7 UNK         0.1400 
     38 CB         -1.4877  -18.2242  -40.1037 C.3       7 UNK        -0.1800 
     39 N          -0.8867  -18.3353  -42.4738 N.am      7 UNK        -0.5000 
     40 C          -0.5706  -18.8812  -43.6554 C.2       6 UNK         0.5000 
     41 O          -0.1954  -20.0439  -43.8017 O.2       6 UNK        -0.5000 
     42 CA         -0.6594  -17.9660  -44.8842 C.3       6 UNK         0.1400 
     43 CB         -2.1035  -17.9038  -45.4053 C.3       6 UNK        -0.1800 
     44 N          -0.1749  -16.6129  -44.6304 N.am      6 UNK        -0.5000 
     45 C           1.0738  -16.2876  -44.2739 C.2       5 UNK         0.5000 
     46 O           1.9808  -17.1039  -44.1277 O.2       5 UNK        -0.5000 
     47 CA          1.3383  -14.8021  -43.9841 C.3       5 UNK         0.1400 
     48 CB          1.5398  -14.0158  -45.2890 C.3       5 UNK        -0.1800 
     49 N           0.2576  -14.1999  -43.2041 N.am      5 UNK        -0.5000 
     50 C          -0.0246  -14.5130  -41.9316 C.2       4 UNK         0.5000 
     51 O           0.6152  -15.3286  -41.2672 O.2       4 UNK        -0.5000 
     52 CA         -1.2571  -13.8273  -41.3156 C.3       4 UNK         0.1400 
     53 CB         -0.9160  -12.4012  -40.8582 C.3       4 UNK        -0.1800 
     54 N          -2.3918  -13.7855  -42.2396 N.am      4 UNK        -0.5000 
     55 C          -3.0658  -14.8691  -42.6489 C.2       3 UNK         0.5000 
     56 O          -2.8130  -16.0142  -42.2738 O.2       3 UNK        -0.5000 
     57 CA         -4.1831  -14.6381  -43.6845 C.3       3 UNK         0.1400 
     58 CB         -5.4798  -14.1967  -42.9893 C.3       3 UNK        -0.1800 
     59 N          -3.8464  -13.6775  -44.7429 N.am      3 UNK        -0.5000 
     60 C          -2.7935  -13.7830  -45.5643 C.2       2 UNK         0.5000 
     61 O          -1.9072  -14.6263  -45.4326 O.2       2 UNK        -0.5000 
     62 CA         -2.6899  -12.7661  -46.7149 C.3       2 UNK         0.1400 
     63 CB         -1.8863  -11.5369  -46.2639 C.3       2 UNK        -0.1800 
     64 N          -2.0414  -13.3519  -47.8927 N.am      2 UNK        -0.5000 
     65 C          -2.5414  -14.3694  -48.6086 C.2       1 UNK         0.5000 
     66 O          -3.6479  -14.8734  -48.3949 O.2       1 UNK        -0.5000 
     67 C           0.0759  -23.1284  -47.6056 C.2       11 UNK         0.5000 
     68 O          -0.6711  -24.0132  -48.0221 O.2       11 UNK        -0.5000 
     69 N          -0.2756  -21.8374  -47.5330 N.am      12 UNK        -0.5000 
     70 CA         -1.5527  -21.3143  -48.0252 C.3       12 UNK         0.1400 
     71 CB         -1.4548  -19.7922  -48.2127 C.3       12 UNK        -0.1800 
     72 C          -2.7488  -21.7075  -47.1418 C.2       12 UNK         0.5000 
     73 O          -3.8505  -21.8815  -47.6650 O.2       12 UNK        -0.5000 
     74 N          -2.5074  -21.8711  -45.8334 N.am      13 UNK        -0.5000 
     75 CA         -3.4942  -22.3669  -44.8756 C.3       13 UNK         0.1400 
     76 CB         -3.0019  -22.1095  -43.4429 C.3       13 UNK        -0.1800 
     77 C          -3.8091  -23.8566  -45.1045 C.2       13 UNK         0.5000 
     78 O          -4.9808  -24.2337  -45.1104 O.2       13 UNK        -0.5000 
     79 N          -2.7638  -24.6632  -45.3381 N.am      14 UNK        -0.5000 
     80 CA         -2.8569  -26.0853  -45.6721 C.3       14 UNK         0.1400 
     81 CB         -1.4581  -26.7174  -45.6083 C.3       14 UNK        -0.1800 
     82 C          -3.5044  -26.3350  -47.0466 C.2       14 UNK         0.5000 
     83 O          -4.2737  -27.2861  -47.1894 O.2       14 UNK        -0.5000 
     84 N          -3.2054  -25.4654  -48.0230 N.am      15 UNK        -0.5000 
     85 CA         -3.7961  -25.4794  -49.3635 C.3       15 UNK         0.1400 
     86 CB         -3.0058  -24.5290  -50.2774 C.3       15 UNK        -0.1800 
     87 C          -5.2904  -25.1030  -49.3821 C.2       15 UNK         0.5000 
     88 O          -5.9829  -25.4554  -50.3368 O.2       15 UNK        -0.5000 
     89 N          -5.7503  -24.3680  -48.3577 N.am      16 UNK        -0.5000 
     90 CA         -7.1120  -23.8777  -48.0919 C.3       16 UNK         0.1400 
     91 CB         -8.1109  -25.0434  -47.9697 C.3       16 UNK        -0.1800 
     92 C          -7.6249  -22.8056  -49.0767 C.2       16 UNK         0.5000 
     93 O          -8.3808  -21.9240  -48.6687 O.2       16 UNK        -0.5000 
     94 N          -7.1808  -22.8657  -50.3372 N.am      17 UNK        -0.5000 
     95 CA         -7.4628  -21.9100  -51.4110 C.3       17 UNK         0.1400 
     96 CB         -7.2002  -22.6091  -52.7556 C.3       17 UNK        -0.1800 
     97 C          -6.6490  -20.6008  -51.3078 C.2       17 UNK         0.5000 
     98 O          -6.7622  -19.7534  -52.1938 O.2       17 UNK        -0.5000 
     99 N          -5.8205  -20.4728  -50.2597 N.am      18 UNK        -0.5000 
    100 CA        -4.9453  -19.3415  -49.9315 C.3       18 UNK         0.1400 
    101 CB        -5.7506  -18.0398  -49.7360 C.3       18 UNK        -0.1800 
    102 C         -3.7627  -19.1561  -50.9041 C.2       18 UNK         0.5000 
    103 O         -3.1215  -18.1075  -50.8702 O.2       18 UNK        -0.5000 
    104 N         -3.4789  -20.1773  -51.7280 N.am      19 UNK        -0.5000 
    105 CA        -2.4395  -20.2159  -52.7618 C.3       19 UNK         0.1400 
    106 CB        -1.0367  -20.2246  -52.1294 C.3       19 UNK        -0.1800 
    107 C         -2.6178  -19.0981  -53.8077 C.2       19 UNK         0.5000 
    108 O         -1.7188  -18.2820  -54.0192 O.2       19 UNK        -0.5000 
    109 N         -3.7912  -19.0898  -54.4550 N.am      20 UNK        -0.5000 
    110 CA        -4.2073  -18.1149  -55.4712 C.3       20 UNK         0.1400 
    111 CB        -5.6446  -18.4405  -55.9048 C.3       20 UNK        -0.1800 
    112 C         -3.2794  -18.0103  -56.7017 C.2       20 UNK         0.5000 
    113 O         -3.2856  -16.9786  -57.3738 O.2       20 UNK        -0.5000 
    114 N         -2.4893  -19.0610  -56.9651 N.am      21 UNK        -0.5000 
    115 CA        -1.4377  -19.0834  -57.9834 C.3       21 UNK         0.1400 
    116 CB        -0.9752  -20.5338  -58.1909 C.3       21 UNK        -0.1800 
    117 C         -0.2356  -18.1797  -57.6364 C.2       21 UNK         0.5000 
    118 O          0.4053  -17.6583  -58.5503 O.2       21 UNK        -0.5000 
    119 N          0.0429  -18.0089  -56.3380 N.am      22 UNK        -0.5000 
    120 CA         1.0726  -17.1033  -55.8076 C.3       22 UNK         0.1400 
    121 C          0.4641  -15.7452  -55.3674 C.2       22 UNK         0.5000 
    122 N         -0.7035  -15.7288  -54.7363 N.am      22 UNK        -0.7600 
    123 O          1.0546  -14.6955  -55.6062 O.2       22 UNK        -0.5000 
    124 C124        1.8502  -17.7395  -54.6298 C.3       23 UNK        -0.0398 
    125 S125        2.8241  -19.2042  -55.1214 S.3       23 UNK        -0.2404 
    126 C126        3.9731  -19.3565  -53.7124 C.3       23 UNK        -0.0205 
    127 H127       -3.6737  -14.9518  -53.7652 H         1 UNK         0.0600 
    128 H128       -3.9507  -16.3293  -52.6970 H         1 UNK         0.0600 
    129 H129       -5.0375  -14.9403  -52.6407 H         1 UNK         0.0600 
    130 H130       -2.6243  -16.3805  -50.9152 H         1 UNK         0.3000 
    131 H131       -1.0116  -14.1144  -50.0991 H         1 UNK         0.0600 
    132 H132       -1.3304  -16.8804  -48.8126 H         1 UNK         0.0800 
    133 H133       -0.1080  -15.6995  -48.3914 H         1 UNK         0.0800 
    134 H134        1.0755  -18.1152  -48.6784 H         1 UNK         0.0800 
    135 H135        2.3800  -17.1096  -49.2661 H         1 UNK         0.0800 
    136 H136        3.1162  -17.6066  -51.8049 H         1 UNK         0.1150 
    137 H137        3.1388  -21.7804  -52.7898 H         1 UNK         0.1150 
    138 H138        1.0667  -20.4039  -49.3062 H         1 UNK         0.1150 
    139 H139        0.5939  -22.6449  -50.2911 H         1 UNK         0.0800 
    140 H140        1.4655  -23.1859  -51.6842 H         1 UNK         0.0800 
    141 H141        2.5004  -21.8157  -48.1390 H         1 UNK         0.0800 
    142 H142        3.5652  -23.0534  -47.5836 H         1 UNK         0.0800 
    143 H143        1.5785  -24.5755  -47.1402 H         1 UNK         0.0600 
    144 H144        2.6540  -22.6856  -45.5421 H         1 UNK         0.3000 
    145 H145        0.6311  -22.4856  -42.7184 H         1 UNK         0.0600 
    146 H146        2.5391  -23.5592  -41.5376 H         1 UNK         0.0600 
    147 H147        1.5394  -24.7489  -42.3581 H         1 UNK         0.0600 
    148 H148        3.0868  -24.2865  -43.0485 H         1 UNK         0.0600 
    149 H149        1.8824  -20.7406  -43.0485 H         1 UNK         0.3000 
    150 H150        5.2047  -20.0543  -43.7210 H         1 UNK         0.0600 
    151 H151        4.4395  -19.9471  -46.0848 H         1 UNK         0.0600 
    152 H152        4.3704  -18.3516  -45.3526 H         1 UNK         0.0600 
    153 H153        2.8904  -19.2810  -45.5820 H         1 UNK         0.0600 
    154 H154        2.8572  -18.4243  -43.2629 H         1 UNK         0.3000 
    155 H155        3.1183  -18.5488  -39.6721 H         1 UNK         0.0600 
    156 H156        3.4316  -16.3564  -41.7885 H         1 UNK         0.0600 
    157 H157        4.6270  -16.7630  -40.5627 H         1 UNK         0.0600 
    158 H158        3.0663  -16.1155  -40.0816 H         1 UNK         0.0600 
    159 H159        1.1862  -17.3133  -41.3482 H         1 UNK         0.3000 
    160 H160       -1.2073  -19.9995  -41.2711 H         1 UNK         0.0600 
    161 H161       -2.5502  -18.1464  -40.3350 H         1 UNK         0.0600 
    162 H162       -1.0947  -17.2121  -39.9997 H         1 UNK         0.0600 
    163 H163       -1.4005  -18.7137  -39.1329 H         1 UNK         0.0600 
    164 H164       -1.2484  -17.3880  -42.4521 H         1 UNK         0.3000 
    165 H165       -0.0174  -18.3955  -45.6532 H         1 UNK         0.0600 
    166 H166       -2.1632  -17.3487  -46.3417 H         1 UNK         0.0600 
    167 H167       -2.5021  -18.9022  -45.5863 H         1 UNK         0.0600 
    168 H168       -2.7657  -17.4175  -44.6893 H         1 UNK         0.0600 
    169 H169       -0.8467  -15.8597  -44.7753 H         1 UNK         0.3000 
    170 H170        2.2582  -14.7329  -43.3998 H         1 UNK         0.0600 
    171 H171        2.3687  -14.4278  -45.8658 H         1 UNK         0.0600 
    172 H172        0.6544  -14.0453  -45.9244 H         1 UNK         0.0600 
    173 H173        1.7727  -12.9702  -45.0873 H         1 UNK         0.0600 
    174 H174       -0.3621  -13.5743  -43.6963 H         1 UNK         0.3000 
    175 H175       -1.5539  -14.4047  -40.4372 H         1 UNK         0.0600 
    176 H176       -1.7616  -11.9381  -40.3493 H         1 UNK         0.0600 
    177 H177       -0.0797  -12.4063  -40.1578 H         1 UNK         0.0600 
    178 H178       -0.6379  -11.7621  -41.6972 H         1 UNK         0.0600 
    179 H179       -2.6594  -12.8828  -42.6031 H         1 UNK         0.3000 
    180 H180       -4.3737  -15.5968  -44.1708 H         1 UNK         0.0600 
    181 H181       -5.3743  -13.2159  -42.5239 H         1 UNK         0.0600 
    182 H182       -5.7640  -14.9024  -42.2074 H         1 UNK         0.0600 
    183 H183       -6.3090  -14.1463  -43.6953 H         1 UNK         0.0600 
    184 H184       -4.5184  -12.9417  -44.9059 H         1 UNK         0.3000 
    185 H185       -3.6956  -12.4500  -46.9992 H         1 UNK         0.0600 
    186 H186       -2.3528  -11.0578  -45.4021 H         1 UNK         0.0600 
    187 H187       -0.8674  -11.8033  -45.9794 H         1 UNK         0.0600 
    188 H188       -1.8291  -10.7904  -47.0563 H         1 UNK         0.0600 
    189 H189       -1.1214  -13.0010  -48.1134 H         1 UNK         0.3000 
    190 H190        0.3664  -21.1793  -47.1177 H         1 UNK         0.3000 
    191 H191       -1.7427  -21.7473  -49.0093 H         1 UNK         0.0600 
    192 H192       -0.7825  -19.3367  -47.4920 H         1 UNK         0.0600 
    193 H193       -2.4204  -19.2988  -48.1111 H         1 UNK         0.0600 
    194 H194       -1.0813  -19.5448  -49.2052 H         1 UNK         0.0600 
    195 H195       -1.5673  -21.7390  -45.4878 H         1 UNK         0.3000 
    196 H196       -4.4202  -21.8055  -45.0180 H         1 UNK         0.0600 
    197 H197       -3.7223  -22.4764  -42.7110 H         1 UNK         0.0600 
    198 H198       -2.8682  -21.0433  -43.2597 H         1 UNK         0.0600 
    199 H199       -2.0508  -22.6035  -43.2437 H         1 UNK         0.0600 
    200 H200       -1.8233  -24.2799  -45.2671 H         1 UNK         0.3000 
    201 H201       -3.4826  -26.5667  -44.9178 H         1 UNK         0.0600 
    202 H202       -1.0245  -26.6134  -44.6135 H         1 UNK         0.0600 
    203 H203       -0.7741  -26.2533  -46.3199 H         1 UNK         0.0600 
    204 H204       -1.4988  -27.7831  -45.8366 H         1 UNK         0.0600 
    205 H205       -2.4855  -24.7700  -47.8505 H         1 UNK         0.3000 
    206 H206       -3.7064  -26.4917  -49.7625 H         1 UNK         0.0600 
    207 H207       -1.9534  -24.8093  -50.3254 H         1 UNK         0.0600 
    208 H208       -3.3932  -24.5532  -51.2967 H         1 UNK         0.0600 
    209 H209       -3.0647  -23.4979  -49.9297 H         1 UNK         0.0600 
    210 H210       -5.0689  -24.0933  -47.6621 H         1 UNK         0.3000 
    211 H211       -7.0557  -23.3935  -47.1157 H         1 UNK         0.0600 
    212 H212       -8.2487  -25.5650  -48.9171 H         1 UNK         0.0600 
    213 H213       -9.0903  -24.6836  -47.6520 H         1 UNK         0.0600 
    214 H214       -7.7764  -25.7713  -47.2304 H         1 UNK         0.0600 
    215 H215       -6.6162  -23.6736  -50.5819 H         1 UNK         0.3000 
    216 H216       -8.5191  -21.6378  -51.3656 H         1 UNK         0.0600 
    217 H217       -7.4492  -21.9590  -53.5953 H         1 UNK         0.0600 
    218 H218       -7.8067  -23.5095  -52.8558 H         1 UNK         0.0600 
    219 H219       -6.1536  -22.8977  -52.8609 H         1 UNK         0.0600 
    220 H220       -5.7901  -21.2394  -49.6017 H         1 UNK         0.3000 
    221 H221       -4.5069  -19.5894  -48.9664 H         1 UNK         0.0600 
    222 H222       -6.1484  -17.6615  -50.6780 H         1 UNK         0.0600 
    223 H223       -6.5861  -18.1903  -49.0524 H         1 UNK         0.0600 
    224 H224       -5.1244  -17.2534  -49.3120 H         1 UNK         0.0600 
    225 H225       -4.0745  -20.9896  -51.6719 H         1 UNK         0.3000 
    226 H226       -2.5625  -21.1611  -53.2923 H         1 UNK         0.0600 
    227 H227       -0.9395  -21.0319  -51.4052 H         1 UNK         0.0600 
    228 H228       -0.2650  -20.3687  -52.8867 H         1 UNK         0.0600 
    229 H229       -0.8156  -19.2868  -51.6204 H         1 UNK         0.0600 
    230 H230       -4.4849  -19.7755  -54.1936 H         1 UNK         0.3000 
    231 H231       -4.2117  -17.1328  -54.9970 H         1 UNK         0.0600 
    232 H232       -6.3278  -18.4168  -55.0551 H         1 UNK         0.0600 
    233 H233       -5.7116  -19.4280  -56.3629 H         1 UNK         0.0600 
    234 H234       -6.0088  -17.7145  -56.6330 H         1 UNK         0.0600 
    235 H235       -2.5649  -19.8738  -56.3724 H         1 UNK         0.3000 
    236 H236       -1.8640  -18.7229  -58.9220 H         1 UNK         0.0600 
    237 H237       -0.2095  -20.5917  -58.9657 H         1 UNK         0.0600 
    238 H238       -0.5507  -20.9553  -57.2787 H         1 UNK         0.0600 
    239 H239       -1.8019  -21.1715  -58.5043 H         1 UNK         0.0600 
    240 H240       -0.5744  -18.4152  -55.6448 H         1 UNK         0.3000 
    241 H241        1.7997  -16.8820  -56.5915 H         1 UNK         0.0600 
    242 H242       -1.0974  -14.8480  -54.4512 H         1 UNK         0.3800 
    243 H243       -1.1560  -16.6015  -54.4731 H         1 UNK         0.3800 
    244 H244        2.5373  -17.0103  -54.1967 H         1 UNK         0.0800 
    245 H245        1.1622  -18.0276  -53.8321 H         1 UNK         0.0800 
    246 H246        4.6900  -20.1516  -53.9222 H         1 UNK         0.0800 
    247 H247        4.5549  -18.4390  -53.6108 H         1 UNK         0.0800 
@<TRIPOS>BOND
     1    1    2 1    
     2    1  127 1    
     3    1  128 1    
     4    1  129 1    
     5    2    3 2    
     6    2    4 am   BACKBONE|DICT|INTERRES
     7    4    5 1    
     8    4  130 1    
     9    5    6 1    
    10    5   65 1    
    11    5  131 1    
    12    6    7 1    
    13    6  132 1    
    14    6  133 1    
    15    7    8 1    
    16    8    9 1    
    17    8  134 1    
    18    8  135 1    
    19    9   10 ar   
    20    9   14 ar   
    21   10   11 ar   
    22   10  136 1    
    23   11   12 ar   
    24   11  126 1    
    25   12   13 ar   
    26   12  137 1    
    27   13   14 ar   
    28   13   15 1    
    29   14  138 1    
    30   15   16 1    
    31   15  139 1    
    32   15  140 1    
    33   16   17 1    
    34   17   18 1    
    35   17  141 1    
    36   17  142 1    
    37   18   19 1    
    38   18   67 1    
    39   18  143 1    
    40   19   20 am   BACKBONE|DICT|INTERRES
    41   19  144 1    
    42   20   21 2    
    43   20   22 1    
    44   22   23 1    
    45   22   24 1    
    46   22  145 1    
    47   23  146 1    
    48   23  147 1    
    49   23  148 1    
    50   24   25 am   BACKBONE|DICT|INTERRES
    51   24  149 1    
    52   25   26 2    
    53   25   27 1    
    54   27   28 1    
    55   27   29 1    
    56   27  150 1    
    57   28  151 1    
    58   28  152 1    
    59   28  153 1    
    60   29   30 am   BACKBONE|DICT|INTERRES
    61   29  154 1    
    62   30   31 2    
    63   30   32 1    
    64   32   33 1    
    65   32   34 1    
    66   32  155 1    
    67   33  156 1    
    68   33  157 1    
    69   33  158 1    
    70   34   35 am   BACKBONE|DICT|INTERRES
    71   34  159 1    
    72   35   36 2    
    73   35   37 1    
    74   37   38 1    
    75   37   39 1    
    76   37  160 1    
    77   38  161 1    
    78   38  162 1    
    79   38  163 1    
    80   39   40 am   BACKBONE|DICT|INTERRES
    81   39  164 1    
    82   40   41 2    
    83   40   42 1    
    84   42   43 1    
    85   42   44 1    
    86   42  165 1    
    87   43  166 1    
    88   43  167 1    
    89   43  168 1    
    90   44   45 am   BACKBONE|DICT|INTERRES
    91   44  169 1    
    92   45   46 2    
    93   45   47 1    
    94   47   48 1    
    95   47   49 1    
    96   47  170 1    
    97   48  171 1    
    98   48  172 1    
    99   48  173 1    
   100   49   50 am   BACKBONE|DICT|INTERRES
   101   49  174 1    
   102   50   51 2    
   103   50   52 1    
   104   52   53 1    
   105   52   54 1    
   106   52  175 1    
   107   53  176 1    
   108   53  177 1    
   109   53  178 1    
   110   54   55 am   BACKBONE|DICT|INTERRES
   111   54  179 1    
   112   55   56 2    
   113   55   57 1    
   114   57   58 1    
   115   57   59 1    
   116   57  180 1    
   117   58  181 1    
   118   58  182 1    
   119   58  183 1    
   120   59   60 am   BACKBONE|DICT|INTERRES
   121   59  184 1    
   122   60   61 2    
   123   60   62 1    
   124   62   63 1    
   125   62   64 1    
   126   62  185 1    
   127   63  186 1    
   128   63  187 1    
   129   63  188 1    
   130   64   65 am   BACKBONE|DICT|INTERRES
   131   64  189 1    
   132   65   66 2    
   133   67   68 2    
   134   67   69 am   BACKBONE|DICT|INTERRES
   135   69   70 1    
   136   69  190 1    
   137   70   71 1    
   138   70   72 1    
   139   70  191 1    
   140   71  192 1    
   141   71  193 1    
   142   71  194 1    
   143   72   73 2    
   144   72   74 am   BACKBONE|DICT|INTERRES
   145   74   75 1    
   146   74  195 1    
   147   75   76 1    
   148   75   77 1    
   149   75  196 1    
   150   76  197 1    
   151   76  198 1    
   152   76  199 1    
   153   77   78 2    
   154   77   79 am   BACKBONE|DICT|INTERRES
   155   79   80 1    
   156   79  200 1    
   157   80   81 1    
   158   80   82 1    
   159   80  201 1    
   160   81  202 1    
   161   81  203 1    
   162   81  204 1    
   163   82   83 2    
   164   82   84 am   BACKBONE|DICT|INTERRES
   165   84   85 1    
   166   84  205 1    
   167   85   86 1    
   168   85   87 1    
   169   85  206 1    
   170   86  207 1    
   171   86  208 1    
   172   86  209 1    
   173   87   88 2    
   174   87   89 am   BACKBONE|DICT|INTERRES
   175   89   90 1    
   176   89  210 1    
   177   90   91 1    
   178   90   92 1    
   179   90  211 1    
   180   91  212 1    
   181   91  213 1    
   182   91  214 1    
   183   92   93 2    
   184   92   94 am   BACKBONE|DICT|INTERRES
   185   94   95 1    
   186   94  215 1    
   187   95   96 1    
   188   95   97 1    
   189   95  216 1    
   190   96  217 1    
   191   96  218 1    
   192   96  219 1    
   193   97   98 2    
   194   97   99 am   BACKBONE|DICT|INTERRES
   195   99  100 1    
   196   99  220 1    
   197  100  101 1    
   198  100  102 1    
   199  100  221 1    
   200  101  222 1    
   201  101  223 1    
   202  101  224 1    
   203  102  103 2    
   204  102  104 am   BACKBONE|DICT|INTERRES
   205  104  105 1    
   206  104  225 1    
   207  105  106 1    
   208  105  107 1    
   209  105  226 1    
   210  106  227 1    
   211  106  228 1    
   212  106  229 1    
   213  107  108 2    
   214  107  109 am   BACKBONE|DICT|INTERRES
   215  109  110 1    
   216  109  230 1    
   217  110  111 1    
   218  110  112 1    
   219  110  231 1    
   220  111  232 1    
   221  111  233 1    
   222  111  234 1    
   223  112  113 2    
   224  112  114 am   BACKBONE|DICT|INTERRES
   225  114  115 1    
   226  114  235 1    
   227  115  116 1    
   228  115  117 1    
   229  115  236 1    
   230  116  237 1    
   231  116  238 1    
   232  116  239 1    
   233  117  118 2    
   234  117  119 am   BACKBONE|DICT|INTERRES
   235  119  120 1    
   236  119  240 1    
   237  120  121 1    
   238  120  124 1    
   239  120  241 1    
   240  121  122 am   BACKBONE|DICT|INTERRES
   241  121  123 2    
   242  122  242 1    
   243  122  243 1    
   244  124  125 1    
   245  124  244 1    
   246  124  245 1    
   247  125  126 1    
   248  126  246 1    
   249  126  247 1    
@<TRIPOS>SUBSTRUCTURE
     1 UNK         1 GROUP             0       ****    0 ROOT    
