@<TRIPOS>MOLECULE
3R540
247   249    1
SMALL
USER_CHARGES


@<TRIPOS>ATOM
      1 CA         -5.3756  -16.8777  -48.9832 C.3       0 UNK        -0.1800 
      2 C          -4.4214  -15.6945  -48.8926 C.2       0 UNK         0.5000 
      3 O          -4.8609  -14.5477  -48.9828 O.2       0 UNK        -0.5000 
      4 N          -3.1197  -15.9668  -48.7361 N.am      1 UNK        -0.5000 
      5 CA         -2.0670  -14.9493  -48.6126 C.3       1 UNK         0.1400 
      6 C6         -0.6726  -15.5361  -48.9451 C.3       23 UNK        -0.0398 
      7 S7          0.5035  -14.2681  -49.5354 S.3       23 UNK        -0.2404 
      8 C8          2.0725  -15.1968  -49.5915 C.3       23 UNK        -0.0205 
      9 C9          1.9586  -16.4477  -50.4502 C.ar      23 UNK        -0.0193 
     10 C10         1.8496  -16.3452  -51.8377 C.ar      23 UNK        -0.1150 
     11 C11         1.6605  -17.4876  -52.6188 C.ar      23 UNK        -0.0193 
     12 C12         1.5760  -18.7391  -52.0000 C.ar      23 UNK        -0.1150 
     13 C13         1.6973  -18.8636  -50.6112 C.ar      23 UNK        -0.0193 
     14 C14         1.9183  -17.7070  -49.8493 C.ar      23 UNK        -0.1150 
     15 C15         1.5563  -20.2602  -49.9924 C.3       23 UNK        -0.0205 
     16 S16         1.5524  -20.3499  -48.1641 S.3       23 UNK        -0.2404 
     17 C17         0.0777  -19.3654  -47.7371 C.3       23 UNK        -0.0398 
     18 CA         -1.0879  -20.1926  -47.1582 C.3       11 UNK         0.1400 
     19 N          -0.7315  -20.8927  -45.9245 N.am      11 UNK        -0.5000 
     20 C          -1.3408  -21.9858  -45.4517 C.2       10 UNK         0.5000 
     21 O          -2.2096  -22.5980  -46.0784 O.2       10 UNK        -0.5000 
     22 CA         -0.9404  -22.4283  -44.0271 C.3       10 UNK         0.1400 
     23 CB         -1.1450  -23.9381  -43.7883 C.3       10 UNK        -0.1800 
     24 N           0.4052  -21.9767  -43.6421 N.am      10 UNK        -0.5000 
     25 C           1.5841  -22.4182  -44.1075 C.2       9 UNK         0.5000 
     26 O           1.7106  -23.3853  -44.8557 O.2       9 UNK        -0.5000 
     27 CA          2.8475  -21.6370  -43.6946 C.3       9 UNK         0.1400 
     28 CB          3.3352  -20.7731  -44.8676 C.3       9 UNK        -0.1800 
     29 N           2.6662  -20.7810  -42.5200 N.am      9 UNK        -0.5000 
     30 C           2.5955  -21.2267  -41.2580 C.2       8 UNK         0.5000 
     31 O           2.6792  -22.4152  -40.9467 O.2       8 UNK        -0.5000 
     32 CA          2.3766  -20.1679  -40.1599 C.3       8 UNK         0.1400 
     33 CB          3.7067  -19.5077  -39.7662 C.3       8 UNK        -0.1800 
     34 N           1.4206  -19.1319  -40.5518 N.am      8 UNK        -0.5000 
     35 C           0.1166  -19.3424  -40.7794 C.2       7 UNK         0.5000 
     36 O          -0.4379  -20.4330  -40.6444 O.2       7 UNK        -0.5000 
     37 CA         -0.6913  -18.1443  -41.3067 C.3       7 UNK         0.1400 
     38 CB         -1.0977  -17.1933  -40.1717 C.3       7 UNK        -0.1800 
     39 N           0.0367  -17.4093  -42.3418 N.am      7 UNK        -0.5000 
     40 C           0.3223  -17.9101  -43.5508 C.2       6 UNK         0.5000 
     41 O          -0.0771  -19.0047  -43.9468 O.2       6 UNK        -0.5000 
     42 CA          1.2072  -17.0635  -44.4754 C.3       6 UNK         0.1400 
     43 CB          0.3391  -16.1390  -45.3313 C.3       6 UNK        -0.1800 
     44 N           2.1944  -16.2786  -43.7397 N.am      6 UNK        -0.5000 
     45 C           3.2679  -16.8071  -43.1353 C.2       5 UNK         0.5000 
     46 O           3.5451  -18.0056  -43.1634 O.2       5 UNK        -0.5000 
     47 CA          4.1419  -15.8434  -42.3127 C.3       5 UNK         0.1400 
     48 CB          5.1174  -15.0822  -43.2226 C.3       5 UNK        -0.1800 
     49 N           3.3439  -14.8861  -41.5459 N.am      5 UNK        -0.5000 
     50 C           2.4824  -15.2228  -40.5759 C.2       4 UNK         0.5000 
     51 O           2.3188  -16.3772  -40.1816 O.2       4 UNK        -0.5000 
     52 CA          1.6277  -14.0913  -39.9761 C.3       4 UNK         0.1400 
     53 CB          2.2841  -13.5437  -38.7003 C.3       4 UNK        -0.1800 
     54 N           1.3726  -12.9824  -40.9013 N.am      4 UNK        -0.5000 
     55 C           0.6834  -13.0708  -42.0480 C.2       3 UNK         0.5000 
     56 O           0.2165  -14.1272  -42.4791 O.2       3 UNK        -0.5000 
     57 CA          0.4970  -11.7435  -42.8087 C.3       3 UNK         0.1400 
     58 CB          1.8421  -11.1817  -43.3179 C.3       3 UNK        -0.1800 
     59 N          -0.5115  -11.8020  -43.8758 N.am      3 UNK        -0.5000 
     60 C          -0.4180  -12.3400  -45.1012 C.2       2 UNK         0.5000 
     61 O           0.5886  -12.8903  -45.5526 O.2       2 UNK        -0.5000 
     62 CA         -1.6627  -12.1483  -45.9908 C.3       2 UNK         0.1400 
     63 CB         -1.7661  -10.6861  -46.4583 C.3       2 UNK        -0.1800 
     64 N          -1.6484  -13.0011  -47.1793 N.am      2 UNK        -0.5000 
     65 C          -2.1111  -14.2547  -47.2297 C.2       1 UNK         0.5000 
     66 O          -2.5724  -14.8481  -46.2528 O.2       1 UNK        -0.5000 
     67 C          -2.2956  -19.2638  -46.9292 C.2       11 UNK         0.5000 
     68 O          -3.0348  -19.0088  -47.8770 O.2       11 UNK        -0.5000 
     69 N          -2.4952  -18.7826  -45.6917 N.am      12 UNK        -0.5000 
     70 CA         -3.6441  -17.9516  -45.3070 C.3       12 UNK         0.1400 
     71 CB         -3.3810  -17.3043  -43.9409 C.3       12 UNK        -0.1800 
     72 C          -4.9632  -18.7457  -45.2801 C.2       12 UNK         0.5000 
     73 O          -6.0256  -18.1818  -45.5382 O.2       12 UNK        -0.5000 
     74 N          -4.8581  -20.0532  -45.0087 N.am      13 UNK        -0.5000 
     75 CA         -5.9434  -21.0282  -45.1247 C.3       13 UNK         0.1400 
     76 CB         -5.6168  -22.2193  -44.2079 C.3       13 UNK        -0.1800 
     77 C          -6.1476  -21.5135  -46.5759 C.2       13 UNK         0.5000 
     78 O          -7.1023  -22.2453  -46.8360 O.2       13 UNK        -0.5000 
     79 N          -5.2217  -21.1408  -47.4749 N.am      14 UNK        -0.5000 
     80 CA         -5.0799  -21.5608  -48.8729 C.3       14 UNK         0.1400 
     81 CB         -6.2976  -21.1319  -49.7144 C.3       14 UNK        -0.1800 
     82 C          -4.7405  -23.0562  -49.0479 C.2       14 UNK         0.5000 
     83 O          -4.7686  -23.5513  -50.1746 O.2       14 UNK        -0.5000 
     84 N          -4.3874  -23.7453  -47.9540 N.am      15 UNK        -0.5000 
     85 CA         -4.0545  -25.1676  -47.9274 C.3       15 UNK         0.1400 
     86 CB         -4.0603  -25.6677  -46.4748 C.3       15 UNK        -0.1800 
     87 C          -2.7040  -25.4406  -48.6033 C.2       15 UNK         0.5000 
     88 O          -2.6186  -26.3087  -49.4716 O.2       15 UNK        -0.5000 
     89 N          -1.6886  -24.6426  -48.2461 N.am      16 UNK        -0.5000 
     90 CA         -0.3558  -24.6906  -48.8554 C.3       16 UNK         0.1400 
     91 CB          0.6382  -23.9653  -47.9451 C.3       16 UNK        -0.1800 
     92 C          -0.3221  -24.1132  -50.2842 C.2       16 UNK         0.5000 
     93 O           0.5823  -24.4424  -51.0513 O.2       16 UNK        -0.5000 
     94 N          -1.3276  -23.2964  -50.6265 N.am      17 UNK        -0.5000 
     95 CA         -1.5830  -22.8007  -51.9798 C.3       17 UNK         0.1400 
     96 CB         -2.3212  -21.4552  -51.8805 C.3       17 UNK        -0.1800 
     97 C          -2.3842  -23.8054  -52.8384 C.2       17 UNK         0.5000 
     98 O          -2.6209  -23.5285  -54.0138 O.2       17 UNK        -0.5000 
     99 N          -2.8142  -24.9323  -52.2444 N.am      18 UNK        -0.5000 
    100 CA        -3.6154  -26.0105  -52.8382 C.3       18 UNK         0.1400 
    101 CB        -2.7873  -26.7784  -53.8891 C.3       18 UNK        -0.1800 
    102 C         -4.9801  -25.5332  -53.3824 C.2       18 UNK         0.5000 
    103 O         -5.4763  -26.0806  -54.3685 O.2       18 UNK        -0.5000 
    104 N         -5.5443  -24.4999  -52.7383 N.am      19 UNK        -0.5000 
    105 CA        -6.7669  -23.7712  -53.0939 C.3       19 UNK         0.1400 
    106 CB        -8.0040  -24.6814  -52.9502 C.3       19 UNK        -0.1800 
    107 C         -6.7125  -23.0568  -54.4653 C.2       19 UNK         0.5000 
    108 O         -7.7607  -22.6674  -54.9837 O.2       19 UNK        -0.5000 
    109 N         -5.5095  -22.8819  -55.0272 N.am      20 UNK        -0.5000 
    110 CA        -5.2641  -22.2159  -56.3029 C.3       20 UNK         0.1400 
    111 CB        -4.2541  -23.0546  -57.1032 C.3       20 UNK        -0.1800 
    112 C         -4.7214  -20.7963  -56.0731 C.2       20 UNK         0.5000 
    113 O         -4.2168  -20.4858  -54.9908 O.2       20 UNK        -0.5000 
    114 N         -4.8188  -19.9622  -57.1139 N.am      21 UNK        -0.5000 
    115 CA        -4.2096  -18.6343  -57.1671 C.3       21 UNK         0.1400 
    116 CB        -4.9217  -17.8094  -58.2513 C.3       21 UNK        -0.1800 
    117 C         -2.7003  -18.7275  -57.4632 C.2       21 UNK         0.5000 
    118 O         -2.2422  -19.7176  -58.0403 O.2       21 UNK        -0.5000 
    119 N         -1.9623  -17.6753  -57.0938 N.am      22 UNK        -0.5000 
    120 CA        -0.5101  -17.5500  -57.3166 C.3       22 UNK         0.1400 
    121 C         -0.0931  -17.2967  -58.7973 C.2       22 UNK         0.5000 
    122 N         -1.0061  -16.9755  -59.7060 N.am      22 UNK        -0.7600 
    123 O          1.0849  -17.3987  -59.1286 O.2       22 UNK        -0.5000 
    124 C124        0.1195  -16.4796  -56.3892 C.3       23 UNK        -0.0398 
    125 S125       -0.1314  -16.8309  -54.6147 S.3       23 UNK        -0.2404 
    126 C126        1.5409  -17.3571  -54.1282 C.3       23 UNK        -0.0205 
    127 H127       -6.1567  -16.6789  -49.7169 H         1 UNK         0.0600 
    128 H128       -5.8508  -17.0525  -48.0187 H         1 UNK         0.0600 
    129 H129       -4.8612  -17.7894  -49.2857 H         1 UNK         0.0600 
    130 H130       -2.8390  -16.9317  -48.6147 H         1 UNK         0.3000 
    131 H131       -2.2902  -14.1878  -49.3638 H         1 UNK         0.0600 
    132 H132       -0.7698  -16.2674  -49.7492 H         1 UNK         0.0800 
    133 H133       -0.2481  -16.0767  -48.1011 H         1 UNK         0.0800 
    134 H134        2.3746  -15.4481  -48.5735 H         1 UNK         0.0800 
    135 H135        2.8547  -14.5512  -49.9932 H         1 UNK         0.0800 
    136 H136        1.8843  -15.3721  -52.3076 H         1 UNK         0.1150 
    137 H137        1.4090  -19.6211  -52.6027 H         1 UNK         0.1150 
    138 H138        2.0273  -17.7648  -48.7775 H         1 UNK         0.1150 
    139 H139        0.6370  -20.7205  -50.3573 H         1 UNK         0.0800 
    140 H140        2.3749  -20.8820  -50.3571 H         1 UNK         0.0800 
    141 H141       -0.2621  -18.8314  -48.6259 H         1 UNK         0.0800 
    142 H142        0.3946  -18.6023  -47.0272 H         1 UNK         0.0800 
    143 H143       -1.3817  -20.9303  -47.9084 H         1 UNK         0.0600 
    144 H144       -0.0799  -20.4173  -45.3100 H         1 UNK         0.3000 
    145 H145       -1.6212  -21.9033  -43.3557 H         1 UNK         0.0600 
    146 H146       -0.8039  -24.2314  -42.7956 H         1 UNK         0.0600 
    147 H147       -2.2010  -24.2006  -43.8581 H         1 UNK         0.0600 
    148 H148       -0.6127  -24.5439  -44.5220 H         1 UNK         0.0600 
    149 H149        0.4269  -21.1633  -43.0406 H         1 UNK         0.3000 
    150 H150        3.6247  -22.3703  -43.4694 H         1 UNK         0.0600 
    151 H151        3.5099  -21.3797  -45.7572 H         1 UNK         0.0600 
    152 H152        4.2736  -20.2731  -44.6277 H         1 UNK         0.0600 
    153 H153        2.6047  -20.0085  -45.1323 H         1 UNK         0.0600 
    154 H154        2.6704  -19.7796  -42.6846 H         1 UNK         0.3000 
    155 H155        1.9768  -20.6779  -39.2810 H         1 UNK         0.0600 
    156 H156        4.1447  -18.9556  -40.5984 H         1 UNK         0.0600 
    157 H157        4.4347  -20.2543  -39.4464 H         1 UNK         0.0600 
    158 H158        3.5703  -18.8103  -38.9394 H         1 UNK         0.0600 
    159 H159        1.7834  -18.1865  -40.6372 H         1 UNK         0.3000 
    160 H160       -1.6038  -18.5413  -41.7520 H         1 UNK         0.0600 
    161 H161       -1.6630  -16.3425  -40.5528 H         1 UNK         0.0600 
    162 H162       -0.2329  -16.8088  -39.6325 H         1 UNK         0.0600 
    163 H163       -1.7299  -17.7063  -39.4461 H         1 UNK         0.0600 
    164 H164        0.3688  -16.4828  -42.1095 H         1 UNK         0.3000 
    165 H165        1.7387  -17.7434  -45.1436 H         1 UNK         0.0600 
    166 H166       -0.1920  -15.4083  -44.7223 H         1 UNK         0.0600 
    167 H167        0.9399  -15.5957  -46.0605 H         1 UNK         0.0600 
    168 H168       -0.4182  -16.7030  -45.8743 H         1 UNK         0.0600 
    169 H169        1.9942  -15.2943  -43.6245 H         1 UNK         0.3000 
    170 H170        4.7237  -16.4406  -41.6073 H         1 UNK         0.0600 
    171 H171        5.7342  -15.7741  -43.7976 H         1 UNK         0.0600 
    172 H172        4.5921  -14.4421  -43.9327 H         1 UNK         0.0600 
    173 H173        5.7919  -14.4547  -42.6398 H         1 UNK         0.0600 
    174 H174        3.4176  -13.9140  -41.8063 H         1 UNK         0.3000 
    175 H175        0.6622  -14.5217  -39.7038 H         1 UNK         0.0600 
    176 H176        1.6458  -12.8069  -38.2124 H         1 UNK         0.0600 
    177 H177        2.4639  -14.3429  -37.9797 H         1 UNK         0.0600 
    178 H178        3.2439  -13.0707  -38.9122 H         1 UNK         0.0600 
    179 H179        1.7211  -12.0790  -40.6143 H         1 UNK         0.3000 
    180 H180        0.0996  -11.0297  -42.0855 H         1 UNK         0.0600 
    181 H181        2.3743  -11.8982  -43.9441 H         1 UNK         0.0600 
    182 H182        2.5029  -10.9282  -42.4885 H         1 UNK         0.0600 
    183 H183        1.6954  -10.2715  -43.8994 H         1 UNK         0.0600 
    184 H184       -1.3999  -11.3935  -43.6220 H         1 UNK         0.3000 
    185 H185       -2.5473  -12.3828  -45.3943 H         1 UNK         0.0600 
    186 H186       -0.8969  -10.3905  -47.0474 H         1 UNK         0.0600 
    187 H187       -2.6546  -10.5301  -47.0706 H         1 UNK         0.0600 
    188 H188       -1.8359  -10.0016  -45.6121 H         1 UNK         0.0600 
    189 H189       -1.2112  -12.6094  -48.0010 H         1 UNK         0.3000 
    190 H190       -1.8174  -18.9962  -44.9681 H         1 UNK         0.3000 
    191 H191       -3.7570  -17.1583  -46.0472 H         1 UNK         0.0600 
    192 H192       -2.4610  -16.7200  -43.9484 H         1 UNK         0.0600 
    193 H193       -3.3096  -18.0518  -43.1521 H         1 UNK         0.0600 
    194 H194       -4.1900  -16.6236  -43.6734 H         1 UNK         0.0600 
    195 H195       -3.9451  -20.4225  -44.7918 H         1 UNK         0.3000 
    196 H196       -6.8780  -20.5746  -44.7882 H         1 UNK         0.0600 
    197 H197       -6.4158  -22.9617  -44.2292 H         1 UNK         0.0600 
    198 H198       -5.5018  -21.8997  -43.1720 H         1 UNK         0.0600 
    199 H199       -4.6959  -22.7211  -44.5087 H         1 UNK         0.0600 
    200 H200       -4.5068  -20.4985  -47.1618 H         1 UNK         0.3000 
    201 H201       -4.2162  -21.0166  -49.2556 H         1 UNK         0.0600 
    202 H202       -6.5318  -20.0786  -49.5598 H         1 UNK         0.0600 
    203 H203       -7.1863  -21.7146  -49.4707 H         1 UNK         0.0600 
    204 H204       -6.1009  -21.2645  -50.7785 H         1 UNK         0.0600 
    205 H205       -4.3082  -23.2477  -47.0786 H         1 UNK         0.3000 
    206 H206       -4.8248  -25.7109  -48.4792 H         1 UNK         0.0600 
    207 H207       -5.0365  -25.5204  -46.0124 H         1 UNK         0.0600 
    208 H208       -3.8356  -26.7340  -46.4286 H         1 UNK         0.0600 
    209 H209       -3.3205  -25.1496  -45.8643 H         1 UNK         0.0600 
    210 H210       -1.8447  -23.9488  -47.5208 H         1 UNK         0.3000 
    211 H211       -0.0455  -25.7354  -48.9238 H         1 UNK         0.0600 
    212 H212        0.3341  -22.9370  -47.7606 H         1 UNK         0.0600 
    213 H213        1.6377  -23.9424  -48.3812 H         1 UNK         0.0600 
    214 H214        0.7139  -24.4712  -46.9836 H         1 UNK         0.0600 
    215 H215       -2.0350  -23.1033  -49.9344 H         1 UNK         0.3000 
    216 H216       -0.6297  -22.6260  -52.4829 H         1 UNK         0.0600 
    217 H217       -2.4146  -20.9920  -52.8636 H         1 UNK         0.0600 
    218 H218       -1.7871  -20.7510  -51.2423 H         1 UNK         0.0600 
    219 H219       -3.3292  -21.5749  -51.4847 H         1 UNK         0.0600 
    220 H220       -2.5938  -25.0663  -51.2659 H         1 UNK         0.3000 
    221 H221       -3.8417  -26.7026  -52.0261 H         1 UNK         0.0600 
    222 H222       -2.5760  -26.1640  -54.7649 H         1 UNK         0.0600 
    223 H223       -1.8356  -27.1104  -53.4743 H         1 UNK         0.0600 
    224 H224       -3.3172  -27.6673  -54.2331 H         1 UNK         0.0600 
    225 H225       -5.0735  -24.1521  -51.9047 H         1 UNK         0.3000 
    226 H226       -6.8611  -22.9776  -52.3523 H         1 UNK         0.0600 
    227 H227       -8.0293  -25.1593  -51.9708 H         1 UNK         0.0600 
    228 H228       -8.0207  -25.4653  -53.7077 H         1 UNK         0.0600 
    229 H229       -8.9267  -24.1093  -53.0529 H         1 UNK         0.0600 
    230 H230       -4.6798  -23.1703  -54.5209 H         1 UNK         0.3000 
    231 H231       -6.1880  -22.1455  -56.8807 H         1 UNK         0.0600 
    232 H232       -4.6156  -24.0727  -57.2497 H         1 UNK         0.0600 
    233 H233       -3.2886  -23.1123  -56.5994 H         1 UNK         0.0600 
    234 H234       -4.0808  -22.6253  -58.0907 H         1 UNK         0.0600 
    235 H235       -5.2071  -20.3066  -57.9798 H         1 UNK         0.3000 
    236 H236       -4.3486  -18.1393  -56.2034 H         1 UNK         0.0600 
    237 H237       -4.5261  -16.7940  -58.2963 H         1 UNK         0.0600 
    238 H238       -4.8009  -18.2533  -59.2405 H         1 UNK         0.0600 
    239 H239       -5.9898  -17.7299  -58.0478 H         1 UNK         0.0600 
    240 H240       -2.4056  -16.8983  -56.6259 H         1 UNK         0.3000 
    241 H241       -0.0613  -18.5090  -57.0498 H         1 UNK         0.0600 
    242 H242       -0.7221  -16.8188  -60.6606 H         1 UNK         0.3800 
    243 H243       -1.9768  -16.8906  -59.4520 H         1 UNK         0.3800 
    244 H244        1.1892  -16.3840  -56.5834 H         1 UNK         0.0800 
    245 H245       -0.3087  -15.4990  -56.6031 H         1 UNK         0.0800 
    246 H246        2.2739  -16.6304  -54.4821 H         1 UNK         0.0800 
    247 H247        1.7799  -18.3030  -54.6169 H         1 UNK         0.0800 
@<TRIPOS>BOND
     1    1    2 1    
     2    1  127 1    
     3    1  128 1    
     4    1  129 1    
     5    2    3 2    
     6    2    4 am   BACKBONE|DICT|INTERRES
     7    4    5 1    
     8    4  130 1    
     9    5    6 1    
    10    5   65 1    
    11    5  131 1    
    12    6    7 1    
    13    6  132 1    
    14    6  133 1    
    15    7    8 1    
    16    8    9 1    
    17    8  134 1    
    18    8  135 1    
    19    9   10 ar   
    20    9   14 ar   
    21   10   11 ar   
    22   10  136 1    
    23   11   12 ar   
    24   11  126 1    
    25   12   13 ar   
    26   12  137 1    
    27   13   14 ar   
    28   13   15 1    
    29   14  138 1    
    30   15   16 1    
    31   15  139 1    
    32   15  140 1    
    33   16   17 1    
    34   17   18 1    
    35   17  141 1    
    36   17  142 1    
    37   18   19 1    
    38   18   67 1    
    39   18  143 1    
    40   19   20 am   BACKBONE|DICT|INTERRES
    41   19  144 1    
    42   20   21 2    
    43   20   22 1    
    44   22   23 1    
    45   22   24 1    
    46   22  145 1    
    47   23  146 1    
    48   23  147 1    
    49   23  148 1    
    50   24   25 am   BACKBONE|DICT|INTERRES
    51   24  149 1    
    52   25   26 2    
    53   25   27 1    
    54   27   28 1    
    55   27   29 1    
    56   27  150 1    
    57   28  151 1    
    58   28  152 1    
    59   28  153 1    
    60   29   30 am   BACKBONE|DICT|INTERRES
    61   29  154 1    
    62   30   31 2    
    63   30   32 1    
    64   32   33 1    
    65   32   34 1    
    66   32  155 1    
    67   33  156 1    
    68   33  157 1    
    69   33  158 1    
    70   34   35 am   BACKBONE|DICT|INTERRES
    71   34  159 1    
    72   35   36 2    
    73   35   37 1    
    74   37   38 1    
    75   37   39 1    
    76   37  160 1    
    77   38  161 1    
    78   38  162 1    
    79   38  163 1    
    80   39   40 am   BACKBONE|DICT|INTERRES
    81   39  164 1    
    82   40   41 2    
    83   40   42 1    
    84   42   43 1    
    85   42   44 1    
    86   42  165 1    
    87   43  166 1    
    88   43  167 1    
    89   43  168 1    
    90   44   45 am   BACKBONE|DICT|INTERRES
    91   44  169 1    
    92   45   46 2    
    93   45   47 1    
    94   47   48 1    
    95   47   49 1    
    96   47  170 1    
    97   48  171 1    
    98   48  172 1    
    99   48  173 1    
   100   49   50 am   BACKBONE|DICT|INTERRES
   101   49  174 1    
   102   50   51 2    
   103   50   52 1    
   104   52   53 1    
   105   52   54 1    
   106   52  175 1    
   107   53  176 1    
   108   53  177 1    
   109   53  178 1    
   110   54   55 am   BACKBONE|DICT|INTERRES
   111   54  179 1    
   112   55   56 2    
   113   55   57 1    
   114   57   58 1    
   115   57   59 1    
   116   57  180 1    
   117   58  181 1    
   118   58  182 1    
   119   58  183 1    
   120   59   60 am   BACKBONE|DICT|INTERRES
   121   59  184 1    
   122   60   61 2    
   123   60   62 1    
   124   62   63 1    
   125   62   64 1    
   126   62  185 1    
   127   63  186 1    
   128   63  187 1    
   129   63  188 1    
   130   64   65 am   BACKBONE|DICT|INTERRES
   131   64  189 1    
   132   65   66 2    
   133   67   68 2    
   134   67   69 am   BACKBONE|DICT|INTERRES
   135   69   70 1    
   136   69  190 1    
   137   70   71 1    
   138   70   72 1    
   139   70  191 1    
   140   71  192 1    
   141   71  193 1    
   142   71  194 1    
   143   72   73 2    
   144   72   74 am   BACKBONE|DICT|INTERRES
   145   74   75 1    
   146   74  195 1    
   147   75   76 1    
   148   75   77 1    
   149   75  196 1    
   150   76  197 1    
   151   76  198 1    
   152   76  199 1    
   153   77   78 2    
   154   77   79 am   BACKBONE|DICT|INTERRES
   155   79   80 1    
   156   79  200 1    
   157   80   81 1    
   158   80   82 1    
   159   80  201 1    
   160   81  202 1    
   161   81  203 1    
   162   81  204 1    
   163   82   83 2    
   164   82   84 am   BACKBONE|DICT|INTERRES
   165   84   85 1    
   166   84  205 1    
   167   85   86 1    
   168   85   87 1    
   169   85  206 1    
   170   86  207 1    
   171   86  208 1    
   172   86  209 1    
   173   87   88 2    
   174   87   89 am   BACKBONE|DICT|INTERRES
   175   89   90 1    
   176   89  210 1    
   177   90   91 1    
   178   90   92 1    
   179   90  211 1    
   180   91  212 1    
   181   91  213 1    
   182   91  214 1    
   183   92   93 2    
   184   92   94 am   BACKBONE|DICT|INTERRES
   185   94   95 1    
   186   94  215 1    
   187   95   96 1    
   188   95   97 1    
   189   95  216 1    
   190   96  217 1    
   191   96  218 1    
   192   96  219 1    
   193   97   98 2    
   194   97   99 am   BACKBONE|DICT|INTERRES
   195   99  100 1    
   196   99  220 1    
   197  100  101 1    
   198  100  102 1    
   199  100  221 1    
   200  101  222 1    
   201  101  223 1    
   202  101  224 1    
   203  102  103 2    
   204  102  104 am   BACKBONE|DICT|INTERRES
   205  104  105 1    
   206  104  225 1    
   207  105  106 1    
   208  105  107 1    
   209  105  226 1    
   210  106  227 1    
   211  106  228 1    
   212  106  229 1    
   213  107  108 2    
   214  107  109 am   BACKBONE|DICT|INTERRES
   215  109  110 1    
   216  109  230 1    
   217  110  111 1    
   218  110  112 1    
   219  110  231 1    
   220  111  232 1    
   221  111  233 1    
   222  111  234 1    
   223  112  113 2    
   224  112  114 am   BACKBONE|DICT|INTERRES
   225  114  115 1    
   226  114  235 1    
   227  115  116 1    
   228  115  117 1    
   229  115  236 1    
   230  116  237 1    
   231  116  238 1    
   232  116  239 1    
   233  117  118 2    
   234  117  119 am   BACKBONE|DICT|INTERRES
   235  119  120 1    
   236  119  240 1    
   237  120  121 1    
   238  120  124 1    
   239  120  241 1    
   240  121  122 am   BACKBONE|DICT|INTERRES
   241  121  123 2    
   242  122  242 1    
   243  122  243 1    
   244  124  125 1    
   245  124  244 1    
   246  124  245 1    
   247  125  126 1    
   248  126  246 1    
   249  126  247 1    
@<TRIPOS>SUBSTRUCTURE
     1 UNK         1 GROUP             0       ****    0 ROOT    
