@<TRIPOS>MOLECULE
3R540
247   249    1
SMALL
USER_CHARGES


@<TRIPOS>ATOM
      1 CA          3.3651  -10.1867  -50.4065 C.3       0 UNK        -0.1800 
      2 C           3.8064  -10.6878  -49.0387 C.2       0 UNK         0.5000 
      3 O           4.9787  -10.5557  -48.6870 O.2       0 UNK        -0.5000 
      4 N           2.8725  -11.2643  -48.2715 N.am      1 UNK        -0.5000 
      5 CA          3.1037  -11.7916  -46.9206 C.3       1 UNK         0.1400 
      6 C6          1.9381  -12.6907  -46.4422 C.3       23 UNK        -0.0398 
      7 S7          1.8183  -14.2571  -47.3653 S.3       23 UNK        -0.2404 
      8 C8          0.7191  -13.8169  -48.7467 C.3       23 UNK        -0.0205 
      9 C9         -0.1627  -14.9890  -49.1458 C.ar      23 UNK        -0.0193 
     10 C10        -1.5462  -14.9186  -48.9657 C.ar      23 UNK        -0.1150 
     11 C11        -2.3761  -15.9858  -49.3202 C.ar      23 UNK        -0.0193 
     12 C12        -1.7918  -17.1404  -49.8606 C.ar      23 UNK        -0.1150 
     13 C13        -0.4102  -17.2194  -50.0646 C.ar      23 UNK        -0.0193 
     14 C14         0.3986  -16.1394  -49.7047 C.ar      23 UNK        -0.1150 
     15 C15         0.2106  -18.4556  -50.7020 C.3       23 UNK        -0.0205 
     16 S16         0.7143  -19.6949  -49.4669 S.3       23 UNK        -0.2404 
     17 C17        -0.9095  -20.3445  -48.9683 C.3       23 UNK        -0.0398 
     18 CA         -0.8298  -21.6833  -48.1999 C.3       11 UNK         0.1400 
     19 N          -0.1693  -21.5670  -46.8931 N.am      11 UNK        -0.5000 
     20 C           0.0947  -22.6043  -46.0828 C.2       10 UNK         0.5000 
     21 O          -0.1075  -23.7787  -46.3902 O.2       10 UNK        -0.5000 
     22 CA          0.6169  -22.2851  -44.6699 C.3       10 UNK         0.1400 
     23 CB          2.1383  -22.0761  -44.6748 C.3       10 UNK        -0.1800 
     24 N          -0.0526  -21.1321  -44.0651 N.am      10 UNK        -0.5000 
     25 C          -1.3565  -21.0936  -43.7526 C.2       9 UNK         0.5000 
     26 O          -2.1172  -22.0494  -43.8943 O.2       9 UNK        -0.5000 
     27 CA         -1.9230  -19.7563  -43.2400 C.3       9 UNK         0.1400 
     28 CB         -1.6755  -19.5964  -41.7335 C.3       9 UNK        -0.1800 
     29 N          -1.3800  -18.6036  -43.9573 N.am      9 UNK        -0.5000 
     30 C          -1.5582  -18.3717  -45.2662 C.2       8 UNK         0.5000 
     31 O          -2.2613  -19.0737  -45.9940 O.2       8 UNK        -0.5000 
     32 CA         -0.7697  -17.1924  -45.8657 C.3       8 UNK         0.1400 
     33 CB         -1.4979  -15.8623  -45.6193 C.3       8 UNK        -0.1800 
     34 N           0.5901  -17.1161  -45.3271 N.am      8 UNK        -0.5000 
     35 C           1.5369  -18.0402  -45.5433 C.2       7 UNK         0.5000 
     36 O           1.3704  -19.0327  -46.2500 O.2       7 UNK        -0.5000 
     37 CA          2.8651  -17.8674  -44.7849 C.3       7 UNK         0.1400 
     38 CB          3.7979  -16.8821  -45.5031 C.3       7 UNK        -0.1800 
     39 N           2.6538  -17.4357  -43.4023 N.am      7 UNK        -0.5000 
     40 C           2.1417  -18.2284  -42.4478 C.2       6 UNK         0.5000 
     41 O           1.8494  -19.4083  -42.6350 O.2       6 UNK        -0.5000 
     42 CA          1.8726  -17.6036  -41.0636 C.3       6 UNK         0.1400 
     43 CB          3.0928  -17.7835  -40.1488 C.3       6 UNK        -0.1800 
     44 N           1.5239  -16.1849  -41.1212 N.am      6 UNK        -0.5000 
     45 C           0.4763  -15.6691  -41.7790 C.2       5 UNK         0.5000 
     46 O          -0.3814  -16.3567  -42.3329 O.2       5 UNK        -0.5000 
     47 CA          0.4040  -14.1313  -41.8846 C.3       5 UNK         0.1400 
     48 CB         -0.6203  -13.5710  -40.8877 C.3       5 UNK        -0.1800 
     49 N           1.6879  -13.4472  -41.6845 N.am      5 UNK        -0.5000 
     50 C           2.7966  -13.6256  -42.4152 C.2       4 UNK         0.5000 
     51 O           2.8657  -14.4241  -43.3507 O.2       4 UNK        -0.5000 
     52 CA          4.0257  -12.7899  -42.0079 C.3       4 UNK         0.1400 
     53 CB          5.2758  -13.1327  -42.8386 C.3       4 UNK        -0.1800 
     54 N           3.7594  -11.3515  -42.0934 N.am      4 UNK        -0.5000 
     55 C           3.1327  -10.6309  -41.1509 C.2       3 UNK         0.5000 
     56 O           2.6662  -11.1316  -40.1259 O.2       3 UNK        -0.5000 
     57 CA          3.0003   -9.1088  -41.3632 C.3       3 UNK         0.1400 
     58 CB          4.0337   -8.3603  -40.5070 C.3       3 UNK        -0.1800 
     59 N           3.1562   -8.6916  -42.7564 N.am      3 UNK        -0.5000 
     60 C           2.2208   -8.8301  -43.7039 C.2       2 UNK         0.5000 
     61 O           1.1041   -9.3069  -43.4944 O.2       2 UNK        -0.5000 
     62 CA          2.5931   -8.3946  -45.1388 C.3       2 UNK         0.1400 
     63 CB          3.9124   -7.5957  -45.2427 C.3       2 UNK        -0.1800 
     64 N           2.6179   -9.5452  -46.0468 N.am      2 UNK        -0.5000 
     65 C           3.3454  -10.6638  -45.8975 C.2       1 UNK         0.5000 
     66 O           4.1681  -10.8302  -44.9966 O.2       1 UNK        -0.5000 
     67 C          -2.2403  -22.2894  -48.0633 C.2       11 UNK         0.5000 
     68 O          -2.5558  -23.2498  -48.7675 O.2       11 UNK        -0.5000 
     69 N          -3.0387  -21.7476  -47.1311 N.am      12 UNK        -0.5000 
     70 CA         -4.3877  -22.2181  -46.8177 C.3       12 UNK         0.1400 
     71 CB         -5.0379  -21.2833  -45.7872 C.3       12 UNK        -0.1800 
     72 C          -4.4096  -23.6820  -46.3399 C.2       12 UNK         0.5000 
     73 O          -5.2057  -24.4717  -46.8507 O.2       12 UNK        -0.5000 
     74 N          -3.5001  -24.0232  -45.4147 N.am      13 UNK        -0.5000 
     75 CA         -3.3026  -25.3690  -44.8710 C.3       13 UNK         0.1400 
     76 CB         -2.2696  -25.3183  -43.7360 C.3       13 UNK        -0.1800 
     77 C          -2.8886  -26.4077  -45.9296 C.2       13 UNK         0.5000 
     78 O          -3.3106  -27.5607  -45.8398 O.2       13 UNK        -0.5000 
     79 N          -2.1302  -25.9793  -46.9476 N.am      14 UNK        -0.5000 
     80 CA         -1.7400  -26.7682  -48.1200 C.3       14 UNK         0.1400 
     81 CB         -0.4550  -26.1660  -48.7171 C.3       14 UNK        -0.1800 
     82 C          -2.8714  -26.8901  -49.1681 C.2       14 UNK         0.5000 
     83 O          -2.6010  -26.8555  -50.3700 O.2       14 UNK        -0.5000 
     84 N          -4.1218  -27.0170  -48.6995 N.am      15 UNK        -0.5000 
     85 CA         -5.3659  -27.1179  -49.4683 C.3       15 UNK         0.1400 
     86 CB         -5.4418  -28.4822  -50.1850 C.3       15 UNK        -0.1800 
     87 C          -5.5707  -25.9257  -50.4244 C.2       15 UNK         0.5000 
     88 O          -5.9240  -26.1237  -51.5865 O.2       15 UNK        -0.5000 
     89 N          -5.3019  -24.7113  -49.9238 N.am      16 UNK        -0.5000 
     90 CA         -5.2949  -23.4433  -50.6636 C.3       16 UNK         0.1400 
     91 CB         -6.7267  -23.0487  -51.0736 C.3       16 UNK        -0.1800 
     92 C          -4.2958  -23.4637  -51.8428 C.2       16 UNK         0.5000 
     93 O          -4.6544  -23.1513  -52.9807 O.2       16 UNK        -0.5000 
     94 N          -3.0636  -23.8945  -51.5331 N.am      17 UNK        -0.5000 
     95 CA         -1.9489  -24.1761  -52.4428 C.3       17 UNK         0.1400 
     96 CB         -1.3440  -22.8620  -52.9747 C.3       17 UNK        -0.1800 
     97 C          -2.3455  -25.1586  -53.5652 C.2       17 UNK         0.5000 
     98 O          -2.1471  -24.8654  -54.7443 O.2       17 UNK        -0.5000 
     99 N          -2.9461  -26.2896  -53.1672 N.am      18 UNK        -0.5000 
    100 CA        -3.5446  -27.3216  -54.0235 C.3       18 UNK         0.1400 
    101 CB        -2.4502  -28.0970  -54.7857 C.3       18 UNK        -0.1800 
    102 C         -4.6514  -26.7630  -54.9481 C.2       18 UNK         0.5000 
    103 O         -4.7097  -27.1032  -56.1313 O.2       18 UNK        -0.5000 
    104 N         -5.5004  -25.9003  -54.3731 N.am      19 UNK        -0.5000 
    105 CA        -6.6299  -25.1884  -54.9762 C.3       19 UNK         0.1400 
    106 CB        -7.7546  -26.1796  -55.3396 C.3       19 UNK        -0.1800 
    107 C         -6.2479  -24.2574  -56.1484 C.2       19 UNK         0.5000 
    108 O         -7.0773  -24.0159  -57.0281 O.2       19 UNK        -0.5000 
    109 N         -5.0090  -23.7453  -56.1526 N.am      20 UNK        -0.5000 
    110 CA        -4.4947  -22.8539  -57.1943 C.3       20 UNK         0.1400 
    111 CB        -2.9619  -22.8026  -57.1168 C.3       20 UNK        -0.1800 
    112 C         -5.0830  -21.4339  -57.1134 C.2       20 UNK         0.5000 
    113 O         -5.3590  -20.8325  -58.1523 O.2       20 UNK        -0.5000 
    114 N         -5.2624  -20.9330  -55.8863 N.am      21 UNK        -0.5000 
    115 CA        -5.7834  -19.6100  -55.5491 C.3       21 UNK         0.1400 
    116 CB        -4.8345  -18.4911  -56.0456 C.3       21 UNK        -0.1800 
    117 C         -6.0081  -19.6086  -54.0284 C.2       21 UNK         0.5000 
    118 O         -6.7087  -20.4909  -53.5327 O.2       21 UNK        -0.5000 
    119 N         -5.3859  -18.6652  -53.3098 N.am      22 UNK        -0.5000 
    120 CA        -5.1948  -18.7333  -51.8520 C.3       22 UNK         0.1400 
    121 C         -4.0923  -19.7589  -51.4478 C.2       22 UNK         0.5000 
    122 N         -3.1199  -20.0532  -52.3036 N.am      22 UNK        -0.7600 
    123 O         -4.1245  -20.3091  -50.3532 O.2       22 UNK        -0.5000 
    124 C124       -4.9290  -17.3207  -51.2677 C.3       23 UNK        -0.0398 
    125 S125       -4.9496  -17.2557  -49.4401 S.3       23 UNK        -0.2404 
    126 C126       -3.8833  -15.8117  -49.1029 C.3       23 UNK        -0.0205 
    127 H127        3.5300   -9.1119  -50.4832 H         1 UNK         0.0600 
    128 H128        2.3083  -10.3827  -50.5896 H         1 UNK         0.0600 
    129 H129        3.9421  -10.6780  -51.1900 H         1 UNK         0.0600 
    130 H130        1.9306  -11.3467  -48.6233 H         1 UNK         0.3000 
    131 H131        4.0118  -12.3984  -46.9456 H         1 UNK         0.0600 
    132 H132        0.9855  -12.1599  -46.4785 H         1 UNK         0.0800 
    133 H133        2.0797  -12.9655  -45.3962 H         1 UNK         0.0800 
    134 H134        0.1020  -12.9589  -48.4777 H         1 UNK         0.0800 
    135 H135        1.3227  -13.5099  -49.6018 H         1 UNK         0.0800 
    136 H136       -1.9836  -14.0252  -48.5422 H         1 UNK         0.1150 
    137 H137       -2.4010  -17.9861  -50.1325 H         1 UNK         0.1150 
    138 H138        1.4681  -16.1949  -49.8526 H         1 UNK         0.1150 
    139 H139       -0.4820  -18.9022  -51.4168 H         1 UNK         0.0800 
    140 H140        1.0894  -18.1659  -51.2799 H         1 UNK         0.0800 
    141 H141       -1.4974  -20.4751  -49.8771 H         1 UNK         0.0800 
    142 H142       -1.4235  -19.5859  -48.3785 H         1 UNK         0.0800 
    143 H143       -0.2399  -22.3804  -48.7990 H         1 UNK         0.0600 
    144 H144        0.0878  -20.6321  -46.5934 H         1 UNK         0.3000 
    145 H145        0.4058  -23.1514  -44.0398 H         1 UNK         0.0600 
    146 H146        2.6486  -22.9491  -45.0835 H         1 UNK         0.0600 
    147 H147        2.4295  -21.2168  -45.2775 H         1 UNK         0.0600 
    148 H148        2.5183  -21.9215  -43.6649 H         1 UNK         0.0600 
    149 H149        0.5273  -20.3258  -43.8592 H         1 UNK         0.3000 
    150 H150       -3.0022  -19.7670  -43.4053 H         1 UNK         0.0600 
    151 H151       -2.1558  -20.4004  -41.1746 H         1 UNK         0.0600 
    152 H152       -2.0796  -18.6540  -41.3629 H         1 UNK         0.0600 
    153 H153       -0.6132  -19.6237  -41.4947 H         1 UNK         0.0600 
    154 H154       -0.8341  -17.9391  -43.4171 H         1 UNK         0.3000 
    155 H155       -0.6969  -17.3488  -46.9441 H         1 UNK         0.0600 
    156 H156       -0.9523  -15.0265  -46.0568 H         1 UNK         0.0600 
    157 H157       -1.6274  -15.6572  -44.5569 H         1 UNK         0.0600 
    158 H158       -2.4896  -15.8766  -46.0720 H         1 UNK         0.0600 
    159 H159        0.7958  -16.3462  -44.7082 H         1 UNK         0.3000 
    160 H160        3.3625  -18.8396  -44.7673 H         1 UNK         0.0600 
    161 H161        3.3922  -15.8715  -45.5052 H         1 UNK         0.0600 
    162 H162        3.9527  -17.1759  -46.5420 H         1 UNK         0.0600 
    163 H163        4.7760  -16.8458  -45.0235 H         1 UNK         0.0600 
    164 H164        2.8313  -16.4572  -43.2002 H         1 UNK         0.3000 
    165 H165        1.0295  -18.1334  -40.6172 H         1 UNK         0.0600 
    166 H166        2.8885  -17.4204  -39.1414 H         1 UNK         0.0600 
    167 H167        3.3651  -18.8365  -40.0643 H         1 UNK         0.0600 
    168 H168        3.9638  -17.2485  -40.5297 H         1 UNK         0.0600 
    169 H169        2.1733  -15.5425  -40.6932 H         1 UNK         0.3000 
    170 H170        0.0629  -13.8966  -42.8950 H         1 UNK         0.0600 
    171 H171       -1.5974  -14.0357  -41.0271 H         1 UNK         0.0600 
    172 H172       -0.3150  -13.7493  -39.8558 H         1 UNK         0.0600 
    173 H173       -0.7511  -12.4965  -41.0186 H         1 UNK         0.0600 
    174 H174        1.7282  -12.7581  -40.9408 H         1 UNK         0.3000 
    175 H175        4.2539  -13.0429  -40.9704 H         1 UNK         0.0600 
    176 H176        6.1295  -12.5249  -42.5390 H         1 UNK         0.0600 
    177 H177        5.5572  -14.1775  -42.7017 H         1 UNK         0.0600 
    178 H178        5.1124  -12.9804  -43.9052 H         1 UNK         0.0600 
    179 H179        4.0422  -10.8995  -42.9570 H         1 UNK         0.3000 
    180 H180        2.0044   -8.8177  -41.0223 H         1 UNK         0.0600 
    181 H181        5.0547   -8.6027  -40.8048 H         1 UNK         0.0600 
    182 H182        3.9294   -8.6187  -39.4523 H         1 UNK         0.0600 
    183 H183        3.9066   -7.2806  -40.5889 H         1 UNK         0.0600 
    184 H184        4.0560   -8.3165  -43.0196 H         1 UNK         0.3000 
    185 H185        1.7863   -7.7438  -45.4789 H         1 UNK         0.0600 
    186 H186        3.8841   -6.7050  -44.6137 H         1 UNK         0.0600 
    187 H187        4.7816   -8.1853  -44.9497 H         1 UNK         0.0600 
    188 H188        4.0788   -7.2578  -46.2656 H         1 UNK         0.0600 
    189 H189        1.9643   -9.5069  -46.8155 H         1 UNK         0.3000 
    190 H190       -2.7060  -20.9408  -46.6116 H         1 UNK         0.3000 
    191 H191       -4.9765  -22.1578  -47.7336 H         1 UNK         0.0600 
    192 H192       -5.0738  -20.2576  -46.1554 H         1 UNK         0.0600 
    193 H193       -6.0628  -21.5901  -45.5755 H         1 UNK         0.0600 
    194 H194       -4.4953  -21.2791  -44.8423 H         1 UNK         0.0600 
    195 H195       -2.9087  -23.2924  -45.0243 H         1 UNK         0.3000 
    196 H196       -4.2557  -25.6937  -44.4490 H         1 UNK         0.0600 
    197 H197       -2.1223  -26.3053  -43.2956 H         1 UNK         0.0600 
    198 H198       -2.5934  -24.6513  -42.9369 H         1 UNK         0.0600 
    199 H199       -1.3003  -24.9690  -44.0924 H         1 UNK         0.0600 
    200 H200       -1.8117  -25.0168  -46.9362 H         1 UNK         0.3000 
    201 H201       -1.5062  -27.7828  -47.7922 H         1 UNK         0.0600 
    202 H202        0.3399  -26.1184  -47.9727 H         1 UNK         0.0600 
    203 H203       -0.6215  -25.1556  -49.0917 H         1 UNK         0.0600 
    204 H204       -0.0835  -26.7687  -49.5467 H         1 UNK         0.0600 
    205 H205       -4.2287  -27.0413  -47.6928 H         1 UNK         0.3000 
    206 H206       -6.1820  -27.0744  -48.7457 H         1 UNK         0.0600 
    207 H207       -5.3284  -29.3044  -49.4786 H         1 UNK         0.0600 
    208 H208       -6.4049  -28.6118  -50.6802 H         1 UNK         0.0600 
    209 H209       -4.6666  -28.5847  -50.9447 H         1 UNK         0.0600 
    210 H210       -5.0143  -24.6573  -48.9526 H         1 UNK         0.3000 
    211 H211       -4.9356  -22.6900  -49.9665 H         1 UNK         0.0600 
    212 H212       -7.1302  -23.7087  -51.8414 H         1 UNK         0.0600 
    213 H213       -6.7439  -22.0340  -51.4682 H         1 UNK         0.0600 
    214 H214       -7.4027  -23.0728  -50.2192 H         1 UNK         0.0600 
    215 H215       -2.8797  -24.0764  -50.5510 H         1 UNK         0.3000 
    216 H216       -1.1842  -24.6777  -51.8481 H         1 UNK         0.0600 
    217 H217       -0.4581  -23.0591  -53.5793 H         1 UNK         0.0600 
    218 H218       -1.0371  -22.2105  -52.1567 H         1 UNK         0.0600 
    219 H219       -2.0510  -22.3194  -53.6027 H         1 UNK         0.0600 
    220 H220       -3.0262  -26.4478  -52.1646 H         1 UNK         0.3000 
    221 H221       -4.0383  -28.0244  -53.3512 H         1 UNK         0.0600 
    222 H222       -1.9391  -27.4667  -55.5140 H         1 UNK         0.0600 
    223 H223       -1.7008  -28.4946  -54.1013 H         1 UNK         0.0600 
    224 H224       -2.8759  -28.9427  -55.3268 H         1 UNK         0.0600 
    225 H225       -5.3914  -25.7393  -53.3748 H         1 UNK         0.3000 
    226 H226       -7.0133  -24.5319  -54.1942 H         1 UNK         0.0600 
    227 H227       -8.0200  -26.8028  -54.4855 H         1 UNK         0.0600 
    228 H228       -8.6589  -25.6535  -55.6473 H         1 UNK         0.0600 
    229 H229       -7.4632  -26.8378  -56.1586 H         1 UNK         0.0600 
    230 H230       -4.3833  -23.9808  -55.3920 H         1 UNK         0.3000 
    231 H231       -4.7661  -23.2707  -58.1666 H         1 UNK         0.0600 
    232 H232       -2.6196  -22.4326  -56.1495 H         1 UNK         0.0600 
    233 H233       -2.5520  -22.1455  -57.8847 H         1 UNK         0.0600 
    234 H234       -2.5279  -23.7907  -57.2702 H         1 UNK         0.0600 
    235 H235       -5.0758  -21.5309  -55.0892 H         1 UNK         0.3000 
    236 H236       -6.7589  -19.4865  -56.0229 H         1 UNK         0.0600 
    237 H237       -4.7585  -18.4845  -57.1324 H         1 UNK         0.0600 
    238 H238       -5.2002  -17.5041  -55.7597 H         1 UNK         0.0600 
    239 H239       -3.8252  -18.6081  -55.6492 H         1 UNK         0.0600 
    240 H240       -4.8491  -17.9650  -53.7999 H         1 UNK         0.3000 
    241 H241       -6.1268  -19.0941  -51.4120 H         1 UNK         0.0600 
    242 H242       -2.4437  -20.7511  -52.0480 H         1 UNK         0.3800 
    243 H243       -3.0775  -19.6229  -53.2118 H         1 UNK         0.3800 
    244 H244       -3.9831  -16.9281  -51.6431 H         1 UNK         0.0800 
    245 H245       -5.6969  -16.6309  -51.6202 H         1 UNK         0.0800 
    246 H246       -4.0468  -15.5238  -48.0636 H         1 UNK         0.0800 
    247 H247       -4.2323  -14.9742  -49.7087 H         1 UNK         0.0800 
@<TRIPOS>BOND
     1    1    2 1    
     2    1  127 1    
     3    1  128 1    
     4    1  129 1    
     5    2    3 2    
     6    2    4 am   BACKBONE|DICT|INTERRES
     7    4    5 1    
     8    4  130 1    
     9    5    6 1    
    10    5   65 1    
    11    5  131 1    
    12    6    7 1    
    13    6  132 1    
    14    6  133 1    
    15    7    8 1    
    16    8    9 1    
    17    8  134 1    
    18    8  135 1    
    19    9   10 ar   
    20    9   14 ar   
    21   10   11 ar   
    22   10  136 1    
    23   11   12 ar   
    24   11  126 1    
    25   12   13 ar   
    26   12  137 1    
    27   13   14 ar   
    28   13   15 1    
    29   14  138 1    
    30   15   16 1    
    31   15  139 1    
    32   15  140 1    
    33   16   17 1    
    34   17   18 1    
    35   17  141 1    
    36   17  142 1    
    37   18   19 1    
    38   18   67 1    
    39   18  143 1    
    40   19   20 am   BACKBONE|DICT|INTERRES
    41   19  144 1    
    42   20   21 2    
    43   20   22 1    
    44   22   23 1    
    45   22   24 1    
    46   22  145 1    
    47   23  146 1    
    48   23  147 1    
    49   23  148 1    
    50   24   25 am   BACKBONE|DICT|INTERRES
    51   24  149 1    
    52   25   26 2    
    53   25   27 1    
    54   27   28 1    
    55   27   29 1    
    56   27  150 1    
    57   28  151 1    
    58   28  152 1    
    59   28  153 1    
    60   29   30 am   BACKBONE|DICT|INTERRES
    61   29  154 1    
    62   30   31 2    
    63   30   32 1    
    64   32   33 1    
    65   32   34 1    
    66   32  155 1    
    67   33  156 1    
    68   33  157 1    
    69   33  158 1    
    70   34   35 am   BACKBONE|DICT|INTERRES
    71   34  159 1    
    72   35   36 2    
    73   35   37 1    
    74   37   38 1    
    75   37   39 1    
    76   37  160 1    
    77   38  161 1    
    78   38  162 1    
    79   38  163 1    
    80   39   40 am   BACKBONE|DICT|INTERRES
    81   39  164 1    
    82   40   41 2    
    83   40   42 1    
    84   42   43 1    
    85   42   44 1    
    86   42  165 1    
    87   43  166 1    
    88   43  167 1    
    89   43  168 1    
    90   44   45 am   BACKBONE|DICT|INTERRES
    91   44  169 1    
    92   45   46 2    
    93   45   47 1    
    94   47   48 1    
    95   47   49 1    
    96   47  170 1    
    97   48  171 1    
    98   48  172 1    
    99   48  173 1    
   100   49   50 am   BACKBONE|DICT|INTERRES
   101   49  174 1    
   102   50   51 2    
   103   50   52 1    
   104   52   53 1    
   105   52   54 1    
   106   52  175 1    
   107   53  176 1    
   108   53  177 1    
   109   53  178 1    
   110   54   55 am   BACKBONE|DICT|INTERRES
   111   54  179 1    
   112   55   56 2    
   113   55   57 1    
   114   57   58 1    
   115   57   59 1    
   116   57  180 1    
   117   58  181 1    
   118   58  182 1    
   119   58  183 1    
   120   59   60 am   BACKBONE|DICT|INTERRES
   121   59  184 1    
   122   60   61 2    
   123   60   62 1    
   124   62   63 1    
   125   62   64 1    
   126   62  185 1    
   127   63  186 1    
   128   63  187 1    
   129   63  188 1    
   130   64   65 am   BACKBONE|DICT|INTERRES
   131   64  189 1    
   132   65   66 2    
   133   67   68 2    
   134   67   69 am   BACKBONE|DICT|INTERRES
   135   69   70 1    
   136   69  190 1    
   137   70   71 1    
   138   70   72 1    
   139   70  191 1    
   140   71  192 1    
   141   71  193 1    
   142   71  194 1    
   143   72   73 2    
   144   72   74 am   BACKBONE|DICT|INTERRES
   145   74   75 1    
   146   74  195 1    
   147   75   76 1    
   148   75   77 1    
   149   75  196 1    
   150   76  197 1    
   151   76  198 1    
   152   76  199 1    
   153   77   78 2    
   154   77   79 am   BACKBONE|DICT|INTERRES
   155   79   80 1    
   156   79  200 1    
   157   80   81 1    
   158   80   82 1    
   159   80  201 1    
   160   81  202 1    
   161   81  203 1    
   162   81  204 1    
   163   82   83 2    
   164   82   84 am   BACKBONE|DICT|INTERRES
   165   84   85 1    
   166   84  205 1    
   167   85   86 1    
   168   85   87 1    
   169   85  206 1    
   170   86  207 1    
   171   86  208 1    
   172   86  209 1    
   173   87   88 2    
   174   87   89 am   BACKBONE|DICT|INTERRES
   175   89   90 1    
   176   89  210 1    
   177   90   91 1    
   178   90   92 1    
   179   90  211 1    
   180   91  212 1    
   181   91  213 1    
   182   91  214 1    
   183   92   93 2    
   184   92   94 am   BACKBONE|DICT|INTERRES
   185   94   95 1    
   186   94  215 1    
   187   95   96 1    
   188   95   97 1    
   189   95  216 1    
   190   96  217 1    
   191   96  218 1    
   192   96  219 1    
   193   97   98 2    
   194   97   99 am   BACKBONE|DICT|INTERRES
   195   99  100 1    
   196   99  220 1    
   197  100  101 1    
   198  100  102 1    
   199  100  221 1    
   200  101  222 1    
   201  101  223 1    
   202  101  224 1    
   203  102  103 2    
   204  102  104 am   BACKBONE|DICT|INTERRES
   205  104  105 1    
   206  104  225 1    
   207  105  106 1    
   208  105  107 1    
   209  105  226 1    
   210  106  227 1    
   211  106  228 1    
   212  106  229 1    
   213  107  108 2    
   214  107  109 am   BACKBONE|DICT|INTERRES
   215  109  110 1    
   216  109  230 1    
   217  110  111 1    
   218  110  112 1    
   219  110  231 1    
   220  111  232 1    
   221  111  233 1    
   222  111  234 1    
   223  112  113 2    
   224  112  114 am   BACKBONE|DICT|INTERRES
   225  114  115 1    
   226  114  235 1    
   227  115  116 1    
   228  115  117 1    
   229  115  236 1    
   230  116  237 1    
   231  116  238 1    
   232  116  239 1    
   233  117  118 2    
   234  117  119 am   BACKBONE|DICT|INTERRES
   235  119  120 1    
   236  119  240 1    
   237  120  121 1    
   238  120  124 1    
   239  120  241 1    
   240  121  122 am   BACKBONE|DICT|INTERRES
   241  121  123 2    
   242  122  242 1    
   243  122  243 1    
   244  124  125 1    
   245  124  244 1    
   246  124  245 1    
   247  125  126 1    
   248  126  246 1    
   249  126  247 1    
@<TRIPOS>SUBSTRUCTURE
     1 UNK         1 GROUP             0       ****    0 ROOT    
