@<TRIPOS>MOLECULE
3R540
247   249    1
SMALL
USER_CHARGES


@<TRIPOS>ATOM
      1 CA         -0.1808  -13.6570  -53.0586 C.3       0 UNK        -0.1800 
      2 C           0.3924  -13.2652  -51.7055 C.2       0 UNK         0.5000 
      3 O          -0.3347  -13.2743  -50.7133 O.2       0 UNK        -0.5000 
      4 N           1.6885  -12.9133  -51.6781 N.am      1 UNK        -0.5000 
      5 CA          2.5470  -12.6078  -50.5153 C.3       1 UNK         0.1400 
      6 C6          3.0975  -13.8783  -49.8027 C.3       23 UNK        -0.0398 
      7 S7          1.8628  -14.8914  -48.9128 S.3       23 UNK        -0.2404 
      8 C8          1.6568  -16.2683  -50.0910 C.3       23 UNK        -0.0205 
      9 C9          0.5441  -17.2511  -49.7367 C.ar      23 UNK        -0.0193 
     10 C10        -0.6486  -16.8394  -49.1300 C.ar      23 UNK        -0.1150 
     11 C11        -1.6739  -17.7563  -48.8645 C.ar      23 UNK        -0.0193 
     12 C12        -1.4934  -19.0996  -49.2108 C.ar      23 UNK        -0.1150 
     13 C13        -0.3099  -19.5237  -49.8209 C.ar      23 UNK        -0.0193 
     14 C14         0.7009  -18.5959  -50.0791 C.ar      23 UNK        -0.1150 
     15 C15        -0.1168  -20.9763  -50.2251 C.3       23 UNK        -0.0205 
     16 S16         0.6885  -21.9335  -48.9072 S.3       23 UNK        -0.2404 
     17 C17        -0.7466  -22.3999  -47.8837 C.3       23 UNK        -0.0398 
     18 CA         -0.3976  -23.5699  -46.9383 C.3       11 UNK         0.1400 
     19 N           0.4778  -23.1463  -45.8438 N.am      11 UNK        -0.5000 
     20 C           1.1062  -23.9762  -45.0024 C.2       10 UNK         0.5000 
     21 O           1.0230  -25.2025  -45.0623 O.2       10 UNK        -0.5000 
     22 CA          1.9243  -23.3259  -43.8732 C.3       10 UNK         0.1400 
     23 CB          3.2603  -22.7834  -44.4025 C.3       10 UNK        -0.1800 
     24 N           1.1891  -22.2597  -43.1913 N.am      10 UNK        -0.5000 
     25 C           0.0555  -22.4499  -42.5004 C.2       9 UNK         0.5000 
     26 O          -0.4740  -23.5499  -42.3440 O.2       9 UNK        -0.5000 
     27 CA         -0.6252  -21.2009  -41.9158 C.3       9 UNK         0.1400 
     28 CB          0.0784  -20.7527  -40.6263 C.3       9 UNK        -0.1800 
     29 N          -0.6806  -20.0873  -42.8622 N.am      9 UNK        -0.5000 
     30 C          -1.3384  -20.1103  -44.0308 C.2       8 UNK         0.5000 
     31 O          -1.9916  -21.0719  -44.4330 O.2       8 UNK        -0.5000 
     32 CA         -1.1996  -18.8690  -44.9285 C.3       8 UNK         0.1400 
     33 CB         -2.0564  -17.7112  -44.3923 C.3       8 UNK        -0.1800 
     34 N           0.1876  -18.4310  -45.0685 N.am      8 UNK        -0.5000 
     35 C           1.1883  -19.1887  -45.5410 C.2       7 UNK         0.5000 
     36 O           1.0517  -20.3473  -45.9286 O.2       7 UNK        -0.5000 
     37 CA          2.5931  -18.5697  -45.5051 C.3       7 UNK         0.1400 
     38 CB          2.7861  -17.5774  -46.6591 C.3       7 UNK        -0.1800 
     39 N           2.8516  -17.9042  -44.2295 N.am      7 UNK        -0.5000 
     40 C           2.9912  -18.5438  -43.0596 C.2       6 UNK         0.5000 
     41 O           2.9592  -19.7686  -42.9366 O.2       6 UNK        -0.5000 
     42 CA          3.1520  -17.6573  -41.8120 C.3       6 UNK         0.1400 
     43 CB          4.6020  -17.1699  -41.6717 C.3       6 UNK        -0.1800 
     44 N           2.2489  -16.5051  -41.8252 N.am      6 UNK        -0.5000 
     45 C           0.9146  -16.5957  -41.7390 C.2       5 UNK         0.5000 
     46 O           0.3074  -17.6591  -41.6214 O.2       5 UNK        -0.5000 
     47 CA          0.1209  -15.2811  -41.8313 C.3       5 UNK         0.1400 
     48 CB          0.0087  -14.6216  -40.4487 C.3       5 UNK        -0.1800 
     49 N           0.6713  -14.3158  -42.7864 N.am      5 UNK        -0.5000 
     50 C           0.7971  -14.5279  -44.1031 C.2       4 UNK         0.5000 
     51 O           0.5790  -15.6108  -44.6499 O.2       4 UNK        -0.5000 
     52 CA          1.2576  -13.3277  -44.9498 C.3       4 UNK         0.1400 
     53 CB          2.7101  -13.5242  -45.4098 C.3       4 UNK        -0.1800 
     54 N           0.3996  -13.1169  -46.1173 N.am      4 UNK        -0.5000 
     55 C          -0.9133  -12.8446  -46.0687 C.2       3 UNK         0.5000 
     56 O          -1.5411  -12.6974  -45.0174 O.2       3 UNK        -0.5000 
     57 CA         -1.6272  -12.6801  -47.4271 C.3       3 UNK         0.1400 
     58 CB         -3.1096  -12.2755  -47.2938 C.3       3 UNK        -0.1800 
     59 N          -0.9248  -11.7654  -48.3293 N.am      3 UNK        -0.5000 
     60 C          -0.5961  -10.4813  -48.1086 C.2       2 UNK         0.5000 
     61 O          -0.9156   -9.8549  -47.0966 O.2       2 UNK        -0.5000 
     62 CA          0.2326   -9.7808  -49.2130 C.3       2 UNK         0.1400 
     63 CB          1.0896   -8.6160  -48.6738 C.3       2 UNK        -0.1800 
     64 N           1.0517  -10.7136  -49.9974 N.am      2 UNK        -0.5000 
     65 C           2.0013  -11.5410  -49.5333 C.2       1 UNK         0.5000 
     66 O           2.4323  -11.4971  -48.3804 O.2       1 UNK        -0.5000 
     67 C          -1.6681  -24.2800  -46.4306 C.2       11 UNK         0.5000 
     68 O          -2.0834  -25.2658  -47.0411 O.2       11 UNK        -0.5000 
     69 N          -2.2438  -23.8059  -45.3163 N.am      12 UNK        -0.5000 
     70 CA         -3.3791  -24.4392  -44.6444 C.3       12 UNK         0.1400 
     71 CB         -3.9420  -23.5024  -43.5653 C.3       12 UNK        -0.1800 
     72 C          -3.0171  -25.8096  -44.0452 C.2       12 UNK         0.5000 
     73 O          -3.7769  -26.7618  -44.2219 O.2       12 UNK        -0.5000 
     74 N          -1.8530  -25.8973  -43.3847 N.am      13 UNK        -0.5000 
     75 CA         -1.3132  -27.1315  -42.8079 C.3       13 UNK         0.1400 
     76 CB         -0.0886  -26.8026  -41.9407 C.3       13 UNK        -0.1800 
     77 C          -0.9596  -28.1863  -43.8728 C.2       13 UNK         0.5000 
     78 O          -1.2211  -29.3719  -43.6660 O.2       13 UNK        -0.5000 
     79 N          -0.4019  -27.7329  -45.0034 N.am      14 UNK        -0.5000 
     80 CA         -0.0957  -28.5573  -46.1741 C.3       14 UNK         0.1400 
     81 CB          0.8762  -27.7849  -47.0803 C.3       14 UNK        -0.1800 
     82 C          -1.3438  -28.9753  -46.9777 C.2       14 UNK         0.5000 
     83 O          -1.2516  -29.9067  -47.7782 O.2       14 UNK        -0.5000 
     84 N          -2.4661  -28.2678  -46.7719 N.am      15 UNK        -0.5000 
     85 CA         -3.7241  -28.3432  -47.5225 C.3       15 UNK         0.1400 
     86 CB         -4.4255  -29.6982  -47.2955 C.3       15 UNK        -0.1800 
     87 C          -3.5147  -27.9986  -49.0126 C.2       15 UNK         0.5000 
     88 O          -4.0053  -28.7035  -49.8969 O.2       15 UNK        -0.5000 
     89 N          -2.7521  -26.9265  -49.2515 N.am      16 UNK        -0.5000 
     90 CA         -2.2803  -26.4873  -50.5585 C.3       16 UNK         0.1400 
     91 CB         -0.8397  -26.9928  -50.7647 C.3       16 UNK        -0.1800 
     92 C          -2.4026  -24.9593  -50.6432 C.2       16 UNK         0.5000 
     93 O          -1.3953  -24.2575  -50.7379 O.2       16 UNK        -0.5000 
     94 N          -3.6471  -24.4694  -50.5701 N.am      17 UNK        -0.5000 
     95 CA         -4.0058  -23.0552  -50.6979 C.3       17 UNK         0.1400 
     96 CB         -5.5055  -22.8985  -50.4037 C.3       17 UNK        -0.1800 
     97 C          -3.6620  -22.4717  -52.0843 C.2       17 UNK         0.5000 
     98 O          -3.6236  -23.2070  -53.0749 O.2       17 UNK        -0.5000 
     99 N          -3.4354  -21.1525  -52.1243 N.am      18 UNK        -0.5000 
    100 CA        -3.1326  -20.3935  -53.3381 C.3       18 UNK         0.1400 
    101 CB        -2.6937  -18.9757  -52.9382 C.3       18 UNK        -0.1800 
    102 C         -4.3347  -20.3217  -54.2981 C.2       18 UNK         0.5000 
    103 O         -5.4859  -20.3666  -53.8546 O.2       18 UNK        -0.5000 
    104 N         -4.0463  -20.1544  -55.5945 N.am      19 UNK        -0.5000 
    105 CA        -5.0250  -20.0190  -56.6766 C.3       19 UNK         0.1400 
    106 CB        -4.3393  -20.3766  -58.0077 C.3       19 UNK        -0.1800 
    107 C         -5.6656  -18.6143  -56.6969 C.2       19 UNK         0.5000 
    108 O         -5.4576  -17.8488  -57.6388 O.2       19 UNK        -0.5000 
    109 N         -6.3928  -18.2905  -55.6194 N.am      20 UNK        -0.5000 
    110 CA        -7.1285  -17.0506  -55.3310 C.3       20 UNK         0.1400 
    111 CB        -8.1897  -16.7676  -56.4130 C.3       20 UNK        -0.1800 
    112 C         -6.2526  -15.8076  -55.0616 C.2       20 UNK         0.5000 
    113 O         -6.7885  -14.7872  -54.6264 O.2       20 UNK        -0.5000 
    114 N         -4.9318  -15.9052  -55.2722 N.am      21 UNK        -0.5000 
    115 CA        -3.9527  -14.8248  -55.1029 C.3       21 UNK         0.1400 
    116 CB        -2.5754  -15.3233  -55.5668 C.3       21 UNK        -0.1800 
    117 C         -3.8696  -14.2701  -53.6669 C.2       21 UNK         0.5000 
    118 O         -3.5702  -13.0897  -53.4881 O.2       21 UNK        -0.5000 
    119 N         -4.1664  -15.1261  -52.6815 N.am      22 UNK        -0.5000 
    120 CA        -4.3038  -14.7693  -51.2615 C.3       22 UNK         0.1400 
    121 C         -5.5899  -13.9441  -50.9309 C.2       22 UNK         0.5000 
    122 N         -6.5532  -13.8012  -51.8355 N.am      22 UNK        -0.7600 
    123 O         -5.7169  -13.4032  -49.8370 O.2       22 UNK        -0.5000 
    124 C124       -4.1775  -16.0390  -50.3771 C.3       23 UNK        -0.0398 
    125 S125       -3.5993  -15.6948  -48.6839 S.3       23 UNK        -0.2404 
    126 C126       -2.9678  -17.3282  -48.1749 C.3       23 UNK        -0.0205 
    127 H127       -0.7583  -14.5771  -52.9666 H         1 UNK         0.0600 
    128 H128        0.6017  -13.8213  -53.7995 H         1 UNK         0.0600 
    129 H129       -0.8412  -12.8719  -53.4255 H         1 UNK         0.0600 
    130 H130        2.1821  -12.8999  -52.5598 H         1 UNK         0.3000 
    131 H131        3.4174  -12.1200  -50.9565 H         1 UNK         0.0600 
    132 H132        3.6122  -14.5043  -50.5322 H         1 UNK         0.0800 
    133 H133        3.8692  -13.5978  -49.0839 H         1 UNK         0.0800 
    134 H134        2.6095  -16.7957  -50.1588 H         1 UNK         0.0800 
    135 H135        1.4515  -15.8709  -51.0844 H         1 UNK         0.0800 
    136 H136       -0.7822  -15.7995  -48.8712 H         1 UNK         0.1150 
    137 H137       -2.2727  -19.8185  -49.0031 H         1 UNK         0.1150 
    138 H138        1.6126  -18.9246  -50.5578 H         1 UNK         0.1150 
    139 H139        0.5042  -21.0281  -51.1204 H         1 UNK         0.0800 
    140 H140       -1.0678  -21.4328  -50.4983 H         1 UNK         0.0800 
    141 H141       -1.0915  -21.5302  -47.3218 H         1 UNK         0.0800 
    142 H142       -1.5594  -22.6802  -48.5533 H         1 UNK         0.0800 
    143 H143        0.1501  -24.3165  -47.5181 H         1 UNK         0.0600 
    144 H144        0.6293  -22.1430  -45.7542 H         1 UNK         0.3000 
    145 H145        2.1438  -24.1012  -43.1363 H         1 UNK         0.0600 
    146 H146        3.8283  -23.5670  -44.9053 H         1 UNK         0.0600 
    147 H147        3.8794  -22.4025  -43.5902 H         1 UNK         0.0600 
    148 H148        3.1132  -21.9735  -45.1175 H         1 UNK         0.0600 
    149 H149        1.5739  -21.3239  -43.2616 H         1 UNK         0.3000 
    150 H150       -1.6524  -21.4719  -41.6641 H         1 UNK         0.0600 
    151 H151        1.0965  -20.4128  -40.8203 H         1 UNK         0.0600 
    152 H152        0.1345  -21.5698  -39.9061 H         1 UNK         0.0600 
    153 H153       -0.4610  -19.9349  -40.1482 H         1 UNK         0.0600 
    154 H154       -0.1929  -19.2382  -42.5891 H         1 UNK         0.3000 
    155 H155       -1.5575  -19.1331  -45.9254 H         1 UNK         0.0600 
    156 H156       -3.1148  -17.9734  -44.4054 H         1 UNK         0.0600 
    157 H157       -1.9334  -16.8100  -44.9929 H         1 UNK         0.0600 
    158 H158       -1.7956  -17.4579  -43.3652 H         1 UNK         0.0600 
    159 H159        0.3892  -17.4698  -44.8029 H         1 UNK         0.3000 
    160 H160        3.3207  -19.3753  -45.6242 H         1 UNK         0.0600 
    161 H161        3.7896  -17.1522  -46.6574 H         1 UNK         0.0600 
    162 H162        2.0718  -16.7561  -46.6038 H         1 UNK         0.0600 
    163 H163        2.6411  -18.0697  -47.6215 H         1 UNK         0.0600 
    164 H164        2.8265  -16.8956  -44.2312 H         1 UNK         0.3000 
    165 H165        2.9115  -18.2669  -40.9382 H         1 UNK         0.0600 
    166 H166        4.7411  -16.6082  -40.7477 H         1 UNK         0.0600 
    167 H167        5.2951  -18.0118  -41.6464 H         1 UNK         0.0600 
    168 H168        4.8955  -16.5276  -42.5029 H         1 UNK         0.0600 
    169 H169        2.6665  -15.5915  -41.9228 H         1 UNK         0.3000 
    170 H170       -0.8871  -15.5318  -42.1673 H         1 UNK         0.0600 
    171 H171        0.9825  -14.3067  -40.0716 H         1 UNK         0.0600 
    172 H172       -0.4178  -15.3125  -39.7201 H         1 UNK         0.0600 
    173 H173       -0.6393  -13.7455  -40.4805 H         1 UNK         0.0600 
    174 H174        0.8793  -13.3980  -42.4202 H         1 UNK         0.3000 
    175 H175        1.2099  -12.4229  -44.3409 H         1 UNK         0.0600 
    176 H176        3.3765  -13.6565  -44.5568 H         1 UNK         0.0600 
    177 H177        2.8160  -14.4020  -46.0476 H         1 UNK         0.0600 
    178 H178        3.0676  -12.6597  -45.9691 H         1 UNK         0.0600 
    179 H179        0.8428  -13.2139  -47.0208 H         1 UNK         0.3000 
    180 H180       -1.5922  -13.6584  -47.9066 H         1 UNK         0.0600 
    181 H181       -3.2264  -11.3097  -46.8017 H         1 UNK         0.0600 
    182 H182       -3.6628  -13.0117  -46.7096 H         1 UNK         0.0600 
    183 H183       -3.5888  -12.2160  -48.2712 H         1 UNK         0.0600 
    184 H184       -0.6160  -12.1925  -49.2009 H         1 UNK         0.3000 
    185 H185       -0.4940   -9.3586  -49.9084 H         1 UNK         0.0600 
    186 H186        0.4625   -7.8419  -48.2302 H         1 UNK         0.0600 
    187 H187        1.7888   -8.9478  -47.9059 H         1 UNK         0.0600 
    188 H188        1.6649   -8.1470  -49.4719 H         1 UNK         0.0600 
    189 H189        0.7636  -10.8426  -50.9571 H         1 UNK         0.3000 
    190 H190       -1.8903  -22.9496  -44.8983 H         1 UNK         0.3000 
    191 H191       -4.1611  -24.6000  -45.3895 H         1 UNK         0.0600 
    192 H192       -4.2932  -22.5672  -44.0014 H         1 UNK         0.0600 
    193 H193       -4.7892  -23.9599  -43.0531 H         1 UNK         0.0600 
    194 H194       -3.1936  -23.2591  -42.8109 H         1 UNK         0.0600 
    195 H195       -1.3030  -25.0542  -43.2430 H         1 UNK         0.3000 
    196 H196       -2.0809  -27.5602  -42.1605 H         1 UNK         0.0600 
    197 H197        0.3267  -27.7051  -41.4907 H         1 UNK         0.0600 
    198 H198       -0.3527  -26.1259  -41.1279 H         1 UNK         0.0600 
    199 H199        0.7028  -26.3307  -42.5238 H         1 UNK         0.0600 
    200 H200       -0.1430  -26.7514  -45.0603 H         1 UNK         0.3000 
    201 H201        0.4008  -29.4690  -45.8359 H         1 UNK         0.0600 
    202 H202        1.1524  -28.3748  -47.9552 H         1 UNK         0.0600 
    203 H203        1.7966  -27.5369  -46.5515 H         1 UNK         0.0600 
    204 H204        0.4343  -26.8541  -47.4381 H         1 UNK         0.0600 
    205 H205       -2.4155  -27.5130  -46.1007 H         1 UNK         0.3000 
    206 H206       -4.3700  -27.5643  -47.1145 H         1 UNK         0.0600 
    207 H207       -4.5582  -29.8977  -46.2321 H         1 UNK         0.0600 
    208 H208       -5.4153  -29.7051  -47.7531 H         1 UNK         0.0600 
    209 H209       -3.8621  -30.5269  -47.7248 H         1 UNK         0.0600 
    210 H210       -2.4400  -26.3673  -48.4581 H         1 UNK         0.3000 
    211 H211       -2.9070  -26.9013  -51.3511 H         1 UNK         0.0600 
    212 H212       -0.1653  -26.6070  -49.9991 H         1 UNK         0.0600 
    213 H213       -0.4512  -26.6825  -51.7353 H         1 UNK         0.0600 
    214 H214       -0.7961  -28.0815  -50.7283 H         1 UNK         0.0600 
    215 H215       -4.4138  -25.1212  -50.4935 H         1 UNK         0.3000 
    216 H216       -3.4472  -22.4988  -49.9438 H         1 UNK         0.0600 
    217 H217       -5.8100  -21.8525  -50.4597 H         1 UNK         0.0600 
    218 H218       -5.7513  -23.2537  -49.4027 H         1 UNK         0.0600 
    219 H219       -6.1146  -23.4545  -51.1177 H         1 UNK         0.0600 
    220 H220       -3.5458  -20.6109  -51.2809 H         1 UNK         0.3000 
    221 H221       -2.3040  -20.8875  -53.8501 H         1 UNK         0.0600 
    222 H222       -3.4915  -18.4446  -52.4195 H         1 UNK         0.0600 
    223 H223       -1.8223  -18.9981  -52.2841 H         1 UNK         0.0600 
    224 H224       -2.4219  -18.3858  -53.8141 H         1 UNK         0.0600 
    225 H225       -3.0768  -20.0934  -55.8708 H         1 UNK         0.3000 
    226 H226       -5.8294  -20.7400  -56.5157 H         1 UNK         0.0600 
    227 H227       -3.9549  -21.3966  -57.9910 H         1 UNK         0.0600 
    228 H228       -3.5059  -19.7078  -58.2264 H         1 UNK         0.0600 
    229 H229       -5.0418  -20.3103  -58.8396 H         1 UNK         0.0600 
    230 H230       -6.4162  -18.9857  -54.8775 H         1 UNK         0.3000 
    231 H231       -7.6609  -17.2418  -54.3981 H         1 UNK         0.0600 
    232 H232       -7.7375  -16.5077  -57.3704 H         1 UNK         0.0600 
    233 H233       -8.8305  -15.9344  -56.1220 H         1 UNK         0.0600 
    234 H234       -8.8350  -17.6321  -56.5689 H         1 UNK         0.0600 
    235 H235       -4.5882  -16.7681  -55.6672 H         1 UNK         0.3000 
    236 H236       -4.2565  -14.0022  -55.7535 H         1 UNK         0.0600 
    237 H237       -2.2179  -16.1502  -54.9525 H         1 UNK         0.0600 
    238 H238       -2.6055  -15.6616  -56.6028 H         1 UNK         0.0600 
    239 H239       -1.8327  -14.5266  -55.5089 H         1 UNK         0.0600 
    240 H240       -4.4233  -16.0672  -52.9359 H         1 UNK         0.3000 
    241 H241       -3.4595  -14.1175  -51.0255 H         1 UNK         0.0600 
    242 H242       -6.4790  -14.1973  -52.7664 H         1 UNK         0.3800 
    243 H243       -7.3668  -13.2569  -51.5972 H         1 UNK         0.3800 
    244 H244       -3.4480  -16.7169  -50.8205 H         1 UNK         0.0800 
    245 H245       -5.1184  -16.5902  -50.3362 H         1 UNK         0.0800 
    246 H246       -2.7883  -17.3007  -47.1025 H         1 UNK         0.0800 
    247 H247       -3.7529  -18.0686  -48.3355 H         1 UNK         0.0800 
@<TRIPOS>BOND
     1    1    2 1    
     2    1  127 1    
     3    1  128 1    
     4    1  129 1    
     5    2    3 2    
     6    2    4 am   BACKBONE|DICT|INTERRES
     7    4    5 1    
     8    4  130 1    
     9    5    6 1    
    10    5   65 1    
    11    5  131 1    
    12    6    7 1    
    13    6  132 1    
    14    6  133 1    
    15    7    8 1    
    16    8    9 1    
    17    8  134 1    
    18    8  135 1    
    19    9   10 ar   
    20    9   14 ar   
    21   10   11 ar   
    22   10  136 1    
    23   11   12 ar   
    24   11  126 1    
    25   12   13 ar   
    26   12  137 1    
    27   13   14 ar   
    28   13   15 1    
    29   14  138 1    
    30   15   16 1    
    31   15  139 1    
    32   15  140 1    
    33   16   17 1    
    34   17   18 1    
    35   17  141 1    
    36   17  142 1    
    37   18   19 1    
    38   18   67 1    
    39   18  143 1    
    40   19   20 am   BACKBONE|DICT|INTERRES
    41   19  144 1    
    42   20   21 2    
    43   20   22 1    
    44   22   23 1    
    45   22   24 1    
    46   22  145 1    
    47   23  146 1    
    48   23  147 1    
    49   23  148 1    
    50   24   25 am   BACKBONE|DICT|INTERRES
    51   24  149 1    
    52   25   26 2    
    53   25   27 1    
    54   27   28 1    
    55   27   29 1    
    56   27  150 1    
    57   28  151 1    
    58   28  152 1    
    59   28  153 1    
    60   29   30 am   BACKBONE|DICT|INTERRES
    61   29  154 1    
    62   30   31 2    
    63   30   32 1    
    64   32   33 1    
    65   32   34 1    
    66   32  155 1    
    67   33  156 1    
    68   33  157 1    
    69   33  158 1    
    70   34   35 am   BACKBONE|DICT|INTERRES
    71   34  159 1    
    72   35   36 2    
    73   35   37 1    
    74   37   38 1    
    75   37   39 1    
    76   37  160 1    
    77   38  161 1    
    78   38  162 1    
    79   38  163 1    
    80   39   40 am   BACKBONE|DICT|INTERRES
    81   39  164 1    
    82   40   41 2    
    83   40   42 1    
    84   42   43 1    
    85   42   44 1    
    86   42  165 1    
    87   43  166 1    
    88   43  167 1    
    89   43  168 1    
    90   44   45 am   BACKBONE|DICT|INTERRES
    91   44  169 1    
    92   45   46 2    
    93   45   47 1    
    94   47   48 1    
    95   47   49 1    
    96   47  170 1    
    97   48  171 1    
    98   48  172 1    
    99   48  173 1    
   100   49   50 am   BACKBONE|DICT|INTERRES
   101   49  174 1    
   102   50   51 2    
   103   50   52 1    
   104   52   53 1    
   105   52   54 1    
   106   52  175 1    
   107   53  176 1    
   108   53  177 1    
   109   53  178 1    
   110   54   55 am   BACKBONE|DICT|INTERRES
   111   54  179 1    
   112   55   56 2    
   113   55   57 1    
   114   57   58 1    
   115   57   59 1    
   116   57  180 1    
   117   58  181 1    
   118   58  182 1    
   119   58  183 1    
   120   59   60 am   BACKBONE|DICT|INTERRES
   121   59  184 1    
   122   60   61 2    
   123   60   62 1    
   124   62   63 1    
   125   62   64 1    
   126   62  185 1    
   127   63  186 1    
   128   63  187 1    
   129   63  188 1    
   130   64   65 am   BACKBONE|DICT|INTERRES
   131   64  189 1    
   132   65   66 2    
   133   67   68 2    
   134   67   69 am   BACKBONE|DICT|INTERRES
   135   69   70 1    
   136   69  190 1    
   137   70   71 1    
   138   70   72 1    
   139   70  191 1    
   140   71  192 1    
   141   71  193 1    
   142   71  194 1    
   143   72   73 2    
   144   72   74 am   BACKBONE|DICT|INTERRES
   145   74   75 1    
   146   74  195 1    
   147   75   76 1    
   148   75   77 1    
   149   75  196 1    
   150   76  197 1    
   151   76  198 1    
   152   76  199 1    
   153   77   78 2    
   154   77   79 am   BACKBONE|DICT|INTERRES
   155   79   80 1    
   156   79  200 1    
   157   80   81 1    
   158   80   82 1    
   159   80  201 1    
   160   81  202 1    
   161   81  203 1    
   162   81  204 1    
   163   82   83 2    
   164   82   84 am   BACKBONE|DICT|INTERRES
   165   84   85 1    
   166   84  205 1    
   167   85   86 1    
   168   85   87 1    
   169   85  206 1    
   170   86  207 1    
   171   86  208 1    
   172   86  209 1    
   173   87   88 2    
   174   87   89 am   BACKBONE|DICT|INTERRES
   175   89   90 1    
   176   89  210 1    
   177   90   91 1    
   178   90   92 1    
   179   90  211 1    
   180   91  212 1    
   181   91  213 1    
   182   91  214 1    
   183   92   93 2    
   184   92   94 am   BACKBONE|DICT|INTERRES
   185   94   95 1    
   186   94  215 1    
   187   95   96 1    
   188   95   97 1    
   189   95  216 1    
   190   96  217 1    
   191   96  218 1    
   192   96  219 1    
   193   97   98 2    
   194   97   99 am   BACKBONE|DICT|INTERRES
   195   99  100 1    
   196   99  220 1    
   197  100  101 1    
   198  100  102 1    
   199  100  221 1    
   200  101  222 1    
   201  101  223 1    
   202  101  224 1    
   203  102  103 2    
   204  102  104 am   BACKBONE|DICT|INTERRES
   205  104  105 1    
   206  104  225 1    
   207  105  106 1    
   208  105  107 1    
   209  105  226 1    
   210  106  227 1    
   211  106  228 1    
   212  106  229 1    
   213  107  108 2    
   214  107  109 am   BACKBONE|DICT|INTERRES
   215  109  110 1    
   216  109  230 1    
   217  110  111 1    
   218  110  112 1    
   219  110  231 1    
   220  111  232 1    
   221  111  233 1    
   222  111  234 1    
   223  112  113 2    
   224  112  114 am   BACKBONE|DICT|INTERRES
   225  114  115 1    
   226  114  235 1    
   227  115  116 1    
   228  115  117 1    
   229  115  236 1    
   230  116  237 1    
   231  116  238 1    
   232  116  239 1    
   233  117  118 2    
   234  117  119 am   BACKBONE|DICT|INTERRES
   235  119  120 1    
   236  119  240 1    
   237  120  121 1    
   238  120  124 1    
   239  120  241 1    
   240  121  122 am   BACKBONE|DICT|INTERRES
   241  121  123 2    
   242  122  242 1    
   243  122  243 1    
   244  124  125 1    
   245  124  244 1    
   246  124  245 1    
   247  125  126 1    
   248  126  246 1    
   249  126  247 1    
@<TRIPOS>SUBSTRUCTURE
     1 UNK         1 GROUP             0       ****    0 ROOT    
