@<TRIPOS>MOLECULE
3R540
247   249    1
SMALL
USER_CHARGES


@<TRIPOS>ATOM
      1 CA          1.0490  -14.0404  -53.1108 C.3       0 UNK        -0.1800 
      2 C           1.0566  -14.1737  -51.5944 C.2       0 UNK         0.5000 
      3 O           1.7516  -15.0373  -51.0595 O.2       0 UNK        -0.5000 
      4 N           0.2830  -13.3259  -50.9046 N.am      1 UNK        -0.5000 
      5 CA          0.1729  -13.2914  -49.4436 C.3       1 UNK         0.1400 
      6 C6         -1.0344  -12.4284  -48.9862 C.3       23 UNK        -0.0398 
      7 S7         -1.8554  -13.1036  -47.5020 S.3       23 UNK        -0.2404 
      8 C8         -3.4733  -13.6338  -48.1541 C.3       23 UNK        -0.0205 
      9 C9         -3.4321  -15.0172  -48.7923 C.ar      23 UNK        -0.0193 
     10 C10        -2.9013  -15.1904  -50.0741 C.ar      23 UNK        -0.1150 
     11 C11        -2.9064  -16.4480  -50.6799 C.ar      23 UNK        -0.0193 
     12 C12        -3.4580  -17.5352  -49.9998 C.ar      23 UNK        -0.1150 
     13 C13        -4.0068  -17.3828  -48.7217 C.ar      23 UNK        -0.0193 
     14 C14        -3.9785  -16.1186  -48.1224 C.ar      23 UNK        -0.1150 
     15 C15        -4.6905  -18.5444  -47.9968 C.3       23 UNK        -0.0205 
     16 S16        -4.0163  -20.1988  -48.3831 S.3       23 UNK        -0.2404 
     17 C17        -2.4467  -20.0973  -47.4632 C.3       23 UNK        -0.0398 
     18 CA         -1.4526  -21.2567  -47.7091 C.3       11 UNK         0.1400 
     19 N          -0.2031  -21.0220  -46.9838 N.am      11 UNK        -0.5000 
     20 C           0.8937  -21.7893  -47.0406 C.2       10 UNK         0.5000 
     21 O           1.0053  -22.7788  -47.7624 O.2       10 UNK        -0.5000 
     22 CA          2.0428  -21.4140  -46.0901 C.3       10 UNK         0.1400 
     23 CB          2.8493  -20.2340  -46.6528 C.3       10 UNK        -0.1800 
     24 N           1.5754  -21.0975  -44.7386 N.am      10 UNK        -0.5000 
     25 C           0.9634  -21.9702  -43.9238 C.2       9 UNK         0.5000 
     26 O           0.7448  -23.1448  -44.2197 O.2       9 UNK        -0.5000 
     27 CA          0.4708  -21.4328  -42.5675 C.3       9 UNK         0.1400 
     28 CB          1.6416  -21.2357  -41.5935 C.3       9 UNK        -0.1800 
     29 N          -0.2795  -20.1841  -42.6954 N.am      9 UNK        -0.5000 
     30 C          -1.4260  -20.0524  -43.3781 C.2       8 UNK         0.5000 
     31 O          -1.9984  -20.9784  -43.9504 O.2       8 UNK        -0.5000 
     32 CA         -2.0000  -18.6319  -43.4927 C.3       8 UNK         0.1400 
     33 CB         -2.7781  -18.2432  -42.2267 C.3       8 UNK        -0.1800 
     34 N          -0.9579  -17.6428  -43.7568 N.am      8 UNK        -0.5000 
     35 C          -0.2162  -17.6013  -44.8725 C.2       7 UNK         0.5000 
     36 O          -0.3346  -18.3870  -45.8112 O.2       7 UNK        -0.5000 
     37 CA          0.8676  -16.5164  -44.9227 C.3       7 UNK         0.1400 
     38 CB          0.2185  -15.1467  -45.1503 C.3       7 UNK        -0.1800 
     39 N           1.6689  -16.4805  -43.7000 N.am      7 UNK        -0.5000 
     40 C           2.4589  -17.4820  -43.2817 C.2       6 UNK         0.5000 
     41 O           2.6444  -18.5176  -43.9188 O.2       6 UNK        -0.5000 
     42 CA          3.1076  -17.3327  -41.8925 C.3       6 UNK         0.1400 
     43 CB          4.5022  -16.7020  -42.0113 C.3       6 UNK        -0.1800 
     44 N           2.2934  -16.5481  -40.9641 N.am      6 UNK        -0.5000 
     45 C           1.0526  -16.8715  -40.5713 C.2       5 UNK         0.5000 
     46 O           0.4912  -17.9196  -40.8943 O.2       5 UNK        -0.5000 
     47 CA          0.2927  -15.8435  -39.7101 C.3       5 UNK         0.1400 
     48 CB          0.2111  -16.3226  -38.2531 C.3       5 UNK        -0.1800 
     49 N           0.8647  -14.4924  -39.7347 N.am      5 UNK        -0.5000 
     50 C           0.9244  -13.6823  -40.8019 C.2       4 UNK         0.5000 
     51 O           0.5002  -14.0019  -41.9150 O.2       4 UNK        -0.5000 
     52 CA          1.5458  -12.2842  -40.5683 C.3       4 UNK         0.1400 
     53 CB          2.6488  -12.2852  -39.4847 C.3       4 UNK        -0.1800 
     54 N           2.0487  -11.6354  -41.7857 N.am      4 UNK        -0.5000 
     55 C           2.9953  -12.0918  -42.6174 C.2       3 UNK         0.5000 
     56 O           3.5543  -13.1855  -42.5037 O.2       3 UNK        -0.5000 
     57 CA          3.4384  -11.1262  -43.7324 C.3       3 UNK         0.1400 
     58 CB          4.7227  -10.3886  -43.3224 C.3       3 UNK        -0.1800 
     59 N           3.6849  -11.8516  -44.9767 N.am      3 UNK        -0.5000 
     60 C           2.7196  -12.2172  -45.8265 C.2       2 UNK         0.5000 
     61 O           1.5451  -11.8588  -45.7056 O.2       2 UNK        -0.5000 
     62 CA          3.1407  -13.1462  -46.9857 C.3       2 UNK         0.1400 
     63 CB          3.8214  -14.4270  -46.4664 C.3       2 UNK        -0.1800 
     64 N           1.9868  -13.5278  -47.8025 N.am      2 UNK        -0.5000 
     65 C           1.4906  -12.7964  -48.8066 C.2       1 UNK         0.5000 
     66 O           2.0179  -11.7637  -49.2296 O.2       1 UNK        -0.5000 
     67 C          -2.0524  -22.6342  -47.3601 C.2       11 UNK         0.5000 
     68 O          -2.3343  -23.4189  -48.2690 O.2       11 UNK        -0.5000 
     69 N          -2.1969  -22.9166  -46.0568 N.am      12 UNK        -0.5000 
     70 CA         -2.7260  -24.1725  -45.5263 C.3       12 UNK         0.1400 
     71 CB         -2.9098  -24.0605  -44.0060 C.3       12 UNK        -0.1800 
     72 C          -1.8676  -25.3970  -45.8820 C.2       12 UNK         0.5000 
     73 O          -2.4212  -26.4418  -46.2255 O.2       12 UNK        -0.5000 
     74 N          -0.5382  -25.2403  -45.8175 N.am      13 UNK        -0.5000 
     75 CA          0.4318  -26.2601  -46.2146 C.3       13 UNK         0.1400 
     76 CB          1.8391  -25.8308  -45.7725 C.3       13 UNK        -0.1800 
     77 C           0.4025  -26.5508  -47.7262 C.2       13 UNK         0.5000 
     78 O           0.5469  -27.7087  -48.1206 O.2       13 UNK        -0.5000 
     79 N           0.2143  -25.5018  -48.5386 N.am      14 UNK        -0.5000 
     80 CA          0.1266  -25.5873  -49.9926 C.3       14 UNK         0.1400 
     81 CB          0.3019  -24.1924  -50.6100 C.3       14 UNK        -0.1800 
     82 C          -1.1677  -26.2644  -50.4761 C.2       14 UNK         0.5000 
     83 O          -1.0798  -27.2180  -51.2514 O.2       14 UNK        -0.5000 
     84 N          -2.3336  -25.7838  -50.0152 N.am      15 UNK        -0.5000 
     85 CA         -3.6407  -26.3310  -50.4077 C.3       15 UNK         0.1400 
     86 CB         -3.9426  -26.0111  -51.8891 C.3       15 UNK        -0.1800 
     87 C          -4.8263  -25.8567  -49.5484 C.2       15 UNK         0.5000 
     88 O          -5.8634  -26.5198  -49.5730 O.2       15 UNK        -0.5000 
     89 N          -4.6993  -24.7075  -48.8646 N.am      16 UNK        -0.5000 
     90 CA         -5.7702  -23.9684  -48.1724 C.3       16 UNK         0.1400 
     91 CB         -6.3981  -24.8110  -47.0394 C.3       16 UNK        -0.1800 
     92 C          -6.8419  -23.4081  -49.1388 C.2       16 UNK         0.5000 
     93 O          -7.9693  -23.1401  -48.7212 O.2       16 UNK        -0.5000 
     94 N          -6.4726  -23.2533  -50.4167 N.am      17 UNK        -0.5000 
     95 CA         -7.3637  -22.9560  -51.5393 C.3       17 UNK         0.1400 
     96 CB         -7.1019  -23.9980  -52.6406 C.3       17 UNK        -0.1800 
     97 C          -7.2048  -21.5152  -52.0650 C.2       17 UNK         0.5000 
     98 O          -7.5678  -21.2451  -53.2115 O.2       17 UNK        -0.5000 
     99 N          -6.6646  -20.6149  -51.2301 N.am      18 UNK        -0.5000 
    100 CA        -6.4400  -19.1912  -51.5004 C.3       18 UNK         0.1400 
    101 CB        -7.7831  -18.4315  -51.5729 C.3       18 UNK        -0.1800 
    102 C         -5.5257  -18.9829  -52.7243 C.2       18 UNK         0.5000 
    103 O         -4.3817  -19.4371  -52.6985 O.2       18 UNK        -0.5000 
    104 N         -6.0304  -18.3410  -53.7863 N.am      19 UNK        -0.5000 
    105 CA        -5.3070  -18.0870  -55.0360 C.3       19 UNK         0.1400 
    106 CB        -6.2178  -17.3106  -55.9980 C.3       19 UNK        -0.1800 
    107 C         -4.7635  -19.3602  -55.7149 C.2       19 UNK         0.5000 
    108 O         -3.6846  -19.3153  -56.3058 O.2       19 UNK        -0.5000 
    109 N         -5.4839  -20.4817  -55.5739 N.am      20 UNK        -0.5000 
    110 CA        -5.0644  -21.7920  -56.0720 C.3       20 UNK         0.1400 
    111 CB        -6.2958  -22.6990  -56.2078 C.3       20 UNK        -0.1800 
    112 C         -3.9721  -22.4560  -55.2078 C.2       20 UNK         0.5000 
    113 O         -3.3176  -23.3808  -55.6903 O.2       20 UNK        -0.5000 
    114 N         -3.7758  -21.9823  -53.9674 N.am      21 UNK        -0.5000 
    115 CA        -2.6696  -22.3940  -53.1037 C.3       21 UNK         0.1400 
    116 CB        -3.0398  -22.1679  -51.6275 C.3       21 UNK        -0.1800 
    117 C         -1.3830  -21.6393  -53.4772 C.2       21 UNK         0.5000 
    118 O         -0.3277  -22.2643  -53.5847 O.2       21 UNK        -0.5000 
    119 N         -1.4950  -20.3198  -53.6886 N.am      22 UNK        -0.5000 
    120 CA        -0.3759  -19.4675  -54.1267 C.3       22 UNK         0.1400 
    121 C          0.0303  -19.6835  -55.6115 C.2       22 UNK         0.5000 
    122 N         -0.9035  -19.9252  -56.5229 N.am      22 UNK        -0.7600 
    123 O          1.2122  -19.6340  -55.9410 O.2       22 UNK        -0.5000 
    124 C124       -0.6203  -17.9643  -53.8483 C.3       23 UNK        -0.0398 
    125 S125       -0.8235  -17.6130  -52.0699 S.3       23 UNK        -0.2404 
    126 C126       -2.3549  -16.6357  -52.0834 C.3       23 UNK        -0.0205 
    127 H127        0.4169  -13.2166  -53.4432 H         1 UNK         0.0600 
    128 H128        0.6763  -14.9585  -53.5644 H         1 UNK         0.0600 
    129 H129        2.0600  -13.8630  -53.4776 H         1 UNK         0.0600 
    130 H130       -0.2230  -12.6075  -51.4017 H         1 UNK         0.3000 
    131 H131        0.0015  -14.3239  -49.1289 H         1 UNK         0.0600 
    132 H132       -1.7747  -12.3482  -49.7818 H         1 UNK         0.0800 
    133 H133       -0.7417  -11.3966  -48.7812 H         1 UNK         0.0800 
    134 H134       -4.1867  -13.6292  -47.3286 H         1 UNK         0.0800 
    135 H135       -3.8503  -12.9032  -48.8710 H         1 UNK         0.0800 
    136 H136       -2.4960  -14.3456  -50.6097 H         1 UNK         0.1150 
    137 H137       -3.4635  -18.5007  -50.4828 H         1 UNK         0.1150 
    138 H138       -4.4092  -15.9849  -47.1399 H         1 UNK         0.1150 
    139 H139       -4.6409  -18.3935  -46.9172 H         1 UNK         0.0800 
    140 H140       -5.7496  -18.5330  -48.2553 H         1 UNK         0.0800 
    141 H141       -2.6806  -20.0140  -46.4015 H         1 UNK         0.0800 
    142 H142       -1.9671  -19.1576  -47.7407 H         1 UNK         0.0800 
    143 H143       -1.2082  -21.2690  -48.7734 H         1 UNK         0.0600 
    144 H144       -0.1866  -20.1996  -46.3860 H         1 UNK         0.3000 
    145 H145        2.7085  -22.2765  -46.0187 H         1 UNK         0.0600 
    146 H146        3.2047  -20.4480  -47.6615 H         1 UNK         0.0600 
    147 H147        2.2513  -19.3230  -46.6997 H         1 UNK         0.0600 
    148 H148        3.7246  -20.0271  -46.0369 H         1 UNK         0.0600 
    149 H149        1.7482  -20.1503  -44.4131 H         1 UNK         0.3000 
    150 H150       -0.2029  -22.1783  -42.1400 H         1 UNK         0.0600 
    151 H151        2.1737  -22.1737  -41.4307 H         1 UNK         0.0600 
    152 H152        1.2930  -20.8849  -40.6219 H         1 UNK         0.0600 
    153 H153        2.3630  -20.5121  -41.9716 H         1 UNK         0.0600 
    154 H154        0.1007  -19.3680  -42.2260 H         1 UNK         0.3000 
    155 H155       -2.6952  -18.6182  -44.3346 H         1 UNK         0.0600 
    156 H156       -2.1389  -18.2294  -41.3437 H         1 UNK         0.0600 
    157 H157       -3.2301  -17.2566  -42.3291 H         1 UNK         0.0600 
    158 H158       -3.5849  -18.9516  -42.0349 H         1 UNK         0.0600 
    159 H159       -0.7557  -16.9865  -43.0174 H         1 UNK         0.3000 
    160 H160        1.5329  -16.7349  -45.7604 H         1 UNK         0.0600 
    161 H161       -0.5349  -14.9177  -44.3956 H         1 UNK         0.0600 
    162 H162       -0.2703  -15.1128  -46.1233 H         1 UNK         0.0600 
    163 H163        0.9556  -14.3496  -45.1179 H         1 UNK         0.0600 
    164 H164        1.5535  -15.6695  -43.1042 H         1 UNK         0.3000 
    165 H165        3.2212  -18.3320  -41.4689 H         1 UNK         0.0600 
    166 H166        4.9923  -16.6381  -41.0397 H         1 UNK         0.0600 
    167 H167        5.1444  -17.2984  -42.6607 H         1 UNK         0.0600 
    168 H168        4.4554  -15.6974  -42.4318 H         1 UNK         0.0600 
    169 H169        2.6724  -15.6607  -40.6679 H         1 UNK         0.3000 
    170 H170       -0.7227  -15.7829  -40.1071 H         1 UNK         0.0600 
    171 H171       -0.2409  -17.3137  -38.1915 H         1 UNK         0.0600 
    172 H172        1.1986  -16.3833  -37.7938 H         1 UNK         0.0600 
    173 H173       -0.4006  -15.6515  -37.6498 H         1 UNK         0.0600 
    174 H174        1.2356  -14.1540  -38.8586 H         1 UNK         0.3000 
    175 H175        0.7315  -11.6532  -40.2098 H         1 UNK         0.0600 
    176 H176        3.4467  -12.9910  -39.7195 H         1 UNK         0.0600 
    177 H177        3.1007  -11.2981  -39.3855 H         1 UNK         0.0600 
    178 H178        2.2509  -12.5461  -38.5037 H         1 UNK         0.0600 
    179 H179        1.6317  -10.7387  -41.9920 H         1 UNK         0.3000 
    180 H180        2.6562  -10.3816  -43.8961 H         1 UNK         0.0600 
    181 H181        5.5468  -11.0810  -43.1451 H         1 UNK         0.0600 
    182 H182        4.5695   -9.8196  -42.4045 H         1 UNK         0.0600 
    183 H183        5.0360   -9.6837  -44.0928 H         1 UNK         0.0600 
    184 H184        4.6182  -12.2147  -45.1032 H         1 UNK         0.3000 
    185 H185        3.8585  -12.6055  -47.6061 H         1 UNK         0.0600 
    186 H186        3.2156  -14.9376  -45.7190 H         1 UNK         0.0600 
    187 H187        4.0159  -15.1292  -47.2774 H         1 UNK         0.0600 
    188 H188        4.7828  -14.2034  -46.0031 H         1 UNK         0.0600 
    189 H189        1.4747  -14.3404  -47.4959 H         1 UNK         0.3000 
    190 H190       -1.9535  -22.2106  -45.3656 H         1 UNK         0.3000 
    191 H191       -3.7076  -24.3201  -45.9728 H         1 UNK         0.0600 
    192 H192       -1.9653  -23.8525  -43.5017 H         1 UNK         0.0600 
    193 H193       -3.3096  -24.9860  -43.5899 H         1 UNK         0.0600 
    194 H194       -3.6076  -23.2625  -43.7521 H         1 UNK         0.0600 
    195 H195       -0.1609  -24.3641  -45.4676 H         1 UNK         0.3000 
    196 H196        0.1800  -27.1857  -45.6929 H         1 UNK         0.0600 
    197 H197        2.5819  -26.5802  -46.0484 H         1 UNK         0.0600 
    198 H198        1.8904  -25.7046  -44.6910 H         1 UNK         0.0600 
    199 H199        2.1352  -24.8879  -46.2333 H         1 UNK         0.0600 
    200 H200        0.1657  -24.5713  -48.1359 H         1 UNK         0.3000 
    201 H201        0.9603  -26.2008  -50.3413 H         1 UNK         0.0600 
    202 H202        1.3129  -23.8190  -50.4475 H         1 UNK         0.0600 
    203 H203       -0.3857  -23.4686  -50.1763 H         1 UNK         0.0600 
    204 H204        0.1321  -24.2128  -51.6870 H         1 UNK         0.0600 
    205 H205       -2.3159  -25.0231  -49.3427 H         1 UNK         0.3000 
    206 H206       -3.5951  -27.4159  -50.2906 H         1 UNK         0.0600 
    207 H207       -4.9121  -26.4118  -52.1882 H         1 UNK         0.0600 
    208 H208       -3.9676  -24.9376  -52.0680 H         1 UNK         0.0600 
    209 H209       -3.2056  -26.4442  -52.5643 H         1 UNK         0.0600 
    210 H210       -3.7976  -24.2366  -48.8481 H         1 UNK         0.3000 
    211 H211       -5.2883  -23.1038  -47.7139 H         1 UNK         0.0600 
    212 H212       -7.0859  -25.5623  -47.4286 H         1 UNK         0.0600 
    213 H213       -6.9656  -24.1785  -46.3561 H         1 UNK         0.0600 
    214 H214       -5.6452  -25.3339  -46.4519 H         1 UNK         0.0600 
    215 H215       -5.5182  -23.4739  -50.6548 H         1 UNK         0.3000 
    216 H216       -8.4043  -23.0599  -51.2263 H         1 UNK         0.0600 
    217 H217       -6.1100  -23.8819  -53.0789 H         1 UNK         0.0600 
    218 H218       -7.8352  -23.9120  -53.4429 H         1 UNK         0.0600 
    219 H219       -7.1781  -25.0126  -52.2488 H         1 UNK         0.0600 
    220 H220       -6.3594  -20.9430  -50.3253 H         1 UNK         0.3000 
    221 H221       -5.8930  -18.7987  -50.6459 H         1 UNK         0.0600 
    222 H222       -8.4115  -18.7748  -52.3953 H         1 UNK         0.0600 
    223 H223       -8.3504  -18.5627  -50.6514 H         1 UNK         0.0600 
    224 H224       -7.6231  -17.3597  -51.6972 H         1 UNK         0.0600 
    225 H225       -6.9877  -18.0236  -53.7452 H         1 UNK         0.3000 
    226 H226       -4.4488  -17.4565  -54.7960 H         1 UNK         0.0600 
    227 H227       -6.5299  -16.3597  -55.5656 H         1 UNK         0.0600 
    228 H228       -5.6998  -17.0869  -56.9316 H         1 UNK         0.0600 
    229 H229       -7.1153  -17.8778  -56.2479 H         1 UNK         0.0600 
    230 H230       -6.3357  -20.4543  -55.0267 H         1 UNK         0.3000 
    231 H231       -4.6414  -21.6611  -57.0704 H         1 UNK         0.0600 
    232 H232       -6.0180  -23.6902  -56.5687 H         1 UNK         0.0600 
    233 H233       -7.0121  -22.2844  -56.9171 H         1 UNK         0.0600 
    234 H234       -6.8071  -22.8267  -55.2561 H         1 UNK         0.0600 
    235 H235       -4.3058  -21.1761  -53.6562 H         1 UNK         0.3000 
    236 H236       -2.4901  -23.4621  -53.2429 H         1 UNK         0.0600 
    237 H237       -4.0343  -22.5461  -51.4050 H         1 UNK         0.0600 
    238 H238       -2.3442  -22.6872  -50.9719 H         1 UNK         0.0600 
    239 H239       -3.0146  -21.1149  -51.3477 H         1 UNK         0.0600 
    240 H240       -2.3908  -19.8716  -53.5431 H         1 UNK         0.3000 
    241 H241        0.4946  -19.7560  -53.5332 H         1 UNK         0.0600 
    242 H242       -1.8930  -19.8667  -56.2969 H         1 UNK         0.3800 
    243 H243       -0.6268  -20.0693  -57.4806 H         1 UNK         0.3800 
    244 H244        0.2244  -17.3695  -54.2002 H         1 UNK         0.0800 
    245 H245       -1.4913  -17.6150  -54.4054 H         1 UNK         0.0800 
    246 H246       -3.1058  -17.1338  -52.6950 H         1 UNK         0.0800 
    247 H247       -2.1585  -15.6726  -52.5570 H         1 UNK         0.0800 
@<TRIPOS>BOND
     1    1    2 1    
     2    1  127 1    
     3    1  128 1    
     4    1  129 1    
     5    2    3 2    
     6    2    4 am   BACKBONE|DICT|INTERRES
     7    4    5 1    
     8    4  130 1    
     9    5    6 1    
    10    5   65 1    
    11    5  131 1    
    12    6    7 1    
    13    6  132 1    
    14    6  133 1    
    15    7    8 1    
    16    8    9 1    
    17    8  134 1    
    18    8  135 1    
    19    9   10 ar   
    20    9   14 ar   
    21   10   11 ar   
    22   10  136 1    
    23   11   12 ar   
    24   11  126 1    
    25   12   13 ar   
    26   12  137 1    
    27   13   14 ar   
    28   13   15 1    
    29   14  138 1    
    30   15   16 1    
    31   15  139 1    
    32   15  140 1    
    33   16   17 1    
    34   17   18 1    
    35   17  141 1    
    36   17  142 1    
    37   18   19 1    
    38   18   67 1    
    39   18  143 1    
    40   19   20 am   BACKBONE|DICT|INTERRES
    41   19  144 1    
    42   20   21 2    
    43   20   22 1    
    44   22   23 1    
    45   22   24 1    
    46   22  145 1    
    47   23  146 1    
    48   23  147 1    
    49   23  148 1    
    50   24   25 am   BACKBONE|DICT|INTERRES
    51   24  149 1    
    52   25   26 2    
    53   25   27 1    
    54   27   28 1    
    55   27   29 1    
    56   27  150 1    
    57   28  151 1    
    58   28  152 1    
    59   28  153 1    
    60   29   30 am   BACKBONE|DICT|INTERRES
    61   29  154 1    
    62   30   31 2    
    63   30   32 1    
    64   32   33 1    
    65   32   34 1    
    66   32  155 1    
    67   33  156 1    
    68   33  157 1    
    69   33  158 1    
    70   34   35 am   BACKBONE|DICT|INTERRES
    71   34  159 1    
    72   35   36 2    
    73   35   37 1    
    74   37   38 1    
    75   37   39 1    
    76   37  160 1    
    77   38  161 1    
    78   38  162 1    
    79   38  163 1    
    80   39   40 am   BACKBONE|DICT|INTERRES
    81   39  164 1    
    82   40   41 2    
    83   40   42 1    
    84   42   43 1    
    85   42   44 1    
    86   42  165 1    
    87   43  166 1    
    88   43  167 1    
    89   43  168 1    
    90   44   45 am   BACKBONE|DICT|INTERRES
    91   44  169 1    
    92   45   46 2    
    93   45   47 1    
    94   47   48 1    
    95   47   49 1    
    96   47  170 1    
    97   48  171 1    
    98   48  172 1    
    99   48  173 1    
   100   49   50 am   BACKBONE|DICT|INTERRES
   101   49  174 1    
   102   50   51 2    
   103   50   52 1    
   104   52   53 1    
   105   52   54 1    
   106   52  175 1    
   107   53  176 1    
   108   53  177 1    
   109   53  178 1    
   110   54   55 am   BACKBONE|DICT|INTERRES
   111   54  179 1    
   112   55   56 2    
   113   55   57 1    
   114   57   58 1    
   115   57   59 1    
   116   57  180 1    
   117   58  181 1    
   118   58  182 1    
   119   58  183 1    
   120   59   60 am   BACKBONE|DICT|INTERRES
   121   59  184 1    
   122   60   61 2    
   123   60   62 1    
   124   62   63 1    
   125   62   64 1    
   126   62  185 1    
   127   63  186 1    
   128   63  187 1    
   129   63  188 1    
   130   64   65 am   BACKBONE|DICT|INTERRES
   131   64  189 1    
   132   65   66 2    
   133   67   68 2    
   134   67   69 am   BACKBONE|DICT|INTERRES
   135   69   70 1    
   136   69  190 1    
   137   70   71 1    
   138   70   72 1    
   139   70  191 1    
   140   71  192 1    
   141   71  193 1    
   142   71  194 1    
   143   72   73 2    
   144   72   74 am   BACKBONE|DICT|INTERRES
   145   74   75 1    
   146   74  195 1    
   147   75   76 1    
   148   75   77 1    
   149   75  196 1    
   150   76  197 1    
   151   76  198 1    
   152   76  199 1    
   153   77   78 2    
   154   77   79 am   BACKBONE|DICT|INTERRES
   155   79   80 1    
   156   79  200 1    
   157   80   81 1    
   158   80   82 1    
   159   80  201 1    
   160   81  202 1    
   161   81  203 1    
   162   81  204 1    
   163   82   83 2    
   164   82   84 am   BACKBONE|DICT|INTERRES
   165   84   85 1    
   166   84  205 1    
   167   85   86 1    
   168   85   87 1    
   169   85  206 1    
   170   86  207 1    
   171   86  208 1    
   172   86  209 1    
   173   87   88 2    
   174   87   89 am   BACKBONE|DICT|INTERRES
   175   89   90 1    
   176   89  210 1    
   177   90   91 1    
   178   90   92 1    
   179   90  211 1    
   180   91  212 1    
   181   91  213 1    
   182   91  214 1    
   183   92   93 2    
   184   92   94 am   BACKBONE|DICT|INTERRES
   185   94   95 1    
   186   94  215 1    
   187   95   96 1    
   188   95   97 1    
   189   95  216 1    
   190   96  217 1    
   191   96  218 1    
   192   96  219 1    
   193   97   98 2    
   194   97   99 am   BACKBONE|DICT|INTERRES
   195   99  100 1    
   196   99  220 1    
   197  100  101 1    
   198  100  102 1    
   199  100  221 1    
   200  101  222 1    
   201  101  223 1    
   202  101  224 1    
   203  102  103 2    
   204  102  104 am   BACKBONE|DICT|INTERRES
   205  104  105 1    
   206  104  225 1    
   207  105  106 1    
   208  105  107 1    
   209  105  226 1    
   210  106  227 1    
   211  106  228 1    
   212  106  229 1    
   213  107  108 2    
   214  107  109 am   BACKBONE|DICT|INTERRES
   215  109  110 1    
   216  109  230 1    
   217  110  111 1    
   218  110  112 1    
   219  110  231 1    
   220  111  232 1    
   221  111  233 1    
   222  111  234 1    
   223  112  113 2    
   224  112  114 am   BACKBONE|DICT|INTERRES
   225  114  115 1    
   226  114  235 1    
   227  115  116 1    
   228  115  117 1    
   229  115  236 1    
   230  116  237 1    
   231  116  238 1    
   232  116  239 1    
   233  117  118 2    
   234  117  119 am   BACKBONE|DICT|INTERRES
   235  119  120 1    
   236  119  240 1    
   237  120  121 1    
   238  120  124 1    
   239  120  241 1    
   240  121  122 am   BACKBONE|DICT|INTERRES
   241  121  123 2    
   242  122  242 1    
   243  122  243 1    
   244  124  125 1    
   245  124  244 1    
   246  124  245 1    
   247  125  126 1    
   248  126  246 1    
   249  126  247 1    
@<TRIPOS>SUBSTRUCTURE
     1 UNK         1 GROUP             0       ****    0 ROOT    
