@<TRIPOS>MOLECULE
3R540
247   249    1
SMALL
USER_CHARGES


@<TRIPOS>ATOM
      1 CA         -3.0646   -8.5261  -41.5447 C.3       0 UNK        -0.1800 
      2 C          -2.3408   -9.3721  -42.5830 C.2       0 UNK         0.5000 
      3 O          -1.3278   -8.9357  -43.1309 O.2       0 UNK        -0.5000 
      4 N          -2.8612  -10.5732  -42.8615 N.am      1 UNK        -0.5000 
      5 CA         -2.2794  -11.5460  -43.7939 C.3       1 UNK         0.1400 
      6 C6         -3.3081  -12.6307  -44.1968 C.3       23 UNK        -0.0398 
      7 S7         -4.7496  -11.9351  -45.0722 S.3       23 UNK        -0.2404 
      8 C8         -4.2276  -12.0744  -46.8186 C.3       23 UNK        -0.0205 
      9 C9         -4.0019  -13.5007  -47.3216 C.ar      23 UNK        -0.0193 
     10 C10        -3.0700  -13.7223  -48.3419 C.ar      23 UNK        -0.1150 
     11 C11        -2.8570  -15.0092  -48.8444 C.ar      23 UNK        -0.0193 
     12 C12        -3.5696  -16.0847  -48.3120 C.ar      23 UNK        -0.1150 
     13 C13        -4.5046  -15.8807  -47.2967 C.ar      23 UNK        -0.0193 
     14 C14        -4.7255  -14.5881  -46.8145 C.ar      23 UNK        -0.1150 
     15 C15        -5.2890  -17.0537  -46.7325 C.3       23 UNK        -0.0205 
     16 S16        -4.6462  -17.5867  -45.1163 S.3       23 UNK        -0.2404 
     17 C17        -3.0545  -18.3618  -45.5709 C.3       23 UNK        -0.0398 
     18 CA         -3.1637  -19.8568  -45.9614 C.3       11 UNK         0.1400 
     19 N          -1.8985  -20.3682  -46.5057 N.am      11 UNK        -0.5000 
     20 C          -1.6864  -21.6027  -46.9860 C.2       10 UNK         0.5000 
     21 O          -2.5560  -22.4699  -47.0445 O.2       10 UNK        -0.5000 
     22 CA         -0.2583  -21.9549  -47.4334 C.3       10 UNK         0.1400 
     23 CB          0.0565  -21.3453  -48.8060 C.3       10 UNK        -0.1800 
     24 N           0.7391  -21.5354  -46.4511 N.am      10 UNK        -0.5000 
     25 C           0.8431  -22.0541  -45.2186 C.2       9 UNK         0.5000 
     26 O           0.1722  -23.0060  -44.8195 O.2       9 UNK        -0.5000 
     27 CA          1.8282  -21.3680  -44.2546 C.3       9 UNK         0.1400 
     28 CB          3.2566  -21.8893  -44.4702 C.3       9 UNK        -0.1800 
     29 N           1.8120  -19.9090  -44.3740 N.am      9 UNK        -0.5000 
     30 C           0.7517  -19.1341  -44.1032 C.2       8 UNK         0.5000 
     31 O          -0.3174  -19.5654  -43.6704 O.2       8 UNK        -0.5000 
     32 CA          0.8903  -17.6343  -44.4236 C.3       8 UNK         0.1400 
     33 CB          1.6554  -16.8972  -43.3145 C.3       8 UNK        -0.1800 
     34 N           1.5411  -17.4009  -45.7135 N.am      8 UNK        -0.5000 
     35 C           1.0173  -17.7448  -46.8984 C.2       7 UNK         0.5000 
     36 O          -0.0937  -18.2533  -47.0287 O.2       7 UNK        -0.5000 
     37 CA          1.9023  -17.5397  -48.1397 C.3       7 UNK         0.1400 
     38 CB          1.8060  -16.1004  -48.6674 C.3       7 UNK        -0.1800 
     39 N           3.2992  -17.8789  -47.8722 N.am      7 UNK        -0.5000 
     40 C           3.7428  -19.1249  -47.6524 C.2       6 UNK         0.5000 
     41 O           3.0254  -20.1235  -47.7015 O.2       6 UNK        -0.5000 
     42 CA          5.2271  -19.2714  -47.2703 C.3       6 UNK         0.1400 
     43 CB          6.1080  -19.3121  -48.5276 C.3       6 UNK        -0.1800 
     44 N           5.6860  -18.1947  -46.3909 N.am      6 UNK        -0.5000 
     45 C           5.2616  -18.0112  -45.1321 C.2       5 UNK         0.5000 
     46 O           4.4748  -18.7649  -44.5610 O.2       5 UNK        -0.5000 
     47 CA          5.7542  -16.7395  -44.4152 C.3       5 UNK         0.1400 
     48 CB          7.1050  -16.9931  -43.7301 C.3       5 UNK        -0.1800 
     49 N           5.8704  -15.5870  -45.3148 N.am      5 UNK        -0.5000 
     50 C           4.8391  -15.0291  -45.9612 C.2       4 UNK         0.5000 
     51 O           3.6718  -15.4138  -45.8462 O.2       4 UNK        -0.5000 
     52 CA          5.1746  -13.8997  -46.9429 C.3       4 UNK         0.1400 
     53 CB          5.8049  -14.4670  -48.2291 C.3       4 UNK        -0.1800 
     54 N           3.9460  -13.1870  -47.2709 N.am      4 UNK        -0.5000 
     55 C           3.8636  -11.9397  -47.7451 C.2       3 UNK         0.5000 
     56 O           4.8468  -11.2359  -47.9811 O.2       3 UNK        -0.5000 
     57 CA          2.4519  -11.3747  -48.0132 C.3       3 UNK         0.1400 
     58 CB          2.1466  -11.4041  -49.5194 C.3       3 UNK        -0.1800 
     59 N           1.3659  -12.0634  -47.3068 N.am      3 UNK        -0.5000 
     60 C           1.1887  -12.0693  -45.9793 C.2       2 UNK         0.5000 
     61 O           1.9568  -11.5183  -45.1871 O.2       2 UNK        -0.5000 
     62 CA         -0.0573  -12.8152  -45.4652 C.3       2 UNK         0.1400 
     63 CB         -0.0363  -14.2916  -45.8937 C.3       2 UNK        -0.1800 
     64 N          -0.0952  -12.7623  -44.0013 N.am      2 UNK        -0.5000 
     65 C          -1.0094  -12.2039  -43.1968 C.2       1 UNK         0.5000 
     66 O          -0.8692  -12.2371  -41.9724 O.2       1 UNK        -0.5000 
     67 C          -3.6933  -20.7223  -44.7978 C.2       11 UNK         0.5000 
     68 O          -4.8769  -21.0636  -44.7864 O.2       11 UNK        -0.5000 
     69 N          -2.7961  -21.1344  -43.8908 N.am      12 UNK        -0.5000 
     70 CA         -3.0813  -22.0527  -42.7836 C.3       12 UNK         0.1400 
     71 CB         -1.8389  -22.1523  -41.8856 C.3       12 UNK        -0.1800 
     72 C          -3.5479  -23.4573  -43.2287 C.2       12 UNK         0.5000 
     73 O          -4.1868  -24.1563  -42.4415 O.2       12 UNK        -0.5000 
     74 N          -3.2485  -23.8311  -44.4789 N.am      13 UNK        -0.5000 
     75 CA         -3.6775  -25.0620  -45.1382 C.3       13 UNK         0.1400 
     76 CB         -2.4387  -25.7318  -45.7597 C.3       13 UNK        -0.1800 
     77 C          -4.7720  -24.7968  -46.1956 C.2       13 UNK         0.5000 
     78 O          -4.9817  -25.6450  -47.0624 O.2       13 UNK        -0.5000 
     79 N          -5.4383  -23.6317  -46.1351 N.am      14 UNK        -0.5000 
     80 CA         -6.4962  -23.1659  -47.0427 C.3       14 UNK         0.1400 
     81 CB         -7.7575  -24.0459  -46.9134 C.3       14 UNK        -0.1800 
     82 C          -6.0056  -23.0249  -48.4988 C.2       14 UNK         0.5000 
     83 O          -6.6228  -23.5578  -49.4226 O.2       14 UNK        -0.5000 
     84 N          -4.8617  -22.3456  -48.6599 N.am      15 UNK        -0.5000 
     85 CA         -4.0842  -22.1878  -49.8944 C.3       15 UNK         0.1400 
     86 CB         -4.8455  -21.3462  -50.9385 C.3       15 UNK        -0.1800 
     87 C          -3.5977  -23.5489  -50.4295 C.2       15 UNK         0.5000 
     88 O          -3.6896  -23.8131  -51.6290 O.2       15 UNK        -0.5000 
     89 N          -3.1259  -24.4027  -49.5077 N.am      16 UNK        -0.5000 
     90 CA         -2.7251  -25.8001  -49.7191 C.3       16 UNK         0.1400 
     91 CB         -1.4147  -25.8669  -50.5295 C.3       16 UNK        -0.1800 
     92 C          -3.8596  -26.6470  -50.3379 C.2       16 UNK         0.5000 
     93 O          -3.6376  -27.3601  -51.3163 O.2       16 UNK        -0.5000 
     94 N          -5.0652  -26.5118  -49.7673 N.am      17 UNK        -0.5000 
     95 CA         -6.3438  -27.0427  -50.2501 C.3       17 UNK         0.1400 
     96 CB         -6.3752  -28.5819  -50.1477 C.3       17 UNK        -0.1800 
     97 C          -6.7008  -26.5122  -51.6565 C.2       17 UNK         0.5000 
     98 O          -7.0581  -27.2898  -52.5437 O.2       17 UNK        -0.5000 
     99 N          -6.5872  -25.1853  -51.8181 N.am      18 UNK        -0.5000 
    100 CA        -6.8338  -24.4025  -53.0334 C.3       18 UNK         0.1400 
    101 CB        -8.3439  -24.3652  -53.3471 C.3       18 UNK        -0.1800 
    102 C         -5.9727  -24.8429  -54.2381 C.2       18 UNK         0.5000 
    103 O         -6.4927  -24.9901  -55.3466 O.2       18 UNK        -0.5000 
    104 N         -4.6722  -25.0482  -53.9964 N.am      19 UNK        -0.5000 
    105 CA        -3.6942  -25.4843  -54.9960 C.3       19 UNK         0.1400 
    106 CB        -3.2499  -26.9192  -54.6733 C.3       19 UNK        -0.1800 
    107 C         -2.4698  -24.5563  -55.0837 C.2       19 UNK         0.5000 
    108 O         -1.8065  -24.5495  -56.1225 O.2       19 UNK        -0.5000 
    109 N         -2.1685  -23.8008  -54.0186 N.am      20 UNK        -0.5000 
    110 CA        -1.0504  -22.8594  -53.9738 C.3       20 UNK         0.1400 
    111 CB        -0.7261  -22.5239  -52.5082 C.3       20 UNK        -0.1800 
    112 C         -1.3643  -21.5640  -54.7393 C.2       20 UNK         0.5000 
    113 O         -2.5282  -21.1652  -54.8411 O.2       20 UNK        -0.5000 
    114 N         -0.3045  -20.8822  -55.1905 N.am      21 UNK        -0.5000 
    115 CA        -0.3454  -19.5071  -55.6875 C.3       21 UNK         0.1400 
    116 CB         0.8987  -19.2512  -56.5563 C.3       21 UNK        -0.1800 
    117 C         -0.4375  -18.5471  -54.4859 C.2       21 UNK         0.5000 
    118 O          0.5713  -17.9803  -54.0608 O.2       21 UNK        -0.5000 
    119 N         -1.6365  -18.4721  -53.8973 N.am      22 UNK        -0.5000 
    120 CA        -1.9632  -17.8350  -52.6113 C.3       22 UNK         0.1400 
    121 C         -1.4078  -18.6168  -51.3852 C.2       22 UNK         0.5000 
    122 N         -0.1270  -18.9622  -51.3694 N.am      22 UNK        -0.7600 
    123 O         -2.1466  -18.9318  -50.4580 O.2       22 UNK        -0.5000 
    124 C124       -1.5911  -16.3250  -52.5634 C.3       23 UNK        -0.0398 
    125 S125       -2.7621  -15.3499  -51.5652 S.3       23 UNK        -0.2404 
    126 C126       -1.8795  -15.2530  -49.9787 C.3       23 UNK        -0.0205 
    127 H127       -3.9492   -9.0308  -41.1554 H         1 UNK         0.0600 
    128 H128       -3.3795   -7.5798  -41.9846 H         1 UNK         0.0600 
    129 H129       -2.4005   -8.3103  -40.7077 H         1 UNK         0.0600 
    130 H130       -3.6878  -10.8809  -42.3703 H         1 UNK         0.3000 
    131 H131       -1.9957  -10.9801  -44.6819 H         1 UNK         0.0600 
    132 H132       -2.8514  -13.3982  -44.8223 H         1 UNK         0.0800 
    133 H133       -3.6723  -13.1549  -43.3115 H         1 UNK         0.0800 
    134 H134       -4.9921  -11.6110  -47.4433 H         1 UNK         0.0800 
    135 H135       -3.3214  -11.4818  -46.9528 H         1 UNK         0.0800 
    136 H136       -2.5220  -12.8896  -48.7600 H         1 UNK         0.1150 
    137 H137       -3.4028  -17.0801  -48.7014 H         1 UNK         0.1150 
    138 H138       -5.4624  -14.4384  -46.0386 H         1 UNK         0.1150 
    139 H139       -6.3345  -16.7645  -46.6166 H         1 UNK         0.0800 
    140 H140       -5.2824  -17.8959  -47.4262 H         1 UNK         0.0800 
    141 H141       -2.3736  -18.2394  -44.7286 H         1 UNK         0.0800 
    142 H142       -2.6093  -17.7951  -46.3873 H         1 UNK         0.0800 
    143 H143       -3.8914  -19.9324  -46.7716 H         1 UNK         0.0600 
    144 H144       -1.1347  -19.6969  -46.5521 H         1 UNK         0.3000 
    145 H145       -0.1992  -23.0413  -47.5287 H         1 UNK         0.0600 
    146 H146        1.0470  -21.6419  -49.1516 H         1 UNK         0.0600 
    147 H147       -0.6633  -21.6770  -49.5548 H         1 UNK         0.0600 
    148 H148        0.0223  -20.2572  -48.7760 H         1 UNK         0.0600 
    149 H149        1.3772  -20.7976  -46.7302 H         1 UNK         0.3000 
    150 H150        1.5244  -21.6207  -43.2366 H         1 UNK         0.0600 
    151 H151        3.2974  -22.9735  -44.3599 H         1 UNK         0.0600 
    152 H152        3.9460  -21.4617  -43.7421 H         1 UNK         0.0600 
    153 H153        3.6284  -21.6458  -45.4656 H         1 UNK         0.0600 
    154 H154        2.6782  -19.4672  -44.6691 H         1 UNK         0.3000 
    155 H155       -0.1144  -17.2105  -44.4763 H         1 UNK         0.0600 
    156 H156        1.1524  -17.0121  -42.3537 H         1 UNK         0.0600 
    157 H157        1.7220  -15.8291  -43.5213 H         1 UNK         0.0600 
    158 H158        2.6697  -17.2784  -43.2004 H         1 UNK         0.0600 
    159 H159        2.4412  -16.9320  -45.6967 H         1 UNK         0.3000 
    160 H160        1.5351  -18.2070  -48.9219 H         1 UNK         0.0600 
    161 H161        2.1540  -15.3722  -47.9377 H         1 UNK         0.0600 
    162 H162        0.7759  -15.8457  -48.9096 H         1 UNK         0.0600 
    163 H163        2.3940  -15.9725  -49.5764 H         1 UNK         0.0600 
    164 H164        3.9418  -17.1097  -47.7647 H         1 UNK         0.3000 
    165 H165        5.3435  -20.2186  -46.7395 H         1 UNK         0.0600 
    166 H166        7.1526  -19.4896  -48.2712 H         1 UNK         0.0600 
    167 H167        5.7972  -20.1169  -49.1952 H         1 UNK         0.0600 
    168 H168        6.0537  -18.3792  -49.0902 H         1 UNK         0.0600 
    169 H169        6.3395  -17.5320  -46.7806 H         1 UNK         0.3000 
    170 H170        5.0222  -16.4904  -43.6442 H         1 UNK         0.0600 
    171 H171        7.0400  -17.8355  -43.0400 H         1 UNK         0.0600 
    172 H172        7.8888  -17.2209  -44.4535 H         1 UNK         0.0600 
    173 H173        7.4229  -16.1253  -43.1518 H         1 UNK         0.0600 
    174 H174        6.8001  -15.2199  -45.4598 H         1 UNK         0.3000 
    175 H175        5.8723  -13.2162  -46.4547 H         1 UNK         0.0600 
    176 H176        5.1244  -15.1462  -48.7441 H         1 UNK         0.0600 
    177 H177        6.0679  -13.6705  -48.9253 H         1 UNK         0.0600 
    178 H178        6.7211  -15.0177  -48.0132 H         1 UNK         0.0600 
    179 H179        3.1005  -13.6879  -47.0331 H         1 UNK         0.3000 
    180 H180        2.4551  -10.3328  -47.6859 H         1 UNK         0.0600 
    181 H181        2.1075  -12.4252  -49.9013 H         1 UNK         0.0600 
    182 H182        2.9125  -10.8717  -50.0852 H         1 UNK         0.0600 
    183 H183        1.1924  -10.9249  -49.7395 H         1 UNK         0.0600 
    184 H184        0.6928  -12.5355  -47.8920 H         1 UNK         0.3000 
    185 H185       -0.9276  -12.3477  -45.9219 H         1 UNK         0.0600 
    186 H186        0.8992  -14.7692  -45.6058 H         1 UNK         0.0600 
    187 H187       -0.1443  -14.3973  -46.9732 H         1 UNK         0.0600 
    188 H188       -0.8531  -14.8524  -45.4388 H         1 UNK         0.0600 
    189 H189        0.7450  -13.1121  -43.5645 H         1 UNK         0.3000 
    190 H190       -1.8461  -20.7779  -43.9504 H         1 UNK         0.3000 
    191 H191       -3.8911  -21.6157  -42.1961 H         1 UNK         0.0600 
    192 H192       -0.9884  -22.5732  -42.4219 H         1 UNK         0.0600 
    193 H193       -1.5446  -21.1726  -41.5084 H         1 UNK         0.0600 
    194 H194       -2.0302  -22.7896  -41.0213 H         1 UNK         0.0600 
    195 H195       -2.7355  -23.1844  -45.0667 H         1 UNK         0.3000 
    196 H196       -4.1049  -25.7537  -44.4101 H         1 UNK         0.0600 
    197 H197       -1.6789  -25.9272  -45.0028 H         1 UNK         0.0600 
    198 H198       -1.9850  -25.1060  -46.5286 H         1 UNK         0.0600 
    199 H199       -2.6920  -26.6896  -46.2156 H         1 UNK         0.0600 
    200 H200       -5.1706  -22.9658  -45.4177 H         1 UNK         0.3000 
    201 H201       -6.7632  -22.1610  -46.7124 H         1 UNK         0.0600 
    202 H202       -8.5803  -23.6342  -47.4990 H         1 UNK         0.0600 
    203 H203       -8.0932  -24.1028  -45.8781 H         1 UNK         0.0600 
    204 H204       -7.5849  -25.0630  -47.2664 H         1 UNK         0.0600 
    205 H205       -4.3698  -22.0650  -47.8196 H         1 UNK         0.3000 
    206 H206       -3.1860  -21.6286  -49.6311 H         1 UNK         0.0600 
    207 H207       -5.7740  -21.8211  -51.2514 H         1 UNK         0.0600 
    208 H208       -4.2383  -21.1879  -51.8310 H         1 UNK         0.0600 
    209 H209       -5.0915  -20.3623  -50.5394 H         1 UNK         0.0600 
    210 H210       -3.1074  -24.0796  -48.5486 H         1 UNK         0.3000 
    211 H211       -2.5279  -26.2224  -48.7337 H         1 UNK         0.0600 
    212 H212       -0.6400  -25.2452  -50.0808 H         1 UNK         0.0600 
    213 H213       -1.0324  -26.8875  -50.5658 H         1 UNK         0.0600 
    214 H214       -1.5588  -25.5383  -51.5590 H         1 UNK         0.0600 
    215 H215       -5.1209  -25.9572  -48.9161 H         1 UNK         0.3000 
    216 H216       -7.1069  -26.6533  -49.5744 H         1 UNK         0.0600 
    217 H217       -7.3657  -28.9676  -50.3912 H         1 UNK         0.0600 
    218 H218       -5.6659  -29.0506  -50.8303 H         1 UNK         0.0600 
    219 H219       -6.1375  -28.9135  -49.1369 H         1 UNK         0.0600 
    220 H220       -6.3313  -24.6374  -51.0008 H         1 UNK         0.3000 
    221 H221       -6.5245  -23.3827  -52.8057 H         1 UNK         0.0600 
    222 H222       -8.5550  -23.6913  -54.1781 H         1 UNK         0.0600 
    223 H223       -8.7255  -25.3501  -53.6181 H         1 UNK         0.0600 
    224 H224       -8.9144  -24.0087  -52.4893 H         1 UNK         0.0600 
    225 H225       -4.3251  -24.8664  -53.0584 H         1 UNK         0.3000 
    226 H226       -4.1474  -25.4900  -55.9892 H         1 UNK         0.0600 
    227 H227       -4.1053  -27.5896  -54.5872 H         1 UNK         0.0600 
    228 H228       -2.6026  -27.3130  -55.4578 H         1 UNK         0.0600 
    229 H229       -2.6924  -26.9639  -53.7376 H         1 UNK         0.0600 
    230 H230       -2.7734  -23.8138  -53.2020 H         1 UNK         0.3000 
    231 H231       -0.1748  -23.3333  -54.4227 H         1 UNK         0.0600 
    232 H232        0.1479  -21.8752  -52.4384 H         1 UNK         0.0600 
    233 H233       -0.5053  -23.4210  -51.9319 H         1 UNK         0.0600 
    234 H234       -1.5523  -22.0032  -52.0230 H         1 UNK         0.0600 
    235 H235        0.6174  -21.2659  -55.0395 H         1 UNK         0.3000 
    236 H236       -1.2301  -19.3663  -56.3125 H         1 UNK         0.0600 
    237 H237        0.9159  -19.9134  -57.4220 H         1 UNK         0.0600 
    238 H238        0.9074  -18.2268  -56.9306 H         1 UNK         0.0600 
    239 H239        1.8236  -19.4057  -55.9991 H         1 UNK         0.0600 
    240 H240       -2.3656  -19.0649  -54.2767 H         1 UNK         0.3000 
    241 H241       -3.0500  -17.9137  -52.5530 H         1 UNK         0.0600 
    242 H242        0.2406  -19.4872  -50.5955 H         1 UNK         0.3800 
    243 H243        0.4670  -18.6996  -52.1473 H         1 UNK         0.3800 
    244 H244       -0.5672  -16.1668  -52.2195 H         1 UNK         0.0800 
    245 H245       -1.6282  -15.9036  -53.5687 H         1 UNK         0.0800 
    246 H246       -1.1268  -14.4646  -50.0245 H         1 UNK         0.0800 
    247 H247       -1.3480  -16.1862  -49.7908 H         1 UNK         0.0800 
@<TRIPOS>BOND
     1    1    2 1    
     2    1  127 1    
     3    1  128 1    
     4    1  129 1    
     5    2    3 2    
     6    2    4 am   BACKBONE|DICT|INTERRES
     7    4    5 1    
     8    4  130 1    
     9    5    6 1    
    10    5   65 1    
    11    5  131 1    
    12    6    7 1    
    13    6  132 1    
    14    6  133 1    
    15    7    8 1    
    16    8    9 1    
    17    8  134 1    
    18    8  135 1    
    19    9   10 ar   
    20    9   14 ar   
    21   10   11 ar   
    22   10  136 1    
    23   11   12 ar   
    24   11  126 1    
    25   12   13 ar   
    26   12  137 1    
    27   13   14 ar   
    28   13   15 1    
    29   14  138 1    
    30   15   16 1    
    31   15  139 1    
    32   15  140 1    
    33   16   17 1    
    34   17   18 1    
    35   17  141 1    
    36   17  142 1    
    37   18   19 1    
    38   18   67 1    
    39   18  143 1    
    40   19   20 am   BACKBONE|DICT|INTERRES
    41   19  144 1    
    42   20   21 2    
    43   20   22 1    
    44   22   23 1    
    45   22   24 1    
    46   22  145 1    
    47   23  146 1    
    48   23  147 1    
    49   23  148 1    
    50   24   25 am   BACKBONE|DICT|INTERRES
    51   24  149 1    
    52   25   26 2    
    53   25   27 1    
    54   27   28 1    
    55   27   29 1    
    56   27  150 1    
    57   28  151 1    
    58   28  152 1    
    59   28  153 1    
    60   29   30 am   BACKBONE|DICT|INTERRES
    61   29  154 1    
    62   30   31 2    
    63   30   32 1    
    64   32   33 1    
    65   32   34 1    
    66   32  155 1    
    67   33  156 1    
    68   33  157 1    
    69   33  158 1    
    70   34   35 am   BACKBONE|DICT|INTERRES
    71   34  159 1    
    72   35   36 2    
    73   35   37 1    
    74   37   38 1    
    75   37   39 1    
    76   37  160 1    
    77   38  161 1    
    78   38  162 1    
    79   38  163 1    
    80   39   40 am   BACKBONE|DICT|INTERRES
    81   39  164 1    
    82   40   41 2    
    83   40   42 1    
    84   42   43 1    
    85   42   44 1    
    86   42  165 1    
    87   43  166 1    
    88   43  167 1    
    89   43  168 1    
    90   44   45 am   BACKBONE|DICT|INTERRES
    91   44  169 1    
    92   45   46 2    
    93   45   47 1    
    94   47   48 1    
    95   47   49 1    
    96   47  170 1    
    97   48  171 1    
    98   48  172 1    
    99   48  173 1    
   100   49   50 am   BACKBONE|DICT|INTERRES
   101   49  174 1    
   102   50   51 2    
   103   50   52 1    
   104   52   53 1    
   105   52   54 1    
   106   52  175 1    
   107   53  176 1    
   108   53  177 1    
   109   53  178 1    
   110   54   55 am   BACKBONE|DICT|INTERRES
   111   54  179 1    
   112   55   56 2    
   113   55   57 1    
   114   57   58 1    
   115   57   59 1    
   116   57  180 1    
   117   58  181 1    
   118   58  182 1    
   119   58  183 1    
   120   59   60 am   BACKBONE|DICT|INTERRES
   121   59  184 1    
   122   60   61 2    
   123   60   62 1    
   124   62   63 1    
   125   62   64 1    
   126   62  185 1    
   127   63  186 1    
   128   63  187 1    
   129   63  188 1    
   130   64   65 am   BACKBONE|DICT|INTERRES
   131   64  189 1    
   132   65   66 2    
   133   67   68 2    
   134   67   69 am   BACKBONE|DICT|INTERRES
   135   69   70 1    
   136   69  190 1    
   137   70   71 1    
   138   70   72 1    
   139   70  191 1    
   140   71  192 1    
   141   71  193 1    
   142   71  194 1    
   143   72   73 2    
   144   72   74 am   BACKBONE|DICT|INTERRES
   145   74   75 1    
   146   74  195 1    
   147   75   76 1    
   148   75   77 1    
   149   75  196 1    
   150   76  197 1    
   151   76  198 1    
   152   76  199 1    
   153   77   78 2    
   154   77   79 am   BACKBONE|DICT|INTERRES
   155   79   80 1    
   156   79  200 1    
   157   80   81 1    
   158   80   82 1    
   159   80  201 1    
   160   81  202 1    
   161   81  203 1    
   162   81  204 1    
   163   82   83 2    
   164   82   84 am   BACKBONE|DICT|INTERRES
   165   84   85 1    
   166   84  205 1    
   167   85   86 1    
   168   85   87 1    
   169   85  206 1    
   170   86  207 1    
   171   86  208 1    
   172   86  209 1    
   173   87   88 2    
   174   87   89 am   BACKBONE|DICT|INTERRES
   175   89   90 1    
   176   89  210 1    
   177   90   91 1    
   178   90   92 1    
   179   90  211 1    
   180   91  212 1    
   181   91  213 1    
   182   91  214 1    
   183   92   93 2    
   184   92   94 am   BACKBONE|DICT|INTERRES
   185   94   95 1    
   186   94  215 1    
   187   95   96 1    
   188   95   97 1    
   189   95  216 1    
   190   96  217 1    
   191   96  218 1    
   192   96  219 1    
   193   97   98 2    
   194   97   99 am   BACKBONE|DICT|INTERRES
   195   99  100 1    
   196   99  220 1    
   197  100  101 1    
   198  100  102 1    
   199  100  221 1    
   200  101  222 1    
   201  101  223 1    
   202  101  224 1    
   203  102  103 2    
   204  102  104 am   BACKBONE|DICT|INTERRES
   205  104  105 1    
   206  104  225 1    
   207  105  106 1    
   208  105  107 1    
   209  105  226 1    
   210  106  227 1    
   211  106  228 1    
   212  106  229 1    
   213  107  108 2    
   214  107  109 am   BACKBONE|DICT|INTERRES
   215  109  110 1    
   216  109  230 1    
   217  110  111 1    
   218  110  112 1    
   219  110  231 1    
   220  111  232 1    
   221  111  233 1    
   222  111  234 1    
   223  112  113 2    
   224  112  114 am   BACKBONE|DICT|INTERRES
   225  114  115 1    
   226  114  235 1    
   227  115  116 1    
   228  115  117 1    
   229  115  236 1    
   230  116  237 1    
   231  116  238 1    
   232  116  239 1    
   233  117  118 2    
   234  117  119 am   BACKBONE|DICT|INTERRES
   235  119  120 1    
   236  119  240 1    
   237  120  121 1    
   238  120  124 1    
   239  120  241 1    
   240  121  122 am   BACKBONE|DICT|INTERRES
   241  121  123 2    
   242  122  242 1    
   243  122  243 1    
   244  124  125 1    
   245  124  244 1    
   246  124  245 1    
   247  125  126 1    
   248  126  246 1    
   249  126  247 1    
@<TRIPOS>SUBSTRUCTURE
     1 UNK         1 GROUP             0       ****    0 ROOT    
