@<TRIPOS>MOLECULE
3R540
247   249    1
SMALL
USER_CHARGES


@<TRIPOS>ATOM
      1 CA         -2.3422  -11.1713  -51.4213 C.3       0 UNK        -0.1800 
      2 C          -1.3291  -11.8926  -50.5459 C.2       0 UNK         0.5000 
      3 O          -0.7941  -11.2981  -49.6108 O.2       0 UNK        -0.5000 
      4 N          -1.0800  -13.1785  -50.8249 N.am      1 UNK        -0.5000 
      5 CA         -0.1668  -14.0429  -50.0701 C.3       1 UNK         0.1400 
      6 C6          0.0498  -15.4074  -50.7745 C.3       23 UNK        -0.0398 
      7 S7          1.6823  -16.1563  -50.4431 S.3       23 UNK        -0.2404 
      8 C8          1.4298  -17.0808  -48.8915 C.3       23 UNK        -0.0205 
      9 C9          0.5568  -18.3136  -49.0576 C.ar      23 UNK        -0.0193 
     10 C10        -0.8223  -18.2393  -48.8411 C.ar      23 UNK        -0.1150 
     11 C11        -1.6212  -19.3795  -48.9521 C.ar      23 UNK        -0.0193 
     12 C12        -1.0273  -20.6065  -49.2530 C.ar      23 UNK        -0.1150 
     13 C13         0.3508  -20.6966  -49.4666 C.ar      23 UNK        -0.0193 
     14 C14         1.1359  -19.5431  -49.3818 C.ar      23 UNK        -0.1150 
     15 C15         0.9899  -22.0484  -49.7517 C.3       23 UNK        -0.0205 
     16 S16         2.2149  -22.5381  -48.4897 S.3       23 UNK        -0.2404 
     17 C17         1.3369  -22.2301  -46.9163 C.3       23 UNK        -0.0398 
     18 CA          0.7497  -23.5007  -46.2675 C.3       11 UNK         0.1400 
     19 N           0.5331  -23.2938  -44.8340 N.am      11 UNK        -0.5000 
     20 C           0.1798  -24.2424  -43.9580 C.2       10 UNK         0.5000 
     21 O           0.0073  -25.4214  -44.2599 O.2       10 UNK        -0.5000 
     22 CA         -0.0703  -23.7815  -42.5136 C.3       10 UNK         0.1400 
     23 CB          1.2511  -23.6423  -41.7427 C.3       10 UNK        -0.1800 
     24 N          -0.7974  -22.5131  -42.4814 N.am      10 UNK        -0.5000 
     25 C          -2.1029  -22.3906  -42.7587 C.2       9 UNK         0.5000 
     26 O          -2.8401  -23.3448  -43.0091 O.2       9 UNK        -0.5000 
     27 CA         -2.6697  -20.9583  -42.7949 C.3       9 UNK         0.1400 
     28 CB         -3.0403  -20.4857  -41.3814 C.3       9 UNK        -0.1800 
     29 N          -1.7497  -19.9929  -43.4008 N.am      9 UNK        -0.5000 
     30 C          -1.3767  -20.0112  -44.6884 C.2       8 UNK         0.5000 
     31 O          -1.7746  -20.8415  -45.5012 O.2       8 UNK        -0.5000 
     32 CA         -0.3550  -18.9538  -45.1399 C.3       8 UNK         0.1400 
     33 CB         -1.0751  -17.6579  -45.5224 C.3       8 UNK        -0.1800 
     34 N           0.6650  -18.6371  -44.1427 N.am      8 UNK        -0.5000 
     35 C           1.4676  -19.5088  -43.5170 C.2       7 UNK         0.5000 
     36 O           1.4410  -20.7236  -43.7205 O.2       7 UNK        -0.5000 
     37 CA          2.4592  -18.9344  -42.4844 C.3       7 UNK         0.1400 
     38 CB          3.9046  -19.1298  -42.9675 C.3       7 UNK        -0.1800 
     39 N           2.2523  -17.5126  -42.1861 N.am      7 UNK        -0.5000 
     40 C           1.2295  -16.9976  -41.4864 C.2       6 UNK         0.5000 
     41 O           0.3308  -17.6796  -40.9934 O.2       6 UNK        -0.5000 
     42 CA          1.1916  -15.4620  -41.3438 C.3       6 UNK         0.1400 
     43 CB          1.8193  -15.0315  -40.0095 C.3       6 UNK        -0.1800 
     44 N           1.8852  -14.7813  -42.4426 N.am      6 UNK        -0.5000 
     45 C           1.3812  -14.6301  -43.6743 C.2       5 UNK         0.5000 
     46 O           0.2451  -14.9796  -43.9967 O.2       5 UNK        -0.5000 
     47 CA          2.3394  -14.0756  -44.7364 C.3       5 UNK         0.1400 
     48 CB          2.7989  -15.2119  -45.6642 C.3       5 UNK        -0.1800 
     49 N           1.6940  -13.0404  -45.5411 N.am      5 UNK        -0.5000 
     50 C           1.9130  -11.7279  -45.3942 C.2       4 UNK         0.5000 
     51 O           2.6054  -11.2467  -44.4957 O.2       4 UNK        -0.5000 
     52 CA          1.2908  -10.7909  -46.4446 C.3       4 UNK         0.1400 
     53 CB          2.0443  -10.8988  -47.7802 C.3       4 UNK        -0.1800 
     54 N          -0.1304  -11.0341  -46.6751 N.am      4 UNK        -0.5000 
     55 C          -1.1122  -10.6854  -45.8326 C.2       3 UNK         0.5000 
     56 O          -0.9212  -10.1469  -44.7417 O.2       3 UNK        -0.5000 
     57 CA         -2.5527  -10.9768  -46.2922 C.3       3 UNK         0.1400 
     58 CB         -3.0676   -9.8697  -47.2255 C.3       3 UNK        -0.1800 
     59 N          -2.6426  -12.2662  -46.9731 N.am      3 UNK        -0.5000 
     60 C          -2.7325  -13.4412  -46.3361 C.2       2 UNK         0.5000 
     61 O          -2.8877  -13.5459  -45.1194 O.2       2 UNK        -0.5000 
     62 CA         -2.6299  -14.7169  -47.1939 C.3       2 UNK         0.1400 
     63 CB         -4.0147  -15.3273  -47.4326 C.3       2 UNK        -0.1800 
     64 N          -1.9673  -14.5197  -48.4842 N.am      2 UNK        -0.5000 
     65 C          -0.6658  -14.2319  -48.6263 C.2       1 UNK         0.5000 
     66 O           0.1084  -14.0687  -47.6839 O.2       1 UNK        -0.5000 
     67 C          -0.5279  -23.9888  -46.9892 C.2       11 UNK         0.5000 
     68 O          -0.4473  -24.8912  -47.8256 O.2       11 UNK        -0.5000 
     69 N          -1.6878  -23.4249  -46.6189 N.am      12 UNK        -0.5000 
     70 CA         -3.0172  -23.8274  -47.0818 C.3       12 UNK         0.1400 
     71 CB         -4.0742  -22.8584  -46.5320 C.3       12 UNK        -0.1800 
     72 C          -3.3761  -25.2767  -46.7130 C.2       12 UNK         0.5000 
     73 O          -3.9691  -25.9807  -47.5300 O.2       12 UNK        -0.5000 
     74 N          -2.9953  -25.7009  -45.5011 N.am      13 UNK        -0.5000 
     75 CA         -3.1606  -27.0752  -45.0312 C.3       13 UNK         0.1400 
     76 CB         -3.0128  -27.1139  -43.5023 C.3       13 UNK        -0.1800 
     77 C          -2.1702  -28.0418  -45.7073 C.2       13 UNK         0.5000 
     78 O          -2.5449  -29.1726  -46.0200 O.2       13 UNK        -0.5000 
     79 N          -0.9291  -27.5812  -45.9148 N.am      14 UNK        -0.5000 
     80 CA          0.1617  -28.3526  -46.5047 C.3       14 UNK         0.1400 
     81 CB          1.4942  -27.6237  -46.2718 C.3       14 UNK        -0.1800 
     82 C          -0.0330  -28.6537  -48.0005 C.2       14 UNK         0.5000 
     83 O           0.1843  -29.7963  -48.4082 O.2       14 UNK        -0.5000 
     84 N          -0.4143  -27.6416  -48.7935 N.am      15 UNK        -0.5000 
     85 CA         -0.5175  -27.7677  -50.2508 C.3       15 UNK         0.1400 
     86 CB          0.8842  -27.6884  -50.8867 C.3       15 UNK        -0.1800 
     87 C          -1.4460  -26.7391  -50.9126 C.2       15 UNK         0.5000 
     88 O          -2.0535  -27.0673  -51.9325 O.2       15 UNK        -0.5000 
     89 N          -1.5048  -25.5098  -50.3799 N.am      16 UNK        -0.5000 
     90 CA         -2.2117  -24.3234  -50.8933 C.3       16 UNK         0.1400 
     91 CB         -3.7319  -24.5547  -50.9866 C.3       16 UNK        -0.1800 
     92 C          -1.6603  -23.7443  -52.2134 C.2       16 UNK         0.5000 
     93 O          -1.5782  -22.5218  -52.3402 O.2       16 UNK        -0.5000 
     94 N          -1.2808  -24.6166  -53.1567 N.am      17 UNK        -0.5000 
     95 CA         -0.7501  -24.3173  -54.4879 C.3       17 UNK         0.1400 
     96 CB          0.6702  -23.7159  -54.3745 C.3       17 UNK        -0.1800 
     97 C          -1.7445  -23.4681  -55.3098 C.2       17 UNK         0.5000 
     98 O          -2.8869  -23.8937  -55.4931 O.2       17 UNK        -0.5000 
     99 N          -1.3068  -22.2941  -55.7751 N.am      18 UNK        -0.5000 
    100 CA        -2.1153  -21.3043  -56.4855 C.3       18 UNK         0.1400 
    101 CB        -1.8248  -21.3963  -57.9953 C.3       18 UNK        -0.1800 
    102 C         -1.8558  -19.9018  -55.9035 C.2       18 UNK         0.5000 
    103 O         -1.8190  -18.9194  -56.6470 O.2       18 UNK        -0.5000 
    104 N         -1.6438  -19.8367  -54.5818 N.am      19 UNK        -0.5000 
    105 CA        -1.3902  -18.6076  -53.8321 C.3       19 UNK         0.1400 
    106 CB        -0.9088  -18.9903  -52.4290 C.3       19 UNK        -0.1800 
    107 C         -2.6228  -17.6810  -53.7712 C.2       19 UNK         0.5000 
    108 O         -3.7617  -18.1542  -53.8141 O.2       19 UNK        -0.5000 
    109 N         -2.3644  -16.3706  -53.6932 N.am      20 UNK        -0.5000 
    110 CA        -3.3820  -15.3221  -53.7164 C.3       20 UNK         0.1400 
    111 CB        -2.7499  -14.0438  -54.2899 C.3       20 UNK        -0.1800 
    112 C         -3.9747  -15.0385  -52.3248 C.2       20 UNK         0.5000 
    113 O         -3.2623  -15.1194  -51.3209 O.2       20 UNK        -0.5000 
    114 N         -5.2510  -14.6277  -52.3205 N.am      21 UNK        -0.5000 
    115 CA        -6.0524  -14.1467  -51.1845 C.3       21 UNK         0.1400 
    116 CB        -5.3914  -12.9236  -50.5123 C.3       21 UNK        -0.1800 
    117 C         -6.4618  -15.2244  -50.1582 C.2       21 UNK         0.5000 
    118 O         -7.0348  -14.8788  -49.1242 O.2       21 UNK        -0.5000 
    119 N         -6.1910  -16.5012  -50.4530 N.am      22 UNK        -0.5000 
    120 CA        -6.4527  -17.6475  -49.5628 C.3       22 UNK         0.1400 
    121 C         -7.9557  -18.0038  -49.3579 C.2       22 UNK         0.5000 
    122 N         -8.8810  -17.4828  -50.1546 N.am      22 UNK        -0.7600 
    123 O         -8.2878  -18.7679  -48.4560 O.2       22 UNK        -0.5000 
    124 C124       -5.6606  -18.9082  -49.9934 C.3       23 UNK        -0.0398 
    125 S125       -3.8869  -18.5903  -50.2707 S.3       23 UNK        -0.2404 
    126 C126       -3.1271  -19.2848  -48.7754 C.3       23 UNK        -0.0205 
    127 H127       -3.1124  -10.7123  -50.8016 H         1 UNK         0.0600 
    128 H128       -2.8282  -11.8493  -52.1225 H         1 UNK         0.0600 
    129 H129       -1.8496  -10.3844  -51.9919 H         1 UNK         0.0600 
    130 H130       -1.6308  -13.6455  -51.5317 H         1 UNK         0.3000 
    131 H131        0.7910  -13.5196  -50.0237 H         1 UNK         0.0600 
    132 H132        0.0168  -15.2616  -51.8545 H         1 UNK         0.0800 
    133 H133       -0.7553  -16.1108  -50.5633 H         1 UNK         0.0800 
    134 H134        1.0088  -16.4325  -48.1276 H         1 UNK         0.0800 
    135 H135        2.4071  -17.3803  -48.5102 H         1 UNK         0.0800 
    136 H136       -1.2813  -17.2936  -48.5938 H         1 UNK         0.1150 
    137 H137       -1.6436  -21.4892  -49.3247 H         1 UNK         0.1150 
    138 H138        2.2032  -19.6102  -49.5394 H         1 UNK         0.1150 
    139 H139        0.2323  -22.8287  -49.8171 H         1 UNK         0.0800 
    140 H140        1.4755  -22.0136  -50.7278 H         1 UNK         0.0800 
    141 H141        0.5720  -21.4624  -47.0192 H         1 UNK         0.0800 
    142 H142        2.0820  -21.7952  -46.2483 H         1 UNK         0.0800 
    143 H143        1.4932  -24.2952  -46.3527 H         1 UNK         0.0600 
    144 H144        0.6885  -22.3534  -44.4824 H         1 UNK         0.3000 
    145 H145       -0.6737  -24.5444  -42.0166 H         1 UNK         0.0600 
    146 H146        1.0735  -23.3563  -40.7059 H         1 UNK         0.0600 
    147 H147        1.9071  -22.8943  -42.1888 H         1 UNK         0.0600 
    148 H148        1.7944  -24.5880  -41.7304 H         1 UNK         0.0600 
    149 H149       -0.2469  -21.6765  -42.3489 H         1 UNK         0.3000 
    150 H150       -3.5802  -20.9793  -43.3977 H         1 UNK         0.0600 
    151 H151       -3.7356  -21.1797  -40.9072 H         1 UNK         0.0600 
    152 H152       -3.5240  -19.5091  -41.4068 H         1 UNK         0.0600 
    153 H153       -2.1623  -20.4085  -40.7386 H         1 UNK         0.0600 
    154 H154       -1.3632  -19.2832  -42.7946 H         1 UNK         0.3000 
    155 H155        0.1533  -19.3391  -46.0253 H         1 UNK         0.0600 
    156 H156       -1.8918  -17.8504  -46.2172 H         1 UNK         0.0600 
    157 H157       -0.3882  -16.9615  -46.0035 H         1 UNK         0.0600 
    158 H158       -1.5019  -17.1598  -44.6508 H         1 UNK         0.0600 
    159 H159        0.7547  -17.6615  -43.8991 H         1 UNK         0.3000 
    160 H160        2.3261  -19.5014  -41.5608 H         1 UNK         0.0600 
    161 H161        4.0981  -18.5806  -43.8899 H         1 UNK         0.0600 
    162 H162        4.1143  -20.1825  -43.1625 H         1 UNK         0.0600 
    163 H163        4.6206  -18.7925  -42.2179 H         1 UNK         0.0600 
    164 H164        2.9449  -16.8757  -42.5501 H         1 UNK         0.3000 
    165 H165        0.1438  -15.1537  -41.3432 H         1 UNK         0.0600 
    166 H166        1.7464  -13.9528  -39.8696 H         1 UNK         0.0600 
    167 H167        1.3086  -15.5021  -39.1682 H         1 UNK         0.0600 
    168 H168        2.8727  -15.3081  -39.9503 H         1 UNK         0.0600 
    169 H169        2.8222  -14.4561  -42.2502 H         1 UNK         0.3000 
    170 H170        3.2263  -13.6722  -44.2432 H         1 UNK         0.0600 
    171 H171        1.9522  -15.6973  -46.1487 H         1 UNK         0.0600 
    172 H172        3.4639  -14.8418  -46.4447 H         1 UNK         0.0600 
    173 H173        3.3411  -15.9781  -45.1089 H         1 UNK         0.0600 
    174 H174        1.0689  -13.3660  -46.2767 H         1 UNK         0.3000 
    175 H175        1.4044   -9.7667  -46.0825 H         1 UNK         0.0600 
    176 H176        1.9363  -11.8884  -48.2259 H         1 UNK         0.0600 
    177 H177        1.6749  -10.1681  -48.5001 H         1 UNK         0.0600 
    178 H178        3.1105  -10.7126  -47.6451 H         1 UNK         0.0600 
    179 H179       -0.3749  -11.4378  -47.5720 H         1 UNK         0.3000 
    180 H180       -3.1929  -10.9910  -45.4074 H         1 UNK         0.0600 
    181 H181       -4.0982  -10.0568  -47.5276 H         1 UNK         0.0600 
    182 H182       -2.4639   -9.7845  -48.1292 H         1 UNK         0.0600 
    183 H183       -3.0460   -8.9003  -46.7260 H         1 UNK         0.0600 
    184 H184       -2.4979  -12.2680  -47.9717 H         1 UNK         0.3000 
    185 H185       -2.0362  -15.4293  -46.6254 H         1 UNK         0.0600 
    186 H186       -4.6792  -14.6099  -47.9116 H         1 UNK         0.0600 
    187 H187       -3.9557  -16.2119  -48.0663 H         1 UNK         0.0600 
    188 H188       -4.4785  -15.6264  -46.4921 H         1 UNK         0.0600 
    189 H189       -2.5321  -14.6410  -49.3184 H         1 UNK         0.3000 
    190 H190       -1.6630  -22.6268  -45.9881 H         1 UNK         0.3000 
    191 H191       -3.0308  -23.7501  -48.1666 H         1 UNK         0.0600 
    192 H192       -4.0904  -22.8568  -45.4418 H         1 UNK         0.0600 
    193 H193       -5.0726  -23.1310  -46.8762 H         1 UNK         0.0600 
    194 H194       -3.8858  -21.8381  -46.8624 H         1 UNK         0.0600 
    195 H195       -2.5196  -25.0573  -44.8832 H         1 UNK         0.3000 
    196 H196       -4.1718  -27.4054  -45.2788 H         1 UNK         0.0600 
    197 H197       -3.7410  -26.4616  -43.0197 H         1 UNK         0.0600 
    198 H198       -2.0197  -26.7992  -43.1814 H         1 UNK         0.0600 
    199 H199       -3.1757  -28.1227  -43.1212 H         1 UNK         0.0600 
    200 H200       -0.6889  -26.6629  -45.5534 H         1 UNK         0.3000 
    201 H201        0.2110  -29.3087  -45.9794 H         1 UNK         0.0600 
    202 H202        1.6806  -27.4703  -45.2087 H         1 UNK         0.0600 
    203 H203        1.5105  -26.6495  -46.7599 H         1 UNK         0.0600 
    204 H204        2.3297  -28.2021  -46.6679 H         1 UNK         0.0600 
    205 H205       -0.5758  -26.7262  -48.3834 H         1 UNK         0.3000 
    206 H206       -0.9439  -28.7462  -50.4832 H         1 UNK         0.0600 
    207 H207        1.3829  -26.7512  -50.6363 H         1 UNK         0.0600 
    208 H208        1.5222  -28.5064  -50.5525 H         1 UNK         0.0600 
    209 H209        0.8277  -27.7505  -51.9744 H         1 UNK         0.0600 
    210 H210       -0.9587  -25.3307  -49.5412 H         1 UNK         0.3000 
    211 H211       -2.0475  -23.5514  -50.1452 H         1 UNK         0.0600 
    212 H212       -3.9894  -25.2689  -51.7688 H         1 UNK         0.0600 
    213 H213       -4.2503  -23.6231  -51.2166 H         1 UNK         0.0600 
    214 H214       -4.1371  -24.9289  -50.0473 H         1 UNK         0.0600 
    215 H215       -1.4625  -25.5970  -52.9607 H         1 UNK         0.3000 
    216 H216       -0.6637  -25.2724  -55.0077 H         1 UNK         0.0600 
    217 H217        1.1204  -23.5767  -55.3581 H         1 UNK         0.0600 
    218 H218        1.3280  -24.3826  -53.8166 H         1 UNK         0.0600 
    219 H219        0.6734  -22.7524  -53.8633 H         1 UNK         0.0600 
    220 H220       -0.3610  -22.0126  -55.5568 H         1 UNK         0.3000 
    221 H221       -3.1774  -21.5030  -56.3285 H         1 UNK         0.0600 
    222 H222       -0.7829  -21.1636  -58.2177 H         1 UNK         0.0600 
    223 H223       -2.0333  -22.3965  -58.3752 H         1 UNK         0.0600 
    224 H224       -2.4475  -20.7008  -58.5593 H         1 UNK         0.0600 
    225 H225       -1.7230  -20.6840  -54.0341 H         1 UNK         0.3000 
    226 H226       -0.5834  -18.0692  -54.3340 H         1 UNK         0.0600 
    227 H227        0.0325  -19.5386  -52.4666 H         1 UNK         0.0600 
    228 H228       -0.7458  -18.1086  -51.8112 H         1 UNK         0.0600 
    229 H229       -1.6375  -19.6203  -51.9194 H         1 UNK         0.0600 
    230 H230       -1.4058  -16.0631  -53.6361 H         1 UNK         0.3000 
    231 H231       -4.1900  -15.6294  -54.3842 H         1 UNK         0.0600 
    232 H232       -3.4720  -13.2267  -54.3223 H         1 UNK         0.0600 
    233 H233       -2.4002  -14.2037  -55.3101 H         1 UNK         0.0600 
    234 H234       -1.8993  -13.7080  -53.6963 H         1 UNK         0.0600 
    235 H235       -5.7345  -14.6025  -53.2078 H         1 UNK         0.3000 
    236 H236       -6.9906  -13.7998  -51.6198 H         1 UNK         0.0600 
    237 H237       -4.4554  -13.1813  -50.0176 H         1 UNK         0.0600 
    238 H238       -5.1854  -12.1420  -51.2427 H         1 UNK         0.0600 
    239 H239       -6.0455  -12.4879  -49.7563 H         1 UNK         0.0600 
    240 H240       -5.6955  -16.7060  -51.3081 H         1 UNK         0.3000 
    241 H241       -6.0855  -17.3642  -48.5749 H         1 UNK         0.0600 
    242 H242       -9.8507  -17.7175  -50.0104 H         1 UNK         0.3800 
    243 H243       -8.6223  -16.8517  -50.8956 H         1 UNK         0.3800 
    244 H244       -6.0674  -19.3051  -50.9251 H         1 UNK         0.0800 
    245 H245       -5.7725  -19.7033  -49.2542 H         1 UNK         0.0800 
    246 H246       -3.5442  -20.2728  -48.5806 H         1 UNK         0.0800 
    247 H247       -3.3719  -18.6639  -47.9135 H         1 UNK         0.0800 
@<TRIPOS>BOND
     1    1    2 1    
     2    1  127 1    
     3    1  128 1    
     4    1  129 1    
     5    2    3 2    
     6    2    4 am   BACKBONE|DICT|INTERRES
     7    4    5 1    
     8    4  130 1    
     9    5    6 1    
    10    5   65 1    
    11    5  131 1    
    12    6    7 1    
    13    6  132 1    
    14    6  133 1    
    15    7    8 1    
    16    8    9 1    
    17    8  134 1    
    18    8  135 1    
    19    9   10 ar   
    20    9   14 ar   
    21   10   11 ar   
    22   10  136 1    
    23   11   12 ar   
    24   11  126 1    
    25   12   13 ar   
    26   12  137 1    
    27   13   14 ar   
    28   13   15 1    
    29   14  138 1    
    30   15   16 1    
    31   15  139 1    
    32   15  140 1    
    33   16   17 1    
    34   17   18 1    
    35   17  141 1    
    36   17  142 1    
    37   18   19 1    
    38   18   67 1    
    39   18  143 1    
    40   19   20 am   BACKBONE|DICT|INTERRES
    41   19  144 1    
    42   20   21 2    
    43   20   22 1    
    44   22   23 1    
    45   22   24 1    
    46   22  145 1    
    47   23  146 1    
    48   23  147 1    
    49   23  148 1    
    50   24   25 am   BACKBONE|DICT|INTERRES
    51   24  149 1    
    52   25   26 2    
    53   25   27 1    
    54   27   28 1    
    55   27   29 1    
    56   27  150 1    
    57   28  151 1    
    58   28  152 1    
    59   28  153 1    
    60   29   30 am   BACKBONE|DICT|INTERRES
    61   29  154 1    
    62   30   31 2    
    63   30   32 1    
    64   32   33 1    
    65   32   34 1    
    66   32  155 1    
    67   33  156 1    
    68   33  157 1    
    69   33  158 1    
    70   34   35 am   BACKBONE|DICT|INTERRES
    71   34  159 1    
    72   35   36 2    
    73   35   37 1    
    74   37   38 1    
    75   37   39 1    
    76   37  160 1    
    77   38  161 1    
    78   38  162 1    
    79   38  163 1    
    80   39   40 am   BACKBONE|DICT|INTERRES
    81   39  164 1    
    82   40   41 2    
    83   40   42 1    
    84   42   43 1    
    85   42   44 1    
    86   42  165 1    
    87   43  166 1    
    88   43  167 1    
    89   43  168 1    
    90   44   45 am   BACKBONE|DICT|INTERRES
    91   44  169 1    
    92   45   46 2    
    93   45   47 1    
    94   47   48 1    
    95   47   49 1    
    96   47  170 1    
    97   48  171 1    
    98   48  172 1    
    99   48  173 1    
   100   49   50 am   BACKBONE|DICT|INTERRES
   101   49  174 1    
   102   50   51 2    
   103   50   52 1    
   104   52   53 1    
   105   52   54 1    
   106   52  175 1    
   107   53  176 1    
   108   53  177 1    
   109   53  178 1    
   110   54   55 am   BACKBONE|DICT|INTERRES
   111   54  179 1    
   112   55   56 2    
   113   55   57 1    
   114   57   58 1    
   115   57   59 1    
   116   57  180 1    
   117   58  181 1    
   118   58  182 1    
   119   58  183 1    
   120   59   60 am   BACKBONE|DICT|INTERRES
   121   59  184 1    
   122   60   61 2    
   123   60   62 1    
   124   62   63 1    
   125   62   64 1    
   126   62  185 1    
   127   63  186 1    
   128   63  187 1    
   129   63  188 1    
   130   64   65 am   BACKBONE|DICT|INTERRES
   131   64  189 1    
   132   65   66 2    
   133   67   68 2    
   134   67   69 am   BACKBONE|DICT|INTERRES
   135   69   70 1    
   136   69  190 1    
   137   70   71 1    
   138   70   72 1    
   139   70  191 1    
   140   71  192 1    
   141   71  193 1    
   142   71  194 1    
   143   72   73 2    
   144   72   74 am   BACKBONE|DICT|INTERRES
   145   74   75 1    
   146   74  195 1    
   147   75   76 1    
   148   75   77 1    
   149   75  196 1    
   150   76  197 1    
   151   76  198 1    
   152   76  199 1    
   153   77   78 2    
   154   77   79 am   BACKBONE|DICT|INTERRES
   155   79   80 1    
   156   79  200 1    
   157   80   81 1    
   158   80   82 1    
   159   80  201 1    
   160   81  202 1    
   161   81  203 1    
   162   81  204 1    
   163   82   83 2    
   164   82   84 am   BACKBONE|DICT|INTERRES
   165   84   85 1    
   166   84  205 1    
   167   85   86 1    
   168   85   87 1    
   169   85  206 1    
   170   86  207 1    
   171   86  208 1    
   172   86  209 1    
   173   87   88 2    
   174   87   89 am   BACKBONE|DICT|INTERRES
   175   89   90 1    
   176   89  210 1    
   177   90   91 1    
   178   90   92 1    
   179   90  211 1    
   180   91  212 1    
   181   91  213 1    
   182   91  214 1    
   183   92   93 2    
   184   92   94 am   BACKBONE|DICT|INTERRES
   185   94   95 1    
   186   94  215 1    
   187   95   96 1    
   188   95   97 1    
   189   95  216 1    
   190   96  217 1    
   191   96  218 1    
   192   96  219 1    
   193   97   98 2    
   194   97   99 am   BACKBONE|DICT|INTERRES
   195   99  100 1    
   196   99  220 1    
   197  100  101 1    
   198  100  102 1    
   199  100  221 1    
   200  101  222 1    
   201  101  223 1    
   202  101  224 1    
   203  102  103 2    
   204  102  104 am   BACKBONE|DICT|INTERRES
   205  104  105 1    
   206  104  225 1    
   207  105  106 1    
   208  105  107 1    
   209  105  226 1    
   210  106  227 1    
   211  106  228 1    
   212  106  229 1    
   213  107  108 2    
   214  107  109 am   BACKBONE|DICT|INTERRES
   215  109  110 1    
   216  109  230 1    
   217  110  111 1    
   218  110  112 1    
   219  110  231 1    
   220  111  232 1    
   221  111  233 1    
   222  111  234 1    
   223  112  113 2    
   224  112  114 am   BACKBONE|DICT|INTERRES
   225  114  115 1    
   226  114  235 1    
   227  115  116 1    
   228  115  117 1    
   229  115  236 1    
   230  116  237 1    
   231  116  238 1    
   232  116  239 1    
   233  117  118 2    
   234  117  119 am   BACKBONE|DICT|INTERRES
   235  119  120 1    
   236  119  240 1    
   237  120  121 1    
   238  120  124 1    
   239  120  241 1    
   240  121  122 am   BACKBONE|DICT|INTERRES
   241  121  123 2    
   242  122  242 1    
   243  122  243 1    
   244  124  125 1    
   245  124  244 1    
   246  124  245 1    
   247  125  126 1    
   248  126  246 1    
   249  126  247 1    
@<TRIPOS>SUBSTRUCTURE
     1 UNK         1 GROUP             0       ****    0 ROOT    
