@<TRIPOS>MOLECULE
3R540
247   249    1
SMALL
USER_CHARGES


@<TRIPOS>ATOM
      1 CA          0.9070  -11.4408  -47.8091 C.3       0 UNK        -0.1800 
      2 C           2.3811  -11.6095  -47.4757 C.2       0 UNK         0.5000 
      3 O           2.7111  -12.0899  -46.3921 O.2       0 UNK        -0.5000 
      4 N           3.2754  -11.2033  -48.3872 N.am      1 UNK        -0.5000 
      5 CA          4.7418  -11.3597  -48.3107 C.3       1 UNK         0.1400 
      6 C6          5.2045  -12.8458  -48.2675 C.3       23 UNK        -0.0398 
      7 S7          4.4566  -13.9069  -49.5526 S.3       23 UNK        -0.2404 
      8 C8          3.4459  -15.0034  -48.5105 C.3       23 UNK        -0.0205 
      9 C9          2.7492  -16.0740  -49.3297 C.ar      23 UNK        -0.0193 
     10 C10         1.5387  -15.7969  -49.9712 C.ar      23 UNK        -0.1150 
     11 C11         0.8859  -16.7866  -50.7128 C.ar      23 UNK        -0.0193 
     12 C12         1.4587  -18.0572  -50.8156 C.ar      23 UNK        -0.1150 
     13 C13         2.6597  -18.3495  -50.1614 C.ar      23 UNK        -0.0193 
     14 C14         3.3034  -17.3523  -49.4256 C.ar      23 UNK        -0.1150 
     15 C15         3.2547  -19.7473  -50.2288 C.3       23 UNK        -0.0205 
     16 S16         2.7937  -20.7367  -48.7713 S.3       23 UNK        -0.2404 
     17 C17         0.9904  -20.8467  -49.0043 C.3       23 UNK        -0.0398 
     18 CA          0.3436  -21.9480  -48.1376 C.3       11 UNK         0.1400 
     19 N           0.3447  -21.6224  -46.7086 N.am      11 UNK        -0.5000 
     20 C          -0.0512  -22.4567  -45.7359 C.2       10 UNK         0.5000 
     21 O          -0.3997  -23.6217  -45.9305 O.2       10 UNK        -0.5000 
     22 CA         -0.1369  -21.8714  -44.3155 C.3       10 UNK         0.1400 
     23 CB          1.2500  -21.7745  -43.6614 C.3       10 UNK        -0.1800 
     24 N          -0.7857  -20.5603  -44.3096 N.am      10 UNK        -0.5000 
     25 C          -2.0812  -20.3607  -44.5931 C.2       9 UNK         0.5000 
     26 O          -2.8752  -21.2690  -44.8328 O.2       9 UNK        -0.5000 
     27 CA         -2.5663  -18.9017  -44.6644 C.3       9 UNK         0.1400 
     28 CB         -3.0726  -18.4261  -43.2959 C.3       9 UNK        -0.1800 
     29 N          -1.5380  -17.9895  -45.1701 N.am      9 UNK        -0.5000 
     30 C          -1.0977  -18.0030  -46.4363 C.2       8 UNK         0.5000 
     31 O          -1.5085  -18.7851  -47.2927 O.2       8 UNK        -0.5000 
     32 CA          0.0295  -17.0186  -46.7834 C.3       8 UNK         0.1400 
     33 CB         -0.5214  -15.5992  -46.9893 C.3       8 UNK        -0.1800 
     34 N           1.0932  -16.9876  -45.7777 N.am      8 UNK        -0.5000 
     35 C           1.8927  -18.0249  -45.4951 C.2       7 UNK         0.5000 
     36 O           1.7202  -19.1555  -45.9475 O.2       7 UNK        -0.5000 
     37 CA          3.0729  -17.7681  -44.5493 C.3       7 UNK         0.1400 
     38 CB          4.1340  -16.8819  -45.2193 C.3       7 UNK        -0.1800 
     39 N           2.6430  -17.1542  -43.2935 N.am      7 UNK        -0.5000 
     40 C           3.0714  -17.5433  -42.0826 C.2       6 UNK         0.5000 
     41 O           3.8728  -18.4623  -41.9076 O.2       6 UNK        -0.5000 
     42 CA          2.5347  -16.7910  -40.8457 C.3       6 UNK         0.1400 
     43 CB          3.6153  -15.8658  -40.2656 C.3       6 UNK        -0.1800 
     44 N           1.3268  -16.0088  -41.1081 N.am      6 UNK        -0.5000 
     45 C           0.1244  -16.5399  -41.3681 C.2       5 UNK         0.5000 
     46 O          -0.0986  -17.7499  -41.3435 O.2       5 UNK        -0.5000 
     47 CA         -1.0150  -15.5751  -41.7573 C.3       5 UNK         0.1400 
     48 CB         -1.9989  -15.4044  -40.5906 C.3       5 UNK        -0.1800 
     49 N          -0.5839  -14.2507  -42.2143 N.am      5 UNK        -0.5000 
     50 C           0.2107  -14.0006  -43.2634 C.2       4 UNK         0.5000 
     51 O           0.7325  -14.8860  -43.9454 O.2       4 UNK        -0.5000 
     52 CA          0.4995  -12.5254  -43.6032 C.3       4 UNK         0.1400 
     53 CB         -0.1474  -11.5018  -42.6432 C.3       4 UNK        -0.1800 
     54 N           1.9373  -12.2877  -43.7205 N.am      4 UNK        -0.5000 
     55 C           2.8750  -12.4721  -42.7789 C.2       3 UNK         0.5000 
     56 O           2.6305  -12.8392  -41.6288 O.2       3 UNK        -0.5000 
     57 CA          4.3314  -12.1971  -43.1900 C.3       3 UNK         0.1400 
     58 CB          4.9690  -13.4739  -43.7601 C.3       3 UNK        -0.1800 
     59 N           4.4092  -11.1466  -44.2055 N.am      3 UNK        -0.5000 
     60 C           4.9444   -9.9290  -44.0414 C.2       2 UNK         0.5000 
     61 O           5.4465   -9.5464  -42.9832 O.2       2 UNK        -0.5000 
     62 CA          4.8970   -8.9678  -45.2559 C.3       2 UNK         0.1400 
     63 CB          6.1440   -8.0636  -45.3494 C.3       2 UNK        -0.1800 
     64 N           4.6297   -9.6454  -46.5329 N.am      2 UNK        -0.5000 
     65 C           5.3947  -10.5585  -47.1536 C.2       1 UNK         0.5000 
     66 O           6.5518  -10.8146  -46.8179 O.2       1 UNK        -0.5000 
     67 C          -1.0748  -22.2577  -48.6502 C.2       11 UNK         0.5000 
     68 O          -1.2501  -23.2581  -49.3426 O.2       11 UNK        -0.5000 
     69 N          -2.0605  -21.4269  -48.2801 N.am      12 UNK        -0.5000 
     70 CA         -3.4708  -21.6185  -48.6192 C.3       12 UNK         0.1400 
     71 CB         -4.2924  -20.4192  -48.1268 C.3       12 UNK        -0.1800 
     72 C          -4.0419  -22.9339  -48.0614 C.2       12 UNK         0.5000 
     73 O          -4.7038  -23.6625  -48.7990 O.2       12 UNK        -0.5000 
     74 N          -3.7505  -23.2352  -46.7878 N.am      13 UNK        -0.5000 
     75 CA         -4.1352  -24.4813  -46.1239 C.3       13 UNK         0.1400 
     76 CB         -3.7664  -24.4155  -44.6345 C.3       13 UNK        -0.1800 
     77 C          -3.5158  -25.7230  -46.7890 C.2       13 UNK         0.5000 
     78 O          -4.2322  -26.6955  -47.0321 O.2       13 UNK        -0.5000 
     79 N          -2.2142  -25.6490  -47.1067 N.am      14 UNK        -0.5000 
     80 CA         -1.4724  -26.6845  -47.8289 C.3       14 UNK         0.1400 
     81 CB          0.0216  -26.3284  -47.8541 C.3       14 UNK        -0.1800 
     82 C          -2.0064  -26.9136  -49.2550 C.2       14 UNK         0.5000 
     83 O          -2.1413  -28.0626  -49.6775 O.2       14 UNK        -0.5000 
     84 N          -2.3616  -25.8255  -49.9495 N.am      15 UNK        -0.5000 
     85 CA         -2.9929  -25.8110  -51.2693 C.3       15 UNK         0.1400 
     86 CB         -2.7138  -24.4561  -51.9409 C.3       15 UNK        -0.1800 
     87 C          -4.5024  -26.1324  -51.2144 C.2       15 UNK         0.5000 
     88 O          -5.3038  -25.4159  -51.8153 O.2       15 UNK        -0.5000 
     89 N          -4.8589  -27.2087  -50.4985 N.am      16 UNK        -0.5000 
     90 CA         -6.1906  -27.8123  -50.3792 C.3       16 UNK         0.1400 
     91 CB         -6.5211  -28.5941  -51.6667 C.3       16 UNK        -0.1800 
     92 C          -7.3031  -26.8210  -49.9720 C.2       16 UNK         0.5000 
     93 O          -8.4028  -26.8685  -50.5265 O.2       16 UNK        -0.5000 
     94 N          -6.9848  -25.9444  -49.0080 N.am      17 UNK        -0.5000 
     95 CA         -7.8252  -24.8601  -48.4898 C.3       17 UNK         0.1400 
     96 CB         -9.0678  -25.4157  -47.7620 C.3       17 UNK        -0.1800 
     97 C          -8.1630  -23.8181  -49.5775 C.2       17 UNK         0.5000 
     98 O          -9.3343  -23.5824  -49.8805 O.2       17 UNK        -0.5000 
     99 N          -7.1025  -23.2118  -50.1258 N.am      18 UNK        -0.5000 
    100 CA        -7.0883  -22.1396  -51.1226 C.3       18 UNK         0.1400 
    101 CB        -7.7308  -20.8565  -50.5531 C.3       18 UNK        -0.1800 
    102 C         -7.6958  -22.5619  -52.4742 C.2       18 UNK         0.5000 
    103 O         -8.5213  -21.8375  -53.0369 O.2       18 UNK        -0.5000 
    104 N         -7.2672  -23.7204  -52.9932 N.am      19 UNK        -0.5000 
    105 CA        -7.6106  -24.2148  -54.3271 C.3       19 UNK         0.1400 
    106 CB        -7.3392  -25.7267  -54.3963 C.3       19 UNK        -0.1800 
    107 C         -6.8437  -23.4236  -55.4059 C.2       19 UNK         0.5000 
    108 O         -5.8391  -23.9013  -55.9374 O.2       19 UNK        -0.5000 
    109 N         -7.3133  -22.1946  -55.6579 N.am      20 UNK        -0.5000 
    110 CA        -6.7721  -21.1484  -56.5320 C.3       20 UNK         0.1400 
    111 CB        -6.6414  -21.6204  -57.9931 C.3       20 UNK        -0.1800 
    112 C         -5.4603  -20.5368  -56.0068 C.2       20 UNK         0.5000 
    113 O         -5.3965  -19.3206  -55.8169 O.2       20 UNK        -0.5000 
    114 N         -4.4513  -21.3809  -55.7579 N.am      21 UNK        -0.5000 
    115 CA        -3.1461  -21.0166  -55.2085 C.3       21 UNK         0.1400 
    116 CB        -2.2252  -22.2455  -55.2342 C.3       21 UNK        -0.1800 
    117 C         -3.2794  -20.4278  -53.7915 C.2       21 UNK         0.5000 
    118 O         -3.5948  -21.1555  -52.8484 O.2       21 UNK        -0.5000 
    119 N         -3.0839  -19.1073  -53.6942 N.am      22 UNK        -0.5000 
    120 CA        -3.3279  -18.2860  -52.4984 C.3       22 UNK         0.1400 
    121 C         -4.8263  -18.2276  -52.0574 C.2       22 UNK         0.5000 
    122 N         -5.7777  -18.4445  -52.9597 N.am      22 UNK        -0.7600 
    123 O         -5.1408  -17.9597  -50.9019 O.2       22 UNK        -0.5000 
    124 C124       -2.3240  -18.5911  -51.3472 C.3       23 UNK        -0.0398 
    125 S125       -1.8560  -17.0810  -50.4311 S.3       23 UNK        -0.2404 
    126 C126       -0.4352  -16.4796  -51.4005 C.3       23 UNK        -0.0205 
    127 H127        0.4235  -10.8110  -47.0624 H         1 UNK         0.0600 
    128 H128        0.4119  -12.4116  -47.8100 H         1 UNK         0.0600 
    129 H129        0.7628  -10.9836  -48.7882 H         1 UNK         0.0600 
    130 H130        2.9387  -10.8018  -49.2515 H         1 UNK         0.3000 
    131 H131        5.1334  -10.9217  -49.2298 H         1 UNK         0.0600 
    132 H132        6.2861  -12.9042  -48.4006 H         1 UNK         0.0800 
    133 H133        5.0073  -13.2757  -47.2838 H         1 UNK         0.0800 
    134 H134        4.0890  -15.4685  -47.7640 H         1 UNK         0.0800 
    135 H135        2.7051  -14.4236  -47.9605 H         1 UNK         0.0800 
    136 H136        1.1038  -14.8108  -49.8873 H         1 UNK         0.1150 
    137 H137        0.9582  -18.8253  -51.3870 H         1 UNK         0.1150 
    138 H138        4.2307  -17.5772  -48.9176 H         1 UNK         0.1150 
    139 H139        2.9350  -20.2588  -51.1380 H         1 UNK         0.0800 
    140 H140        4.3423  -19.6818  -50.2828 H         1 UNK         0.0800 
    141 H141        0.8082  -21.0383  -50.0637 H         1 UNK         0.0800 
    142 H142        0.5446  -19.8753  -48.7832 H         1 UNK         0.0800 
    143 H143        0.9287  -22.8621  -48.2603 H         1 UNK         0.0600 
    144 H144        0.6691  -20.6916  -46.4589 H         1 UNK         0.3000 
    145 H145       -0.7445  -22.5498  -43.7127 H         1 UNK         0.0600 
    146 H146        1.1798  -21.3934  -42.6425 H         1 UNK         0.0600 
    147 H147        1.7225  -22.7561  -43.6097 H         1 UNK         0.0600 
    148 H148        1.9209  -21.1200  -44.2172 H         1 UNK         0.0600 
    149 H149       -0.1925  -19.7575  -44.1629 H         1 UNK         0.3000 
    150 H150       -3.4097  -18.8675  -45.3566 H         1 UNK         0.0600 
    151 H151       -3.8924  -19.0560  -42.9482 H         1 UNK         0.0600 
    152 H152       -3.4495  -17.4046  -43.3443 H         1 UNK         0.0600 
    153 H153       -2.2910  -18.4682  -42.5389 H         1 UNK         0.0600 
    154 H154       -1.1280  -17.3360  -44.5206 H         1 UNK         0.3000 
    155 H155        0.4737  -17.3509  -47.7238 H         1 UNK         0.0600 
    156 H156       -0.9937  -15.2121  -46.0862 H         1 UNK         0.0600 
    157 H157        0.2706  -14.9074  -47.2752 H         1 UNK         0.0600 
    158 H158       -1.2688  -15.5834  -47.7831 H         1 UNK         0.0600 
    159 H159        1.2240  -16.1038  -45.2945 H         1 UNK         0.3000 
    160 H160        3.5263  -18.7428  -44.3565 H         1 UNK         0.0600 
    161 H161        3.7428  -15.8881  -45.4359 H         1 UNK         0.0600 
    162 H162        4.4712  -17.3205  -46.1592 H         1 UNK         0.0600 
    163 H163        5.0100  -16.7649  -44.5812 H         1 UNK         0.0600 
    164 H164        1.9714  -16.3968  -43.3586 H         1 UNK         0.3000 
    165 H165        2.2929  -17.5413  -40.0900 H         1 UNK         0.0600 
    166 H166        3.2607  -15.3542  -39.3706 H         1 UNK         0.0600 
    167 H167        4.5046  -16.4316  -39.9851 H         1 UNK         0.0600 
    168 H168        3.9244  -15.1084  -40.9851 H         1 UNK         0.0600 
    169 H169        1.4389  -15.0050  -41.1659 H         1 UNK         0.3000 
    170 H170       -1.5503  -16.0362  -42.5878 H         1 UNK         0.0600 
    171 H171       -1.5286  -14.9134  -39.7378 H         1 UNK         0.0600 
    172 H172       -2.8643  -14.8110  -40.8865 H         1 UNK         0.0600 
    173 H173       -2.3729  -16.3706  -40.2486 H         1 UNK         0.0600 
    174 H174       -0.9399  -13.4631  -41.6923 H         1 UNK         0.3000 
    175 H175        0.0812  -12.3591  -44.5968 H         1 UNK         0.0600 
    176 H176        0.0837  -10.4826  -42.9534 H         1 UNK         0.0600 
    177 H177        0.2021  -11.6183  -41.6167 H         1 UNK         0.0600 
    178 H178       -1.2342  -11.5931  -42.6407 H         1 UNK         0.0600 
    179 H179        2.2528  -12.0939  -44.6679 H         1 UNK         0.3000 
    180 H180        4.8802  -11.9088  -42.2912 H         1 UNK         0.0600 
    181 H181        4.8993  -14.3029  -43.0553 H         1 UNK         0.0600 
    182 H182        6.0256  -13.3199  -43.9795 H         1 UNK         0.0600 
    183 H183        4.4799  -13.7834  -44.6839 H         1 UNK         0.0600 
    184 H184        3.9885  -11.3688  -45.1015 H         1 UNK         0.3000 
    185 H185        4.0387   -8.3177  -45.0817 H         1 UNK         0.0600 
    186 H186        6.2306   -7.4264  -44.4686 H         1 UNK         0.0600 
    187 H187        7.0643   -8.6435  -45.4202 H         1 UNK         0.0600 
    188 H188        6.0918   -7.4074  -46.2181 H         1 UNK         0.0600 
    189 H189        3.6994   -9.5107  -46.9038 H         1 UNK         0.3000 
    190 H190       -1.8297  -20.5872  -47.7539 H         1 UNK         0.3000 
    191 H191       -3.5469  -21.6580  -49.7081 H         1 UNK         0.0600 
    192 H192       -3.9384  -19.4855  -48.5639 H         1 UNK         0.0600 
    193 H193       -5.3408  -20.5280  -48.4001 H         1 UNK         0.0600 
    194 H194       -4.2483  -20.3190  -47.0431 H         1 UNK         0.0600 
    195 H195       -3.2375  -22.5623  -46.2247 H         1 UNK         0.3000 
    196 H196       -5.2204  -24.5738  -46.1974 H         1 UNK         0.0600 
    197 H197       -4.0437  -25.3370  -44.1212 H         1 UNK         0.0600 
    198 H198       -4.2872  -23.5974  -44.1367 H         1 UNK         0.0600 
    199 H199       -2.6960  -24.2666  -44.4897 H         1 UNK         0.0600 
    200 H200       -1.6916  -24.8190  -46.8415 H         1 UNK         0.3000 
    201 H201       -1.5884  -27.6200  -47.2780 H         1 UNK         0.0600 
    202 H202        0.4226  -26.2418  -46.8442 H         1 UNK         0.0600 
    203 H203        0.2024  -25.3832  -48.3666 H         1 UNK         0.0600 
    204 H204        0.5984  -27.0976  -48.3690 H         1 UNK         0.0600 
    205 H205       -2.1848  -24.9124  -49.5386 H         1 UNK         0.3000 
    206 H206       -2.5281  -26.5841  -51.8841 H         1 UNK         0.0600 
    207 H207       -1.6440  -24.2652  -52.0257 H         1 UNK         0.0600 
    208 H208       -3.1309  -24.4313  -52.9469 H         1 UNK         0.0600 
    209 H209       -3.1590  -23.6319  -51.3818 H         1 UNK         0.0600 
    210 H210       -4.1089  -27.7075  -50.0320 H         1 UNK         0.3000 
    211 H211       -6.1245  -28.5352  -49.5649 H         1 UNK         0.0600 
    212 H212       -6.5934  -27.9336  -52.5301 H         1 UNK         0.0600 
    213 H213       -7.4697  -29.1247  -51.5758 H         1 UNK         0.0600 
    214 H214       -5.7552  -29.3393  -51.8812 H         1 UNK         0.0600 
    215 H215       -6.0364  -25.9669  -48.6554 H         1 UNK         0.3000 
    216 H216       -7.2247  -24.3392  -47.7429 H         1 UNK         0.0600 
    217 H217       -9.6290  -24.6109  -47.2860 H         1 UNK         0.0600 
    218 H218       -8.7837  -26.1198  -46.9800 H         1 UNK         0.0600 
    219 H219       -9.7489  -25.9270  -48.4425 H         1 UNK         0.0600 
    220 H220       -6.1834  -23.5064  -49.7976 H         1 UNK         0.3000 
    221 H221       -6.0366  -21.9211  -51.3162 H         1 UNK         0.0600 
    222 H222       -8.8049  -20.9709  -50.4049 H         1 UNK         0.0600 
    223 H223       -7.2920  -20.5797  -49.5963 H         1 UNK         0.0600 
    224 H224       -7.5838  -20.0152  -51.2303 H         1 UNK         0.0600 
    225 H225       -6.5754  -24.2669  -52.4811 H         1 UNK         0.3000 
    226 H226       -8.6796  -24.0667  -54.4945 H         1 UNK         0.0600 
    227 H227       -7.9200  -26.2611  -53.6444 H         1 UNK         0.0600 
    228 H228       -7.6186  -26.1282  -55.3710 H         1 UNK         0.0600 
    229 H229       -6.2860  -25.9590  -54.2361 H         1 UNK         0.0600 
    230 H230       -8.0779  -21.8896  -55.0640 H         1 UNK         0.3000 
    231 H231       -7.5146  -20.3489  -56.5193 H         1 UNK         0.0600 
    232 H232       -5.8936  -22.4050  -58.1096 H         1 UNK         0.0600 
    233 H233       -6.3451  -20.7941  -58.6403 H         1 UNK         0.0600 
    234 H234       -7.5901  -22.0033  -58.3691 H         1 UNK         0.0600 
    235 H235       -4.6355  -22.3714  -55.8864 H         1 UNK         0.3000 
    236 H236       -2.7064  -20.2606  -55.8625 H         1 UNK         0.0600 
    237 H237       -2.0252  -22.5644  -56.2572 H         1 UNK         0.0600 
    238 H238       -1.2646  -22.0278  -54.7658 H         1 UNK         0.0600 
    239 H239       -2.6681  -23.0881  -54.7058 H         1 UNK         0.0600 
    240 H240       -2.8728  -18.5911  -54.5365 H         1 UNK         0.3000 
    241 H241       -3.1230  -17.2730  -52.8462 H         1 UNK         0.0600 
    242 H242       -5.5452  -18.6569  -53.9239 H         1 UNK         0.3800 
    243 H243       -6.7429  -18.3819  -52.6807 H         1 UNK         0.3800 
    244 H244       -2.7345  -19.3242  -50.6520 H         1 UNK         0.0800 
    245 H245       -1.4137  -19.0452  -51.7388 H         1 UNK         0.0800 
    246 H246       -0.4441  -16.9087  -52.4035 H         1 UNK         0.0800 
    247 H247       -0.5425  -15.4024  -51.5363 H         1 UNK         0.0800 
@<TRIPOS>BOND
     1    1    2 1    
     2    1  127 1    
     3    1  128 1    
     4    1  129 1    
     5    2    3 2    
     6    2    4 am   BACKBONE|DICT|INTERRES
     7    4    5 1    
     8    4  130 1    
     9    5    6 1    
    10    5   65 1    
    11    5  131 1    
    12    6    7 1    
    13    6  132 1    
    14    6  133 1    
    15    7    8 1    
    16    8    9 1    
    17    8  134 1    
    18    8  135 1    
    19    9   10 ar   
    20    9   14 ar   
    21   10   11 ar   
    22   10  136 1    
    23   11   12 ar   
    24   11  126 1    
    25   12   13 ar   
    26   12  137 1    
    27   13   14 ar   
    28   13   15 1    
    29   14  138 1    
    30   15   16 1    
    31   15  139 1    
    32   15  140 1    
    33   16   17 1    
    34   17   18 1    
    35   17  141 1    
    36   17  142 1    
    37   18   19 1    
    38   18   67 1    
    39   18  143 1    
    40   19   20 am   BACKBONE|DICT|INTERRES
    41   19  144 1    
    42   20   21 2    
    43   20   22 1    
    44   22   23 1    
    45   22   24 1    
    46   22  145 1    
    47   23  146 1    
    48   23  147 1    
    49   23  148 1    
    50   24   25 am   BACKBONE|DICT|INTERRES
    51   24  149 1    
    52   25   26 2    
    53   25   27 1    
    54   27   28 1    
    55   27   29 1    
    56   27  150 1    
    57   28  151 1    
    58   28  152 1    
    59   28  153 1    
    60   29   30 am   BACKBONE|DICT|INTERRES
    61   29  154 1    
    62   30   31 2    
    63   30   32 1    
    64   32   33 1    
    65   32   34 1    
    66   32  155 1    
    67   33  156 1    
    68   33  157 1    
    69   33  158 1    
    70   34   35 am   BACKBONE|DICT|INTERRES
    71   34  159 1    
    72   35   36 2    
    73   35   37 1    
    74   37   38 1    
    75   37   39 1    
    76   37  160 1    
    77   38  161 1    
    78   38  162 1    
    79   38  163 1    
    80   39   40 am   BACKBONE|DICT|INTERRES
    81   39  164 1    
    82   40   41 2    
    83   40   42 1    
    84   42   43 1    
    85   42   44 1    
    86   42  165 1    
    87   43  166 1    
    88   43  167 1    
    89   43  168 1    
    90   44   45 am   BACKBONE|DICT|INTERRES
    91   44  169 1    
    92   45   46 2    
    93   45   47 1    
    94   47   48 1    
    95   47   49 1    
    96   47  170 1    
    97   48  171 1    
    98   48  172 1    
    99   48  173 1    
   100   49   50 am   BACKBONE|DICT|INTERRES
   101   49  174 1    
   102   50   51 2    
   103   50   52 1    
   104   52   53 1    
   105   52   54 1    
   106   52  175 1    
   107   53  176 1    
   108   53  177 1    
   109   53  178 1    
   110   54   55 am   BACKBONE|DICT|INTERRES
   111   54  179 1    
   112   55   56 2    
   113   55   57 1    
   114   57   58 1    
   115   57   59 1    
   116   57  180 1    
   117   58  181 1    
   118   58  182 1    
   119   58  183 1    
   120   59   60 am   BACKBONE|DICT|INTERRES
   121   59  184 1    
   122   60   61 2    
   123   60   62 1    
   124   62   63 1    
   125   62   64 1    
   126   62  185 1    
   127   63  186 1    
   128   63  187 1    
   129   63  188 1    
   130   64   65 am   BACKBONE|DICT|INTERRES
   131   64  189 1    
   132   65   66 2    
   133   67   68 2    
   134   67   69 am   BACKBONE|DICT|INTERRES
   135   69   70 1    
   136   69  190 1    
   137   70   71 1    
   138   70   72 1    
   139   70  191 1    
   140   71  192 1    
   141   71  193 1    
   142   71  194 1    
   143   72   73 2    
   144   72   74 am   BACKBONE|DICT|INTERRES
   145   74   75 1    
   146   74  195 1    
   147   75   76 1    
   148   75   77 1    
   149   75  196 1    
   150   76  197 1    
   151   76  198 1    
   152   76  199 1    
   153   77   78 2    
   154   77   79 am   BACKBONE|DICT|INTERRES
   155   79   80 1    
   156   79  200 1    
   157   80   81 1    
   158   80   82 1    
   159   80  201 1    
   160   81  202 1    
   161   81  203 1    
   162   81  204 1    
   163   82   83 2    
   164   82   84 am   BACKBONE|DICT|INTERRES
   165   84   85 1    
   166   84  205 1    
   167   85   86 1    
   168   85   87 1    
   169   85  206 1    
   170   86  207 1    
   171   86  208 1    
   172   86  209 1    
   173   87   88 2    
   174   87   89 am   BACKBONE|DICT|INTERRES
   175   89   90 1    
   176   89  210 1    
   177   90   91 1    
   178   90   92 1    
   179   90  211 1    
   180   91  212 1    
   181   91  213 1    
   182   91  214 1    
   183   92   93 2    
   184   92   94 am   BACKBONE|DICT|INTERRES
   185   94   95 1    
   186   94  215 1    
   187   95   96 1    
   188   95   97 1    
   189   95  216 1    
   190   96  217 1    
   191   96  218 1    
   192   96  219 1    
   193   97   98 2    
   194   97   99 am   BACKBONE|DICT|INTERRES
   195   99  100 1    
   196   99  220 1    
   197  100  101 1    
   198  100  102 1    
   199  100  221 1    
   200  101  222 1    
   201  101  223 1    
   202  101  224 1    
   203  102  103 2    
   204  102  104 am   BACKBONE|DICT|INTERRES
   205  104  105 1    
   206  104  225 1    
   207  105  106 1    
   208  105  107 1    
   209  105  226 1    
   210  106  227 1    
   211  106  228 1    
   212  106  229 1    
   213  107  108 2    
   214  107  109 am   BACKBONE|DICT|INTERRES
   215  109  110 1    
   216  109  230 1    
   217  110  111 1    
   218  110  112 1    
   219  110  231 1    
   220  111  232 1    
   221  111  233 1    
   222  111  234 1    
   223  112  113 2    
   224  112  114 am   BACKBONE|DICT|INTERRES
   225  114  115 1    
   226  114  235 1    
   227  115  116 1    
   228  115  117 1    
   229  115  236 1    
   230  116  237 1    
   231  116  238 1    
   232  116  239 1    
   233  117  118 2    
   234  117  119 am   BACKBONE|DICT|INTERRES
   235  119  120 1    
   236  119  240 1    
   237  120  121 1    
   238  120  124 1    
   239  120  241 1    
   240  121  122 am   BACKBONE|DICT|INTERRES
   241  121  123 2    
   242  122  242 1    
   243  122  243 1    
   244  124  125 1    
   245  124  244 1    
   246  124  245 1    
   247  125  126 1    
   248  126  246 1    
   249  126  247 1    
@<TRIPOS>SUBSTRUCTURE
     1 UNK         1 GROUP             0       ****    0 ROOT    
