@<TRIPOS>MOLECULE
3R540
247   249    1
SMALL
USER_CHARGES


@<TRIPOS>ATOM
      1 CA         -5.3604  -12.3755  -47.9372 C.3       0 UNK        -0.1800 
      2 C          -3.9337  -12.8249  -47.6584 C.2       0 UNK         0.5000 
      3 O          -3.2005  -12.1314  -46.9550 O.2       0 UNK        -0.5000 
      4 N          -3.5416  -13.9904  -48.1918 N.am      1 UNK        -0.5000 
      5 CA         -2.2046  -14.5892  -48.0575 C.3       1 UNK         0.1400 
      6 C6         -2.0946  -15.8792  -48.9066 C.3       23 UNK        -0.0398 
      7 S7         -0.3797  -16.3329  -49.3208 S.3       23 UNK        -0.2404 
      8 C8         -0.6949  -17.8703  -50.2356 C.3       23 UNK        -0.0205 
      9 C9          0.5901  -18.4896  -50.7522 C.ar      23 UNK        -0.0193 
     10 C10         0.9915  -18.2808  -52.0734 C.ar      23 UNK        -0.1150 
     11 C11         2.1501  -18.8872  -52.5649 C.ar      23 UNK        -0.0193 
     12 C12         2.9107  -19.7037  -51.7231 C.ar      23 UNK        -0.1150 
     13 C13         2.5235  -19.9148  -50.3954 C.ar      23 UNK        -0.0193 
     14 C14         1.3637  -19.2969  -49.9152 C.ar      23 UNK        -0.1150 
     15 C15         3.3705  -20.7974  -49.4876 C.3       23 UNK        -0.0205 
     16 S16         2.4931  -22.3081  -48.9659 S.3       23 UNK        -0.2404 
     17 C17         1.9662  -21.8183  -47.2909 C.3       23 UNK        -0.0398 
     18 CA          0.8213  -22.6692  -46.6966 C.3       11 UNK         0.1400 
     19 N           0.6721  -22.3927  -45.2663 N.am      11 UNK        -0.5000 
     20 C          -0.1152  -23.0674  -44.4189 C.2       10 UNK         0.5000 
     21 O          -0.7870  -24.0469  -44.7381 O.2       10 UNK        -0.5000 
     22 CA         -0.2066  -22.5180  -42.9837 C.3       10 UNK         0.1400 
     23 CB          1.0192  -22.9303  -42.1553 C.3       10 UNK        -0.1800 
     24 N          -0.3532  -21.0619  -42.9565 N.am      10 UNK        -0.5000 
     25 C          -1.4027  -20.4012  -43.4647 C.2       9 UNK         0.5000 
     26 O          -2.3852  -20.9562  -43.9560 O.2       9 UNK        -0.5000 
     27 CA         -1.3239  -18.8647  -43.4657 C.3       9 UNK         0.1400 
     28 CB         -1.6670  -18.3018  -42.0774 C.3       9 UNK        -0.1800 
     29 N          -0.0173  -18.3638  -43.8987 N.am      9 UNK        -0.5000 
     30 C           0.5118  -18.5601  -45.1161 C.2       8 UNK         0.5000 
     31 O          -0.0703  -19.1402  -46.0282 O.2       8 UNK        -0.5000 
     32 CA          1.9625  -18.1004  -45.3362 C.3       8 UNK         0.1400 
     33 CB          2.0278  -16.6161  -45.7204 C.3       8 UNK        -0.1800 
     34 N           2.7959  -18.3574  -44.1625 N.am      8 UNK        -0.5000 
     35 C           3.1410  -19.5827  -43.7401 C.2       7 UNK         0.5000 
     36 O           2.8329  -20.6193  -44.3278 O.2       7 UNK        -0.5000 
     37 CA          3.9151  -19.6621  -42.4118 C.3       7 UNK         0.1400 
     38 CB          5.4147  -19.4256  -42.6432 C.3       7 UNK        -0.1800 
     39 N           3.4179  -18.7025  -41.4249 N.am      7 UNK        -0.5000 
     40 C           2.2016  -18.7560  -40.8624 C.2       6 UNK         0.5000 
     41 O           1.4011  -19.6693  -41.0601 O.2       6 UNK        -0.5000 
     42 CA          1.7944  -17.5598  -39.9788 C.3       6 UNK         0.1400 
     43 CB          2.2166  -17.7958  -38.5214 C.3       6 UNK        -0.1800 
     44 N           2.3578  -16.2904  -40.4514 N.am      6 UNK        -0.5000 
     45 C           2.0471  -15.7196  -41.6225 C.2       5 UNK         0.5000 
     46 O           1.2064  -16.1746  -42.4017 O.2       5 UNK        -0.5000 
     47 CA          2.8771  -14.4950  -42.0272 C.3       5 UNK         0.1400 
     48 CB          4.2578  -14.9576  -42.5420 C.3       5 UNK        -0.1800 
     49 N           2.1622  -13.7561  -43.0650 N.am      5 UNK        -0.5000 
     50 C           2.5197  -12.5709  -43.5749 C.2       4 UNK         0.5000 
     51 O           3.4986  -11.9266  -43.1953 O.2       4 UNK        -0.5000 
     52 CA          1.6307  -11.9978  -44.6929 C.3       4 UNK         0.1400 
     53 CB          1.9975  -12.6157  -46.0508 C.3       4 UNK        -0.1800 
     54 N           0.2015  -12.1815  -44.4370 N.am      4 UNK        -0.5000 
     55 C          -0.4872  -11.4948  -43.5111 C.2       3 UNK         0.5000 
     56 O           0.0264  -10.6569  -42.7685 O.2       3 UNK        -0.5000 
     57 CA         -2.0023  -11.7574  -43.3957 C.3       3 UNK         0.1400 
     58 CB         -2.7988  -10.5909  -44.0007 C.3       3 UNK        -0.1800 
     59 N          -2.4163  -13.0064  -44.0348 N.am      3 UNK        -0.5000 
     60 C          -2.2390  -14.2168  -43.4862 C.2       2 UNK         0.5000 
     61 O          -1.7687  -14.3837  -42.3611 O.2       2 UNK        -0.5000 
     62 CA         -2.6367  -15.4513  -44.3202 C.3       2 UNK         0.1400 
     63 CB         -3.9348  -16.0754  -43.7847 C.3       2 UNK        -0.1800 
     64 N          -2.7934  -15.2022  -45.7530 N.am      2 UNK        -0.5000 
     65 C          -1.8063  -14.8423  -46.5850 C.2       1 UNK         0.5000 
     66 O          -0.6486  -14.6486  -46.2158 O.2       1 UNK        -0.5000 
     67 C          -0.5142  -22.4988  -47.4571 C.2       11 UNK         0.5000 
     68 O          -0.8999  -23.3936  -48.2085 O.2       11 UNK        -0.5000 
     69 N          -1.2249  -21.3912  -47.1986 N.am      12 UNK        -0.5000 
     70 CA         -2.5543  -21.0837  -47.7298 C.3       12 UNK         0.1400 
     71 CB         -2.9914  -19.6999  -47.2202 C.3       12 UNK        -0.1800 
     72 C          -3.6067  -22.1459  -47.3646 C.2       12 UNK         0.5000 
     73 O          -4.3716  -22.5691  -48.2332 O.2       12 UNK        -0.5000 
     74 N          -3.6048  -22.5714  -46.0933 N.am      13 UNK        -0.5000 
     75 CA         -4.4705  -23.6239  -45.5651 C.3       13 UNK         0.1400 
     76 CB         -4.3691  -23.6545  -44.0327 C.3       13 UNK        -0.1800 
     77 C          -4.1573  -25.0062  -46.1639 C.2       13 UNK         0.5000 
     78 O          -5.0858  -25.7241  -46.5349 O.2       13 UNK        -0.5000 
     79 N          -2.8641  -25.3428  -46.2765 N.am      14 UNK        -0.5000 
     80 CA         -2.3750  -26.5884  -46.8730 C.3       14 UNK         0.1400 
     81 CB         -0.8665  -26.7259  -46.6176 C.3       14 UNK        -0.1800 
     82 C          -2.6829  -26.6948  -48.3776 C.2       14 UNK         0.5000 
     83 O          -3.0385  -27.7753  -48.8498 O.2       14 UNK        -0.5000 
     84 N          -2.5690  -25.5692  -49.0957 N.am      15 UNK        -0.5000 
     85 CA         -2.9180  -25.4455  -50.5114 C.3       15 UNK         0.1400 
     86 CB         -2.3107  -24.1488  -51.0650 C.3       15 UNK        -0.1800 
     87 C          -4.4367  -25.4715  -50.7715 C.2       15 UNK         0.5000 
     88 O          -4.8451  -25.7253  -51.9047 O.2       15 UNK        -0.5000 
     89 N          -5.2399  -25.1743  -49.7390 N.am      16 UNK        -0.5000 
     90 CA         -6.7084  -25.1395  -49.6670 C.3       16 UNK         0.1400 
     91 CB         -7.3140  -26.5155  -50.0005 C.3       16 UNK        -0.1800 
     92 C          -7.3805  -24.0217  -50.4913 C.2       16 UNK         0.5000 
     93 O          -8.4288  -23.5208  -50.0841 O.2       16 UNK        -0.5000 
     94 N          -6.7653  -23.6270  -51.6119 N.am      17 UNK        -0.5000 
     95 CA         -7.2020  -22.5556  -52.5092 C.3       17 UNK         0.1400 
     96 CB         -6.4624  -22.7163  -53.8479 C.3       17 UNK        -0.1800 
     97 C          -6.9854  -21.1364  -51.9437 C.2       17 UNK         0.5000 
     98 O          -7.4303  -20.1716  -52.5664 O.2       17 UNK        -0.5000 
     99 N          -6.2747  -21.0239  -50.8112 N.am      18 UNK        -0.5000 
    100 CA        -5.9044  -19.8168  -50.0604 C.3       18 UNK         0.1400 
    101 CB        -7.1377  -19.0065  -49.6205 C.3       18 UNK        -0.1800 
    102 C         -4.8679  -18.9287  -50.7727 C.2       18 UNK         0.5000 
    103 O         -3.8750  -18.5481  -50.1569 O.2       18 UNK        -0.5000 
    104 N         -5.0892  -18.6456  -52.0608 N.am      19 UNK        -0.5000 
    105 CA        -4.1424  -17.9588  -52.9416 C.3       19 UNK         0.1400 
    106 CB        -4.9167  -17.3508  -54.1208 C.3       19 UNK        -0.1800 
    107 C         -3.0322  -18.8947  -53.4590 C.2       19 UNK         0.5000 
    108 O         -2.0190  -18.4078  -53.9599 O.2       19 UNK        -0.5000 
    109 N         -3.2618  -20.2151  -53.3640 N.am      20 UNK        -0.5000 
    110 CA        -2.3709  -21.3137  -53.7636 C.3       20 UNK         0.1400 
    111 CB        -1.1237  -21.3425  -52.8565 C.3       20 UNK        -0.1800 
    112 C         -2.0060  -21.3197  -55.2658 C.2       20 UNK         0.5000 
    113 O         -0.9910  -21.9029  -55.6461 O.2       20 UNK        -0.5000 
    114 N         -2.8279  -20.6506  -56.0889 N.am      21 UNK        -0.5000 
    115 CA        -2.6834  -20.3616  -57.5233 C.3       21 UNK         0.1400 
    116 CB        -2.5827  -21.6516  -58.3597 C.3       21 UNK        -0.1800 
    117 C         -1.5429  -19.3784  -57.8657 C.2       21 UNK         0.5000 
    118 O         -1.7199  -18.5433  -58.7537 O.2       21 UNK        -0.5000 
    119 N         -0.4090  -19.4774  -57.1646 N.am      22 UNK        -0.5000 
    120 CA         0.7555  -18.5875  -57.2815 C.3       22 UNK         0.1400 
    121 C          0.5536  -17.1546  -56.7083 C.2       22 UNK         0.5000 
    122 N         -0.3914  -16.9128  -55.8081 N.am      22 UNK        -0.7600 
    123 O          1.2684  -16.2361  -57.1001 O.2       22 UNK        -0.5000 
    124 C124        2.0488  -19.2499  -56.7331 C.3       23 UNK        -0.0398 
    125 S125        1.8649  -19.9765  -55.0666 S.3       23 UNK        -0.2404 
    126 C126        2.5631  -18.6739  -54.0109 C.3       23 UNK        -0.0205 
    127 H127       -5.3562  -11.4132  -48.4490 H         1 UNK         0.0600 
    128 H128       -5.9070  -12.2624  -47.0010 H         1 UNK         0.0600 
    129 H129       -5.8972  -13.0907  -48.5610 H         1 UNK         0.0600 
    130 H130       -4.1989  -14.5101  -48.7558 H         1 UNK         0.3000 
    131 H131       -1.5011  -13.8554  -48.4570 H         1 UNK         0.0600 
    132 H132       -2.6171  -15.7447  -49.8551 H         1 UNK         0.0800 
    133 H133       -2.5879  -16.7186  -48.4138 H         1 UNK         0.0800 
    134 H134       -1.3733  -17.6668  -51.0652 H         1 UNK         0.0800 
    135 H135       -1.2057  -18.5843  -49.5893 H         1 UNK         0.0800 
    136 H136        0.3898  -17.6645  -52.7274 H         1 UNK         0.1150 
    137 H137        3.8022  -20.1789  -52.1076 H         1 UNK         0.1150 
    138 H138        1.0472  -19.4459  -48.8942 H         1 UNK         0.1150 
    139 H139        4.2845  -21.0996  -50.0010 H         1 UNK         0.0800 
    140 H140        3.6939  -20.2223  -48.6188 H         1 UNK         0.0800 
    141 H141        1.6998  -20.7633  -47.2737 H         1 UNK         0.0800 
    142 H142        2.8489  -21.9082  -46.6563 H         1 UNK         0.0800 
    143 H143        1.1088  -23.7192  -46.7829 H         1 UNK         0.0600 
    144 H144        1.2232  -21.6227  -44.8998 H         1 UNK         0.3000 
    145 H145       -1.0934  -22.9520  -42.5173 H         1 UNK         0.0600 
    146 H146        0.9250  -22.5977  -41.1214 H         1 UNK         0.0600 
    147 H147        1.9405  -22.5090  -42.5577 H         1 UNK         0.0600 
    148 H148        1.1327  -24.0150  -42.1400 H         1 UNK         0.0600 
    149 H149        0.3894  -20.5328  -42.5091 H         1 UNK         0.3000 
    150 H150       -2.0667  -18.5005  -44.1769 H         1 UNK         0.0600 
    151 H151       -2.7011  -18.5275  -41.8151 H         1 UNK         0.0600 
    152 H152       -1.5484  -17.2193  -42.0401 H         1 UNK         0.0600 
    153 H153       -1.0365  -18.7277  -41.2982 H         1 UNK         0.0600 
    154 H154        0.5104  -17.8158  -43.2265 H         1 UNK         0.3000 
    155 H155        2.3719  -18.6748  -46.1696 H         1 UNK         0.0600 
    156 H156        1.4886  -16.4367  -46.6516 H         1 UNK         0.0600 
    157 H157        3.0559  -16.2881  -45.8727 H         1 UNK         0.0600 
    158 H158        1.5783  -15.9773  -44.9617 H         1 UNK         0.0600 
    159 H159        3.0424  -17.5602  -43.5973 H         1 UNK         0.3000 
    160 H160        3.7841  -20.6682  -42.0076 H         1 UNK         0.0600 
    161 H161        5.6125  -18.4233  -43.0255 H         1 UNK         0.0600 
    162 H162        5.8143  -20.1379  -43.3664 H         1 UNK         0.0600 
    163 H163        5.9802  -19.5504  -41.7197 H         1 UNK         0.0600 
    164 H164        4.0217  -17.9279  -41.1951 H         1 UNK         0.3000 
    165 H165        0.7059  -17.4789  -40.0106 H         1 UNK         0.0600 
    166 H166        1.8679  -16.9906  -37.8746 H         1 UNK         0.0600 
    167 H167        1.7925  -18.7252  -38.1386 H         1 UNK         0.0600 
    168 H168        3.3005  -17.8633  -38.4204 H         1 UNK         0.0600 
    169 H169        3.0593  -15.8621  -39.8643 H         1 UNK         0.3000 
    170 H170        2.9991  -13.8506  -41.1546 H         1 UNK         0.0600 
    171 H171        4.1691  -15.5425  -43.4581 H         1 UNK         0.0600 
    172 H172        4.9141  -14.1135  -42.7514 H         1 UNK         0.0600 
    173 H173        4.7716  -15.5757  -41.8050 H         1 UNK         0.0600 
    174 H174        1.3237  -14.2160  -43.3984 H         1 UNK         0.3000 
    175 H175        1.8268  -10.9251  -44.7546 H         1 UNK         0.0600 
    176 H176        1.8498  -13.6953  -46.0574 H         1 UNK         0.0600 
    177 H177        1.3956  -12.1913  -46.8545 H         1 UNK         0.0600 
    178 H178        3.0443  -12.4287  -46.2934 H         1 UNK         0.0600 
    179 H179       -0.2778  -12.8728  -45.0022 H         1 UNK         0.3000 
    180 H180       -2.2463  -11.8110  -42.3325 H         1 UNK         0.0600 
    181 H181       -3.8726  -10.7701  -43.9424 H         1 UNK         0.0600 
    182 H182       -2.5405  -10.4260  -45.0469 H         1 UNK         0.0600 
    183 H183       -2.5947   -9.6625  -43.4660 H         1 UNK         0.0600 
    184 H184       -2.7829  -12.9329  -44.9768 H         1 UNK         0.3000 
    185 H185       -1.8258  -16.1699  -44.2061 H         1 UNK         0.0600 
    186 H186       -4.7860  -15.4074  -43.9214 H         1 UNK         0.0600 
    187 H187       -4.1598  -17.0151  -44.2894 H         1 UNK         0.0600 
    188 H188       -3.8582  -16.2912  -42.7183 H         1 UNK         0.0600 
    189 H189       -3.7254  -15.2971  -46.1290 H         1 UNK         0.3000 
    190 H190       -0.8157  -20.6769  -46.5991 H         1 UNK         0.3000 
    191 H191       -2.4788  -21.0444  -48.8184 H         1 UNK         0.0600 
    192 H192       -2.3024  -18.9237  -47.5486 H         1 UNK         0.0600 
    193 H193       -3.0330  -19.6626  -46.1331 H         1 UNK         0.0600 
    194 H194       -3.9807  -19.4298  -47.5847 H         1 UNK         0.0600 
    195 H195       -2.9725  -22.1297  -45.4320 H         1 UNK         0.3000 
    196 H196       -5.4997  -23.3730  -45.8305 H         1 UNK         0.0600 
    197 H197       -4.6711  -22.7007  -43.5997 H         1 UNK         0.0600 
    198 H198       -3.3524  -23.8642  -43.6994 H         1 UNK         0.0600 
    199 H199       -5.0188  -24.4233  -43.6128 H         1 UNK         0.0600 
    200 H200       -2.1583  -24.7145  -45.9012 H         1 UNK         0.3000 
    201 H201       -2.8799  -27.4175  -46.3731 H         1 UNK         0.0600 
    202 H202       -0.6482  -26.7442  -45.5498 H         1 UNK         0.0600 
    203 H203       -0.3070  -25.9007  -47.0592 H         1 UNK         0.0600 
    204 H204       -0.4797  -27.6520  -47.0445 H         1 UNK         0.0600 
    205 H205       -2.1896  -24.7383  -48.6477 H         1 UNK         0.3000 
    206 H206       -2.4764  -26.2870  -51.0490 H         1 UNK         0.0600 
    207 H207       -2.7261  -23.2673  -50.5744 H         1 UNK         0.0600 
    208 H208       -1.2292  -24.1282  -50.9290 H         1 UNK         0.0600 
    209 H209       -2.5034  -24.0578  -52.1337 H         1 UNK         0.0600 
    210 H210       -4.7790  -24.9208  -48.8746 H         1 UNK         0.3000 
    211 H211       -6.9384  -24.9266  -48.6219 H         1 UNK         0.0600 
    212 H212       -7.1498  -26.7928  -51.0420 H         1 UNK         0.0600 
    213 H213       -8.3913  -26.5174  -49.8300 H         1 UNK         0.0600 
    214 H214       -6.8842  -27.2961  -49.3725 H         1 UNK         0.0600 
    215 H215       -5.9476  -24.1588  -51.8941 H         1 UNK         0.3000 
    216 H216       -8.2723  -22.6722  -52.6901 H         1 UNK         0.0600 
    217 H217       -6.7716  -21.9549  -54.5653 H         1 UNK         0.0600 
    218 H218       -6.6725  -23.6866  -54.2983 H         1 UNK         0.0600 
    219 H219       -5.3826  -22.6337  -53.7239 H         1 UNK         0.0600 
    220 H220       -5.9378  -21.8860  -50.4041 H         1 UNK         0.3000 
    221 H221       -5.4288  -20.1883  -49.1540 H         1 UNK         0.0600 
    222 H222       -7.6663  -18.5682  -50.4672 H         1 UNK         0.0600 
    223 H223       -7.8425  -19.6308  -49.0712 H         1 UNK         0.0600 
    224 H224       -6.8467  -18.1874  -48.9616 H         1 UNK         0.0600 
    225 H225       -5.9506  -18.9929  -52.4751 H         1 UNK         0.3000 
    226 H226       -3.6619  -17.1482  -52.3894 H         1 UNK         0.0600 
    227 H227       -5.6648  -16.6379  -53.7737 H         1 UNK         0.0600 
    228 H228       -4.2471  -16.8151  -54.7953 H         1 UNK         0.0600 
    229 H229       -5.4293  -18.1165  -54.7046 H         1 UNK         0.0600 
    230 H230       -4.1362  -20.4930  -52.9451 H         1 UNK         0.3000 
    231 H231       -2.9284  -22.2339  -53.5904 H         1 UNK         0.0600 
    232 H232       -0.5380  -22.2480  -53.0182 H         1 UNK         0.0600 
    233 H233       -1.3958  -21.3157  -51.8012 H         1 UNK         0.0600 
    234 H234       -0.4685  -20.4945  -53.0521 H         1 UNK         0.0600 
    235 H235       -3.6153  -20.1958  -55.6508 H         1 UNK         0.3000 
    236 H236       -3.6114  -19.8643  -57.8099 H         1 UNK         0.0600 
    237 H237       -1.6534  -22.1902  -58.1730 H         1 UNK         0.0600 
    238 H238       -3.4117  -22.3263  -58.1463 H         1 UNK         0.0600 
    239 H239       -2.6146  -21.4240  -59.4258 H         1 UNK         0.0600 
    240 H240       -0.3426  -20.2095  -56.4649 H         1 UNK         0.3000 
    241 H241        0.9205  -18.4392  -58.3506 H         1 UNK         0.0600 
    242 H242       -0.5057  -15.9737  -55.4643 H         1 UNK         0.3800 
    243 H243       -0.9482  -17.6569  -55.3984 H         1 UNK         0.3800 
    244 H244        2.8902  -18.5545  -56.7475 H         1 UNK         0.0800 
    245 H245        2.3368  -20.0620  -57.4018 H         1 UNK         0.0800 
    246 H246        2.2230  -17.6946  -54.3497 H         1 UNK         0.0800 
    247 H247        3.6503  -18.6738  -54.1012 H         1 UNK         0.0800 
@<TRIPOS>BOND
     1    1    2 1    
     2    1  127 1    
     3    1  128 1    
     4    1  129 1    
     5    2    3 2    
     6    2    4 am   BACKBONE|DICT|INTERRES
     7    4    5 1    
     8    4  130 1    
     9    5    6 1    
    10    5   65 1    
    11    5  131 1    
    12    6    7 1    
    13    6  132 1    
    14    6  133 1    
    15    7    8 1    
    16    8    9 1    
    17    8  134 1    
    18    8  135 1    
    19    9   10 ar   
    20    9   14 ar   
    21   10   11 ar   
    22   10  136 1    
    23   11   12 ar   
    24   11  126 1    
    25   12   13 ar   
    26   12  137 1    
    27   13   14 ar   
    28   13   15 1    
    29   14  138 1    
    30   15   16 1    
    31   15  139 1    
    32   15  140 1    
    33   16   17 1    
    34   17   18 1    
    35   17  141 1    
    36   17  142 1    
    37   18   19 1    
    38   18   67 1    
    39   18  143 1    
    40   19   20 am   BACKBONE|DICT|INTERRES
    41   19  144 1    
    42   20   21 2    
    43   20   22 1    
    44   22   23 1    
    45   22   24 1    
    46   22  145 1    
    47   23  146 1    
    48   23  147 1    
    49   23  148 1    
    50   24   25 am   BACKBONE|DICT|INTERRES
    51   24  149 1    
    52   25   26 2    
    53   25   27 1    
    54   27   28 1    
    55   27   29 1    
    56   27  150 1    
    57   28  151 1    
    58   28  152 1    
    59   28  153 1    
    60   29   30 am   BACKBONE|DICT|INTERRES
    61   29  154 1    
    62   30   31 2    
    63   30   32 1    
    64   32   33 1    
    65   32   34 1    
    66   32  155 1    
    67   33  156 1    
    68   33  157 1    
    69   33  158 1    
    70   34   35 am   BACKBONE|DICT|INTERRES
    71   34  159 1    
    72   35   36 2    
    73   35   37 1    
    74   37   38 1    
    75   37   39 1    
    76   37  160 1    
    77   38  161 1    
    78   38  162 1    
    79   38  163 1    
    80   39   40 am   BACKBONE|DICT|INTERRES
    81   39  164 1    
    82   40   41 2    
    83   40   42 1    
    84   42   43 1    
    85   42   44 1    
    86   42  165 1    
    87   43  166 1    
    88   43  167 1    
    89   43  168 1    
    90   44   45 am   BACKBONE|DICT|INTERRES
    91   44  169 1    
    92   45   46 2    
    93   45   47 1    
    94   47   48 1    
    95   47   49 1    
    96   47  170 1    
    97   48  171 1    
    98   48  172 1    
    99   48  173 1    
   100   49   50 am   BACKBONE|DICT|INTERRES
   101   49  174 1    
   102   50   51 2    
   103   50   52 1    
   104   52   53 1    
   105   52   54 1    
   106   52  175 1    
   107   53  176 1    
   108   53  177 1    
   109   53  178 1    
   110   54   55 am   BACKBONE|DICT|INTERRES
   111   54  179 1    
   112   55   56 2    
   113   55   57 1    
   114   57   58 1    
   115   57   59 1    
   116   57  180 1    
   117   58  181 1    
   118   58  182 1    
   119   58  183 1    
   120   59   60 am   BACKBONE|DICT|INTERRES
   121   59  184 1    
   122   60   61 2    
   123   60   62 1    
   124   62   63 1    
   125   62   64 1    
   126   62  185 1    
   127   63  186 1    
   128   63  187 1    
   129   63  188 1    
   130   64   65 am   BACKBONE|DICT|INTERRES
   131   64  189 1    
   132   65   66 2    
   133   67   68 2    
   134   67   69 am   BACKBONE|DICT|INTERRES
   135   69   70 1    
   136   69  190 1    
   137   70   71 1    
   138   70   72 1    
   139   70  191 1    
   140   71  192 1    
   141   71  193 1    
   142   71  194 1    
   143   72   73 2    
   144   72   74 am   BACKBONE|DICT|INTERRES
   145   74   75 1    
   146   74  195 1    
   147   75   76 1    
   148   75   77 1    
   149   75  196 1    
   150   76  197 1    
   151   76  198 1    
   152   76  199 1    
   153   77   78 2    
   154   77   79 am   BACKBONE|DICT|INTERRES
   155   79   80 1    
   156   79  200 1    
   157   80   81 1    
   158   80   82 1    
   159   80  201 1    
   160   81  202 1    
   161   81  203 1    
   162   81  204 1    
   163   82   83 2    
   164   82   84 am   BACKBONE|DICT|INTERRES
   165   84   85 1    
   166   84  205 1    
   167   85   86 1    
   168   85   87 1    
   169   85  206 1    
   170   86  207 1    
   171   86  208 1    
   172   86  209 1    
   173   87   88 2    
   174   87   89 am   BACKBONE|DICT|INTERRES
   175   89   90 1    
   176   89  210 1    
   177   90   91 1    
   178   90   92 1    
   179   90  211 1    
   180   91  212 1    
   181   91  213 1    
   182   91  214 1    
   183   92   93 2    
   184   92   94 am   BACKBONE|DICT|INTERRES
   185   94   95 1    
   186   94  215 1    
   187   95   96 1    
   188   95   97 1    
   189   95  216 1    
   190   96  217 1    
   191   96  218 1    
   192   96  219 1    
   193   97   98 2    
   194   97   99 am   BACKBONE|DICT|INTERRES
   195   99  100 1    
   196   99  220 1    
   197  100  101 1    
   198  100  102 1    
   199  100  221 1    
   200  101  222 1    
   201  101  223 1    
   202  101  224 1    
   203  102  103 2    
   204  102  104 am   BACKBONE|DICT|INTERRES
   205  104  105 1    
   206  104  225 1    
   207  105  106 1    
   208  105  107 1    
   209  105  226 1    
   210  106  227 1    
   211  106  228 1    
   212  106  229 1    
   213  107  108 2    
   214  107  109 am   BACKBONE|DICT|INTERRES
   215  109  110 1    
   216  109  230 1    
   217  110  111 1    
   218  110  112 1    
   219  110  231 1    
   220  111  232 1    
   221  111  233 1    
   222  111  234 1    
   223  112  113 2    
   224  112  114 am   BACKBONE|DICT|INTERRES
   225  114  115 1    
   226  114  235 1    
   227  115  116 1    
   228  115  117 1    
   229  115  236 1    
   230  116  237 1    
   231  116  238 1    
   232  116  239 1    
   233  117  118 2    
   234  117  119 am   BACKBONE|DICT|INTERRES
   235  119  120 1    
   236  119  240 1    
   237  120  121 1    
   238  120  124 1    
   239  120  241 1    
   240  121  122 am   BACKBONE|DICT|INTERRES
   241  121  123 2    
   242  122  242 1    
   243  122  243 1    
   244  124  125 1    
   245  124  244 1    
   246  124  245 1    
   247  125  126 1    
   248  126  246 1    
   249  126  247 1    
@<TRIPOS>SUBSTRUCTURE
     1 UNK         1 GROUP             0       ****    0 ROOT    
