@<TRIPOS>MOLECULE
3R540
247   249    1
SMALL
USER_CHARGES


@<TRIPOS>ATOM
      1 CA         -4.0325  -15.3817  -46.6435 C.3       0 UNK        -0.1800 
      2 C          -3.6174  -14.3376  -47.6721 C.2       0 UNK         0.5000 
      3 O          -4.4455  -13.5272  -48.0895 O.2       0 UNK        -0.5000 
      4 N          -2.3434  -14.3589  -48.0800 N.am      1 UNK        -0.5000 
      5 CA         -1.7382  -13.4035  -49.0117 C.3       1 UNK         0.1400 
      6 C6         -0.4587  -13.9841  -49.6701 C.3       23 UNK        -0.0398 
      7 S7          0.8429  -14.4652  -48.4841 S.3       23 UNK        -0.2404 
      8 C8          2.0720  -15.2435  -49.5761 C.3       23 UNK        -0.0205 
      9 C9          1.6220  -16.5937  -50.1217 C.ar      23 UNK        -0.0193 
     10 C10         1.0917  -16.6873  -51.4127 C.ar      23 UNK        -0.1150 
     11 C11         0.7623  -17.9315  -51.9632 C.ar      23 UNK        -0.0193 
     12 C12         0.9436  -19.0833  -51.1939 C.ar      23 UNK        -0.1150 
     13 C13         1.4508  -19.0061  -49.8940 C.ar      23 UNK        -0.0193 
     14 C14         1.7890  -17.7570  -49.3617 C.ar      23 UNK        -0.1150 
     15 C15         1.6678  -20.2849  -49.0973 C.3       23 UNK        -0.0205 
     16 S16         0.0909  -21.0688  -48.6397 S.3       23 UNK        -0.2404 
     17 C17         0.6518  -22.7577  -48.2271 C.3       23 UNK        -0.0398 
     18 CA         -0.2647  -23.5505  -47.2607 C.3       11 UNK         0.1400 
     19 N          -0.2182  -23.0522  -45.8793 N.am      11 UNK        -0.5000 
     20 C          -0.6711  -23.7479  -44.8241 C.2       10 UNK         0.5000 
     21 O          -1.2002  -24.8536  -44.9203 O.2       10 UNK        -0.5000 
     22 CA         -0.5526  -23.1050  -43.4319 C.3       10 UNK         0.1400 
     23 CB          0.8920  -23.1756  -42.9172 C.3       10 UNK        -0.1800 
     24 N          -1.0335  -21.7259  -43.3879 N.am      10 UNK        -0.5000 
     25 C          -2.2932  -21.3476  -43.6501 C.2       9 UNK         0.5000 
     26 O          -3.1902  -22.1227  -43.9805 O.2       9 UNK        -0.5000 
     27 CA         -2.5866  -19.8401  -43.5738 C.3       9 UNK         0.1400 
     28 CB         -2.7661  -19.3779  -42.1200 C.3       9 UNK        -0.1800 
     29 N          -1.5256  -19.0665  -44.2130 N.am      9 UNK        -0.5000 
     30 C          -1.3117  -19.0571  -45.5355 C.2       8 UNK         0.5000 
     31 O          -2.0539  -19.6055  -46.3489 O.2       8 UNK        -0.5000 
     32 CA         -0.0375  -18.3445  -46.0159 C.3       8 UNK         0.1400 
     33 CB         -0.2871  -16.8408  -46.1774 C.3       8 UNK        -0.1800 
     34 N           1.0878  -18.5520  -45.1044 N.am      8 UNK        -0.5000 
     35 C           1.7345  -19.7172  -44.9479 C.2       7 UNK         0.5000 
     36 O           1.4530  -20.7445  -45.5614 O.2       7 UNK        -0.5000 
     37 CA          2.8697  -19.7572  -43.9072 C.3       7 UNK         0.1400 
     38 CB          4.2085  -19.3995  -44.5692 C.3       7 UNK        -0.1800 
     39 N           2.6451  -18.8658  -42.7705 N.am      7 UNK        -0.5000 
     40 C           1.6124  -18.9376  -41.9179 C.2       6 UNK         0.5000 
     41 O           0.7563  -19.8218  -41.9536 O.2       6 UNK        -0.5000 
     42 CA          1.4840  -17.7828  -40.9037 C.3       6 UNK         0.1400 
     43 CB          2.1760  -18.1462  -39.5819 C.3       6 UNK        -0.1800 
     44 N           2.0333  -16.5180  -41.4103 N.am      6 UNK        -0.5000 
     45 C           1.5525  -15.8620  -42.4754 C.2       5 UNK         0.5000 
     46 O           0.5649  -16.2342  -43.1119 O.2       5 UNK        -0.5000 
     47 CA          2.3682  -14.6545  -42.9667 C.3       5 UNK         0.1400 
     48 CB          3.4421  -15.1175  -43.9649 C.3       5 UNK        -0.1800 
     49 N           1.5251  -13.6613  -43.6264 N.am      5 UNK        -0.5000 
     50 C           0.6875  -12.8266  -42.9987 C.2       4 UNK         0.5000 
     51 O           0.5440  -12.8041  -41.7744 O.2       4 UNK        -0.5000 
     52 CA         -0.1102  -11.8505  -43.8932 C.3       4 UNK         0.1400 
     53 CB         -0.5820  -10.5925  -43.1351 C.3       4 UNK        -0.1800 
     54 N           0.5842  -11.4709  -45.1309 N.am      4 UNK        -0.5000 
     55 C           1.7740  -10.8562  -45.2490 C.2       3 UNK         0.5000 
     56 O           2.4799  -10.5340  -44.2927 O.2       3 UNK        -0.5000 
     57 CA          2.2717  -10.5525  -46.6782 C.3       3 UNK         0.1400 
     58 CB          3.2766  -11.6236  -47.1308 C.3       3 UNK        -0.1800 
     59 N           1.1912  -10.4667  -47.6625 N.am      3 UNK        -0.5000 
     60 C           0.2855   -9.4793  -47.7174 C.2       2 UNK         0.5000 
     61 O           0.3327   -8.4740  -47.0075 O.2       2 UNK        -0.5000 
     62 CA         -0.8837   -9.6435  -48.7131 C.3       2 UNK         0.1400 
     63 CB         -0.6477   -8.7793  -49.9615 C.3       2 UNK        -0.1800 
     64 N          -1.1544  -11.0232  -49.1386 N.am      2 UNK        -0.5000 
     65 C          -1.4760  -12.0425  -48.3289 C.2       1 UNK         0.5000 
     66 O          -1.5250  -11.9409  -47.0996 O.2       1 UNK        -0.5000 
     67 C          -1.7051  -23.7039  -47.7965 C.2       11 UNK         0.5000 
     68 O          -1.9592  -24.5909  -48.6169 O.2       11 UNK        -0.5000 
     69 N          -2.6245  -22.8609  -47.3076 N.am      12 UNK        -0.5000 
     70 CA         -4.0529  -22.9657  -47.5736 C.3       12 UNK         0.1400 
     71 CB         -4.7495  -21.6442  -47.2170 C.3       12 UNK        -0.1800 
     72 C          -4.6706  -24.1620  -46.8292 C.2       12 UNK         0.5000 
     73 O          -5.2997  -25.0073  -47.4652 O.2       12 UNK        -0.5000 
     74 N          -4.4395  -24.2382  -45.5098 N.am      13 UNK        -0.5000 
     75 CA         -4.9596  -25.2801  -44.6183 C.3       13 UNK         0.1400 
     76 CB         -4.6094  -24.9291  -43.1645 C.3       13 UNK        -0.1800 
     77 C          -4.4702  -26.6999  -44.9594 C.2       13 UNK         0.5000 
     78 O          -5.2501  -27.6485  -44.8675 O.2       13 UNK        -0.5000 
     79 N          -3.2015  -26.8197  -45.3721 N.am      14 UNK        -0.5000 
     80 CA         -2.5797  -28.0690  -45.8180 C.3       14 UNK         0.1400 
     81 CB         -1.0515  -27.9050  -45.7748 C.3       14 UNK        -0.1800 
     82 C          -3.0236  -28.5114  -47.2270 C.2       14 UNK         0.5000 
     83 O          -2.6864  -29.6234  -47.6349 O.2       14 UNK        -0.5000 
     84 N          -3.7348  -27.6338  -47.9526 N.am      15 UNK        -0.5000 
     85 CA         -4.1826  -27.7827  -49.3410 C.3       15 UNK         0.1400 
     86 CB         -5.1824  -28.9482  -49.4877 C.3       15 UNK        -0.1800 
     87 C          -3.0186  -27.8489  -50.3529 C.2       15 UNK         0.5000 
     88 O          -3.1775  -28.4094  -51.4383 O.2       15 UNK        -0.5000 
     89 N          -1.8730  -27.2562  -49.9874 N.am      16 UNK        -0.5000 
     90 CA         -0.6952  -27.1197  -50.8418 C.3       16 UNK         0.1400 
     91 CB          0.5390  -26.8367  -49.9703 C.3       16 UNK        -0.1800 
     92 C          -0.9101  -26.0093  -51.8824 C.2       16 UNK         0.5000 
     93 O          -0.6686  -26.2267  -53.0701 O.2       16 UNK        -0.5000 
     94 N          -1.4043  -24.8581  -51.4101 N.am      17 UNK        -0.5000 
     95 CA         -1.8632  -23.7461  -52.2409 C.3       17 UNK         0.1400 
     96 CB         -1.3745  -22.4254  -51.6271 C.3       17 UNK        -0.1800 
     97 C          -3.3969  -23.7304  -52.3507 C.2       17 UNK         0.5000 
     98 O          -3.9211  -23.1953  -53.3264 O.2       17 UNK        -0.5000 
     99 N          -4.0882  -24.2742  -51.3343 N.am      18 UNK        -0.5000 
    100 CA        -5.5448  -24.2909  -51.1099 C.3       18 UNK         0.1400 
    101 CB        -6.3004  -24.9702  -52.2668 C.3       18 UNK        -0.1800 
    102 C         -6.1418  -22.9104  -50.7655 C.2       18 UNK         0.5000 
    103 O         -6.9959  -22.8250  -49.8836 O.2       18 UNK        -0.5000 
    104 N         -5.6410  -21.8543  -51.4081 N.am      19 UNK        -0.5000 
    105 CA        -5.8437  -20.4576  -51.0601 C.3       19 UNK         0.1400 
    106 CB        -7.0560  -19.8916  -51.8168 C.3       19 UNK        -0.1800 
    107 C         -4.5552  -19.7173  -51.4330 C.2       19 UNK         0.5000 
    108 O         -4.0277  -19.9300  -52.5279 O.2       19 UNK        -0.5000 
    109 N         -4.0675  -18.8552  -50.5357 N.am      20 UNK        -0.5000 
    110 CA        -2.8581  -18.0554  -50.7312 C.3       20 UNK         0.1400 
    111 CB        -2.2504  -17.7231  -49.3600 C.3       20 UNK        -0.1800 
    112 C         -3.1497  -16.8061  -51.5876 C.2       20 UNK         0.5000 
    113 O         -3.0622  -15.6800  -51.1003 O.2       20 UNK        -0.5000 
    114 N         -3.5320  -17.0408  -52.8475 N.am      21 UNK        -0.5000 
    115 CA        -3.7459  -16.0218  -53.8701 C.3       21 UNK         0.1400 
    116 CB        -4.8615  -16.5013  -54.8203 C.3       21 UNK        -0.1800 
    117 C         -2.4058  -15.7300  -54.5733 C.2       21 UNK         0.5000 
    118 O         -1.5995  -14.9733  -54.0341 O.2       21 UNK        -0.5000 
    119 N         -2.1970  -16.3517  -55.7428 N.am      22 UNK        -0.5000 
    120 CA        -0.9805  -16.3650  -56.5818 C.3       22 UNK         0.1400 
    121 C         -0.3867  -14.9918  -57.0304 C.2       22 UNK         0.5000 
    122 N         -1.0976  -13.8810  -56.8875 N.am      22 UNK        -0.7600 
    123 O          0.7152  -14.9349  -57.5703 O.2       22 UNK        -0.5000 
    124 C124        0.0807  -17.4037  -56.1103 C.3       23 UNK        -0.0398 
    125 S125        1.0157  -16.9852  -54.5969 S.3       23 UNK        -0.2404 
    126 C126        0.1912  -18.0565  -53.3725 C.3       23 UNK        -0.0205 
    127 H127       -4.4044  -14.8933  -45.7427 H         1 UNK         0.0600 
    128 H128       -4.8281  -16.0087  -47.0462 H         1 UNK         0.0600 
    129 H129       -3.2031  -16.0291  -46.3592 H         1 UNK         0.0600 
    130 H130       -1.6968  -15.0167  -47.6730 H         1 UNK         0.3000 
    131 H131       -2.4595  -13.2211  -49.8113 H         1 UNK         0.0600 
    132 H132       -0.0365  -13.2827  -50.3912 H         1 UNK         0.0800 
    133 H133       -0.7301  -14.8645  -50.2508 H         1 UNK         0.0800 
    134 H134        2.9979  -15.3750  -49.0144 H         1 UNK         0.0800 
    135 H135        2.3123  -14.5617  -50.3933 H         1 UNK         0.0800 
    136 H136        0.9534  -15.7897  -51.9989 H         1 UNK         0.1150 
    137 H137        0.6885  -20.0502  -51.6041 H         1 UNK         0.1150 
    138 H138        2.2004  -17.6892  -48.3643 H         1 UNK         0.1150 
    139 H139        2.2573  -20.9775  -49.6996 H         1 UNK         0.0800 
    140 H140        2.2455  -20.0886  -48.1929 H         1 UNK         0.0800 
    141 H141        0.7620  -23.3064  -49.1639 H         1 UNK         0.0800 
    142 H142        1.6542  -22.6992  -47.8005 H         1 UNK         0.0800 
    143 H143        0.1415  -24.5638  -47.2254 H         1 UNK         0.0600 
    144 H144        0.2324  -22.1504  -45.7365 H         1 UNK         0.3000 
    145 H145       -1.1772  -23.6841  -42.7486 H         1 UNK         0.0600 
    146 H146        0.9828  -22.7326  -41.9252 H         1 UNK         0.0600 
    147 H147        1.2269  -24.2110  -42.8440 H         1 UNK         0.0600 
    148 H148        1.5817  -22.6580  -43.5822 H         1 UNK         0.0600 
    149 H149       -0.3680  -21.0212  -43.0867 H         1 UNK         0.3000 
    150 H150       -3.5212  -19.6516  -44.1068 H         1 UNK         0.0600 
    151 H151       -3.5787  -19.9227  -41.6380 H         1 UNK         0.0600 
    152 H152       -3.0123  -18.3170  -42.0720 H         1 UNK         0.0600 
    153 H153       -1.8667  -19.5398  -41.5258 H         1 UNK         0.0600 
    154 H154       -0.8615  -18.6031  -43.6091 H         1 UNK         0.3000 
    155 H155        0.2384  -18.7453  -46.9904 H         1 UNK         0.0600 
    156 H156        0.6499  -16.3004  -46.3046 H         1 UNK         0.0600 
    157 H157       -0.8034  -16.4119  -45.3184 H         1 UNK         0.0600 
    158 H158       -0.9000  -16.6521  -47.0565 H         1 UNK         0.0600 
    159 H159        1.3297  -17.7702  -44.5104 H         1 UNK         0.3000 
    160 H160        2.9395  -20.7756  -43.5228 H         1 UNK         0.0600 
    161 H161        4.2099  -18.3771  -44.9497 H         1 UNK         0.0600 
    162 H162        4.4172  -20.0627  -45.4100 H         1 UNK         0.0600 
    163 H163        5.0359  -19.4983  -43.8663 H         1 UNK         0.0600 
    164 H164        3.3017  -18.1089  -42.6553 H         1 UNK         0.3000 
    165 H165        0.4201  -17.6353  -40.7063 H         1 UNK         0.0600 
    166 H166        3.2496  -18.2866  -39.7135 H         1 UNK         0.0600 
    167 H167        2.0274  -17.3690  -38.8321 H         1 UNK         0.0600 
    168 H168        1.7715  -19.0728  -39.1721 H         1 UNK         0.0600 
    169 H169        2.8511  -16.1599  -40.9376 H         1 UNK         0.3000 
    170 H170        2.8588  -14.1843  -42.1118 H         1 UNK         0.0600 
    171 H171        3.0007  -15.5996  -44.8387 H         1 UNK         0.0600 
    172 H172        4.0423  -14.2772  -44.3151 H         1 UNK         0.0600 
    173 H173        4.1258  -15.8323  -43.5054 H         1 UNK         0.0600 
    174 H174        1.5564  -13.6361  -44.6342 H         1 UNK         0.3000 
    175 H175       -1.0012  -12.3963  -44.2070 H         1 UNK         0.0600 
    176 H176       -1.1572   -9.9342  -43.7864 H         1 UNK         0.0600 
    177 H177       -1.2251  -10.8578  -42.2951 H         1 UNK         0.0600 
    178 H178        0.2575  -10.0214  -42.7377 H         1 UNK         0.0600 
    179 H179        0.0598  -11.6657  -45.9792 H         1 UNK         0.3000 
    180 H180        2.7870   -9.5900  -46.6515 H         1 UNK         0.0600 
    181 H181        3.6695  -11.4043  -48.1238 H         1 UNK         0.0600 
    182 H182        4.1268  -11.6729  -46.4493 H         1 UNK         0.0600 
    183 H183        2.8244  -12.6152  -47.1591 H         1 UNK         0.0600 
    184 H184        1.0804  -11.2535  -48.2847 H         1 UNK         0.3000 
    185 H185       -1.7813   -9.2777  -48.2105 H         1 UNK         0.0600 
    186 H186       -1.5116   -8.7995  -50.6262 H         1 UNK         0.0600 
    187 H187       -0.4748   -7.7369  -49.6901 H         1 UNK         0.0600 
    188 H188        0.2210   -9.1193  -50.5268 H         1 UNK         0.0600 
    189 H189       -1.1268  -11.1846  -50.1350 H         1 UNK         0.3000 
    190 H190       -2.3286  -22.1409  -46.6616 H         1 UNK         0.3000 
    191 H191       -4.1840  -23.1307  -48.6429 H         1 UNK         0.0600 
    192 H192       -5.8178  -21.6974  -47.4299 H         1 UNK         0.0600 
    193 H193       -4.3409  -20.8182  -47.7997 H         1 UNK         0.0600 
    194 H194       -4.6347  -21.3936  -46.1623 H         1 UNK         0.0600 
    195 H195       -3.9033  -23.4986  -45.0619 H         1 UNK         0.3000 
    196 H196       -6.0472  -25.2783  -44.7145 H         1 UNK         0.0600 
    197 H197       -4.9957  -25.6804  -42.4746 H         1 UNK         0.0600 
    198 H198       -5.0410  -23.9706  -42.8757 H         1 UNK         0.0600 
    199 H199       -3.5305  -24.8683  -43.0162 H         1 UNK         0.0600 
    200 H200       -2.5987  -25.9993  -45.3505 H         1 UNK         0.3000 
    201 H201       -2.8581  -28.8632  -45.1224 H         1 UNK         0.0600 
    202 H202       -0.7115  -27.6382  -44.7740 H         1 UNK         0.0600 
    203 H203       -0.7119  -27.1293  -46.4626 H         1 UNK         0.0600 
    204 H204       -0.5473  -28.8319  -46.0508 H         1 UNK         0.0600 
    205 H205       -3.9842  -26.7544  -47.5158 H         1 UNK         0.3000 
    206 H206       -4.7235  -26.8671  -49.5732 H         1 UNK         0.0600 
    207 H207       -5.9876  -28.8702  -48.7572 H         1 UNK         0.0600 
    208 H208       -5.6424  -28.9456  -50.4766 H         1 UNK         0.0600 
    209 H209       -4.7010  -29.9174  -49.3558 H         1 UNK         0.0600 
    210 H210       -1.8489  -26.7699  -49.1009 H         1 UNK         0.3000 
    211 H211       -0.5307  -28.0603  -51.3721 H         1 UNK         0.0600 
    212 H212        0.4340  -25.9125  -49.4021 H         1 UNK         0.0600 
    213 H213        1.4357  -26.7445  -50.5843 H         1 UNK         0.0600 
    214 H214        0.7122  -27.6462  -49.2610 H         1 UNK         0.0600 
    215 H215       -1.5554  -24.7741  -50.4084 H         1 UNK         0.3000 
    216 H216       -1.4533  -23.8261  -53.2498 H         1 UNK         0.0600 
    217 H217       -1.6474  -21.5766  -52.2557 H         1 UNK         0.0600 
    218 H218       -0.2897  -22.4165  -51.5219 H         1 UNK         0.0600 
    219 H219       -1.8107  -22.2537  -50.6425 H         1 UNK         0.0600 
    220 H220       -3.5420  -24.6503  -50.5730 H         1 UNK         0.3000 
    221 H221       -5.6974  -24.9073  -50.2241 H         1 UNK         0.0600 
    222 H222       -6.2521  -24.3885  -53.1874 H         1 UNK         0.0600 
    223 H223       -5.8963  -25.9616  -52.4724 H         1 UNK         0.0600 
    224 H224       -7.3552  -25.0937  -52.0185 H         1 UNK         0.0600 
    225 H225       -4.9538  -22.0161  -52.1409 H         1 UNK         0.3000 
    226 H226       -6.0104  -20.3661  -49.9845 H         1 UNK         0.0600 
    227 H227       -7.2073  -18.8382  -51.5786 H         1 UNK         0.0600 
    228 H228       -6.9277  -19.9705  -52.8972 H         1 UNK         0.0600 
    229 H229       -7.9701  -20.4217  -51.5489 H         1 UNK         0.0600 
    230 H230       -4.5670  -18.7024  -49.6720 H         1 UNK         0.3000 
    231 H231       -2.1188  -18.6522  -51.2696 H         1 UNK         0.0600 
    232 H232       -1.3567  -17.1080  -49.4667 H         1 UNK         0.0600 
    233 H233       -1.9506  -18.6321  -48.8395 H         1 UNK         0.0600 
    234 H234       -2.9542  -17.1872  -48.7248 H         1 UNK         0.0600 
    235 H235       -3.6150  -18.0090  -53.1387 H         1 UNK         0.3000 
    236 H236       -4.0810  -15.0921  -53.4053 H         1 UNK         0.0600 
    237 H237       -4.6458  -17.4783  -55.2546 H         1 UNK         0.0600 
    238 H238       -5.8095  -16.5854  -54.2883 H         1 UNK         0.0600 
    239 H239       -5.0150  -15.7947  -55.6370 H         1 UNK         0.0600 
    240 H240       -2.9529  -16.9201  -56.0965 H         1 UNK         0.3000 
    241 H241       -1.3525  -16.7633  -57.5265 H         1 UNK         0.0600 
    242 H242       -0.7134  -13.0018  -57.1962 H         1 UNK         0.3800 
    243 H243       -1.9931  -13.9044  -56.4272 H         1 UNK         0.3800 
    244 H244        0.8115  -17.5622  -56.9049 H         1 UNK         0.0800 
    245 H245       -0.3990  -18.3740  -55.9766 H         1 UNK         0.0800 
    246 H246       -0.8695  -17.8193  -53.3405 H         1 UNK         0.0800 
    247 H247        0.2664  -19.0894  -53.7164 H         1 UNK         0.0800 
@<TRIPOS>BOND
     1    1    2 1    
     2    1  127 1    
     3    1  128 1    
     4    1  129 1    
     5    2    3 2    
     6    2    4 am   BACKBONE|DICT|INTERRES
     7    4    5 1    
     8    4  130 1    
     9    5    6 1    
    10    5   65 1    
    11    5  131 1    
    12    6    7 1    
    13    6  132 1    
    14    6  133 1    
    15    7    8 1    
    16    8    9 1    
    17    8  134 1    
    18    8  135 1    
    19    9   10 ar   
    20    9   14 ar   
    21   10   11 ar   
    22   10  136 1    
    23   11   12 ar   
    24   11  126 1    
    25   12   13 ar   
    26   12  137 1    
    27   13   14 ar   
    28   13   15 1    
    29   14  138 1    
    30   15   16 1    
    31   15  139 1    
    32   15  140 1    
    33   16   17 1    
    34   17   18 1    
    35   17  141 1    
    36   17  142 1    
    37   18   19 1    
    38   18   67 1    
    39   18  143 1    
    40   19   20 am   BACKBONE|DICT|INTERRES
    41   19  144 1    
    42   20   21 2    
    43   20   22 1    
    44   22   23 1    
    45   22   24 1    
    46   22  145 1    
    47   23  146 1    
    48   23  147 1    
    49   23  148 1    
    50   24   25 am   BACKBONE|DICT|INTERRES
    51   24  149 1    
    52   25   26 2    
    53   25   27 1    
    54   27   28 1    
    55   27   29 1    
    56   27  150 1    
    57   28  151 1    
    58   28  152 1    
    59   28  153 1    
    60   29   30 am   BACKBONE|DICT|INTERRES
    61   29  154 1    
    62   30   31 2    
    63   30   32 1    
    64   32   33 1    
    65   32   34 1    
    66   32  155 1    
    67   33  156 1    
    68   33  157 1    
    69   33  158 1    
    70   34   35 am   BACKBONE|DICT|INTERRES
    71   34  159 1    
    72   35   36 2    
    73   35   37 1    
    74   37   38 1    
    75   37   39 1    
    76   37  160 1    
    77   38  161 1    
    78   38  162 1    
    79   38  163 1    
    80   39   40 am   BACKBONE|DICT|INTERRES
    81   39  164 1    
    82   40   41 2    
    83   40   42 1    
    84   42   43 1    
    85   42   44 1    
    86   42  165 1    
    87   43  166 1    
    88   43  167 1    
    89   43  168 1    
    90   44   45 am   BACKBONE|DICT|INTERRES
    91   44  169 1    
    92   45   46 2    
    93   45   47 1    
    94   47   48 1    
    95   47   49 1    
    96   47  170 1    
    97   48  171 1    
    98   48  172 1    
    99   48  173 1    
   100   49   50 am   BACKBONE|DICT|INTERRES
   101   49  174 1    
   102   50   51 2    
   103   50   52 1    
   104   52   53 1    
   105   52   54 1    
   106   52  175 1    
   107   53  176 1    
   108   53  177 1    
   109   53  178 1    
   110   54   55 am   BACKBONE|DICT|INTERRES
   111   54  179 1    
   112   55   56 2    
   113   55   57 1    
   114   57   58 1    
   115   57   59 1    
   116   57  180 1    
   117   58  181 1    
   118   58  182 1    
   119   58  183 1    
   120   59   60 am   BACKBONE|DICT|INTERRES
   121   59  184 1    
   122   60   61 2    
   123   60   62 1    
   124   62   63 1    
   125   62   64 1    
   126   62  185 1    
   127   63  186 1    
   128   63  187 1    
   129   63  188 1    
   130   64   65 am   BACKBONE|DICT|INTERRES
   131   64  189 1    
   132   65   66 2    
   133   67   68 2    
   134   67   69 am   BACKBONE|DICT|INTERRES
   135   69   70 1    
   136   69  190 1    
   137   70   71 1    
   138   70   72 1    
   139   70  191 1    
   140   71  192 1    
   141   71  193 1    
   142   71  194 1    
   143   72   73 2    
   144   72   74 am   BACKBONE|DICT|INTERRES
   145   74   75 1    
   146   74  195 1    
   147   75   76 1    
   148   75   77 1    
   149   75  196 1    
   150   76  197 1    
   151   76  198 1    
   152   76  199 1    
   153   77   78 2    
   154   77   79 am   BACKBONE|DICT|INTERRES
   155   79   80 1    
   156   79  200 1    
   157   80   81 1    
   158   80   82 1    
   159   80  201 1    
   160   81  202 1    
   161   81  203 1    
   162   81  204 1    
   163   82   83 2    
   164   82   84 am   BACKBONE|DICT|INTERRES
   165   84   85 1    
   166   84  205 1    
   167   85   86 1    
   168   85   87 1    
   169   85  206 1    
   170   86  207 1    
   171   86  208 1    
   172   86  209 1    
   173   87   88 2    
   174   87   89 am   BACKBONE|DICT|INTERRES
   175   89   90 1    
   176   89  210 1    
   177   90   91 1    
   178   90   92 1    
   179   90  211 1    
   180   91  212 1    
   181   91  213 1    
   182   91  214 1    
   183   92   93 2    
   184   92   94 am   BACKBONE|DICT|INTERRES
   185   94   95 1    
   186   94  215 1    
   187   95   96 1    
   188   95   97 1    
   189   95  216 1    
   190   96  217 1    
   191   96  218 1    
   192   96  219 1    
   193   97   98 2    
   194   97   99 am   BACKBONE|DICT|INTERRES
   195   99  100 1    
   196   99  220 1    
   197  100  101 1    
   198  100  102 1    
   199  100  221 1    
   200  101  222 1    
   201  101  223 1    
   202  101  224 1    
   203  102  103 2    
   204  102  104 am   BACKBONE|DICT|INTERRES
   205  104  105 1    
   206  104  225 1    
   207  105  106 1    
   208  105  107 1    
   209  105  226 1    
   210  106  227 1    
   211  106  228 1    
   212  106  229 1    
   213  107  108 2    
   214  107  109 am   BACKBONE|DICT|INTERRES
   215  109  110 1    
   216  109  230 1    
   217  110  111 1    
   218  110  112 1    
   219  110  231 1    
   220  111  232 1    
   221  111  233 1    
   222  111  234 1    
   223  112  113 2    
   224  112  114 am   BACKBONE|DICT|INTERRES
   225  114  115 1    
   226  114  235 1    
   227  115  116 1    
   228  115  117 1    
   229  115  236 1    
   230  116  237 1    
   231  116  238 1    
   232  116  239 1    
   233  117  118 2    
   234  117  119 am   BACKBONE|DICT|INTERRES
   235  119  120 1    
   236  119  240 1    
   237  120  121 1    
   238  120  124 1    
   239  120  241 1    
   240  121  122 am   BACKBONE|DICT|INTERRES
   241  121  123 2    
   242  122  242 1    
   243  122  243 1    
   244  124  125 1    
   245  124  244 1    
   246  124  245 1    
   247  125  126 1    
   248  126  246 1    
   249  126  247 1    
@<TRIPOS>SUBSTRUCTURE
     1 UNK         1 GROUP             0       ****    0 ROOT    
