@<TRIPOS>MOLECULE
3R540
247   249    1
SMALL
USER_CHARGES


@<TRIPOS>ATOM
      1 CA          2.2723  -15.2015  -53.4018 C.3       0 UNK        -0.1800 
      2 C           1.3393  -15.7728  -52.3451 C.2       0 UNK         0.5000 
      3 O           0.7009  -16.7950  -52.5957 O.2       0 UNK        -0.5000 
      4 N           1.2702  -15.1169  -51.1750 N.am      1 UNK        -0.5000 
      5 CA          0.4430  -15.4722  -50.0085 C.3       1 UNK         0.1400 
      6 C6          0.8966  -16.7788  -49.2963 C.3       23 UNK        -0.0398 
      7 S7          2.5552  -16.6424  -48.5374 S.3       23 UNK        -0.2404 
      8 C8          3.6815  -17.2783  -49.8217 C.3       23 UNK        -0.0205 
      9 C9          3.6322  -18.7922  -49.9588 C.ar      23 UNK        -0.0193 
     10 C10         2.7359  -19.3874  -50.8490 C.ar      23 UNK        -0.1150 
     11 C11         2.7061  -20.7734  -51.0130 C.ar      23 UNK        -0.0193 
     12 C12         3.5800  -21.5667  -50.2658 C.ar      23 UNK        -0.1150 
     13 C13         4.4738  -20.9906  -49.3572 C.ar      23 UNK        -0.0193 
     14 C14         4.5053  -19.5978  -49.2219 C.ar      23 UNK        -0.1150 
     15 C15         5.4080  -21.8966  -48.5584 C.3       23 UNK        -0.0205 
     16 S16         5.6551  -21.4247  -46.8096 S.3       23 UNK        -0.2404 
     17 C17         3.9657  -21.1800  -46.1627 C.3       23 UNK        -0.0398 
     18 CA          3.1654  -22.4922  -45.9326 C.3       11 UNK         0.1400 
     19 N           2.3727  -22.4429  -44.7011 N.am      11 UNK        -0.5000 
     20 C           1.7530  -23.4907  -44.1386 C.2       10 UNK         0.5000 
     21 O           1.8712  -24.6506  -44.5332 O.2       10 UNK        -0.5000 
     22 CA          0.8174  -23.1886  -42.9510 C.3       10 UNK         0.1400 
     23 CB          1.5955  -23.1792  -41.6268 C.3       10 UNK        -0.1800 
     24 N           0.1021  -21.9210  -43.1019 N.am      10 UNK        -0.5000 
     25 C          -0.7930  -21.6605  -44.0651 C.2       9 UNK         0.5000 
     26 O          -1.1725  -22.4825  -44.8998 O.2       9 UNK        -0.5000 
     27 CA         -1.3085  -20.2168  -44.1422 C.3       9 UNK         0.1400 
     28 CB         -2.4588  -19.9881  -43.1526 C.3       9 UNK        -0.1800 
     29 N          -0.2438  -19.2353  -43.9243 N.am      9 UNK        -0.5000 
     30 C           0.7784  -19.0338  -44.7692 C.2       8 UNK         0.5000 
     31 O           0.9046  -19.6246  -45.8393 O.2       8 UNK        -0.5000 
     32 CA          1.8732  -18.0511  -44.3232 C.3       8 UNK         0.1400 
     33 CB          1.4998  -16.6163  -44.7070 C.3       8 UNK        -0.1800 
     34 N           2.1273  -18.1244  -42.8852 N.am      8 UNK        -0.5000 
     35 C           2.7315  -19.1622  -42.2891 C.2       7 UNK         0.5000 
     36 O           3.1593  -20.1414  -42.8987 O.2       7 UNK        -0.5000 
     37 CA          2.8287  -19.1287  -40.7529 C.3       7 UNK         0.1400 
     38 CB          4.1095  -18.4073  -40.3087 C.3       7 UNK        -0.1800 
     39 N           1.6719  -18.5009  -40.1117 N.am      7 UNK        -0.5000 
     40 C           0.4090  -18.9361  -40.2145 C.2       6 UNK         0.5000 
     41 O           0.0883  -19.9295  -40.8688 O.2       6 UNK        -0.5000 
     42 CA         -0.6866  -18.1280  -39.4895 C.3       6 UNK         0.1400 
     43 CB         -0.1422  -17.0551  -38.5188 C.3       6 UNK        -0.1800 
     44 N          -1.6457  -17.5255  -40.4226 N.am      6 UNK        -0.5000 
     45 C          -1.3822  -16.6606  -41.4129 C.2       5 UNK         0.5000 
     46 O          -0.2454  -16.3048  -41.7355 O.2       5 UNK        -0.5000 
     47 CA         -2.6054  -16.0876  -42.1488 C.3       5 UNK         0.1400 
     48 CB         -3.4819  -15.2437  -41.2030 C.3       5 UNK        -0.1800 
     49 N          -2.1794  -15.2578  -43.2743 N.am      5 UNK        -0.5000 
     50 C          -2.8934  -15.0464  -44.3859 C.2       4 UNK         0.5000 
     51 O          -3.9782  -15.5887  -44.6087 O.2       4 UNK        -0.5000 
     52 CA         -2.3249  -14.0252  -45.3884 C.3       4 UNK         0.1400 
     53 CB         -0.8794  -14.3324  -45.8189 C.3       4 UNK        -0.1800 
     54 N          -3.1754  -13.9458  -46.5755 N.am      4 UNK        -0.5000 
     55 C          -3.4801  -12.8144  -47.2166 C.2       3 UNK         0.5000 
     56 O          -3.0340  -11.7079  -46.9060 O.2       3 UNK        -0.5000 
     57 CA         -4.3746  -12.9568  -48.4531 C.3       3 UNK         0.1400 
     58 CB         -5.1299  -11.6589  -48.8030 C.3       3 UNK        -0.1800 
     59 N          -3.5177  -13.3530  -49.5624 N.am      3 UNK        -0.5000 
     60 C          -3.9189  -14.0098  -50.6544 C.2       2 UNK         0.5000 
     61 O          -5.0863  -14.3341  -50.8726 O.2       2 UNK        -0.5000 
     62 CA         -2.8374  -14.3437  -51.6982 C.3       2 UNK         0.1400 
     63 CB         -2.8250  -13.2879  -52.8139 C.3       2 UNK        -0.1800 
     64 N          -1.4830  -14.4696  -51.1542 N.am      2 UNK        -0.5000 
     65 C          -1.0648  -15.4642  -50.3566 C.2       1 UNK         0.5000 
     66 O          -1.8066  -16.3423  -49.9236 O.2       1 UNK        -0.5000 
     67 C           2.2690  -22.8164  -47.1461 C.2       11 UNK         0.5000 
     68 O           2.5541  -23.7610  -47.8831 O.2       11 UNK        -0.5000 
     69 N           1.2057  -22.0171  -47.3189 N.am      12 UNK        -0.5000 
     70 CA          0.2746  -22.0707  -48.4426 C.3       12 UNK         0.1400 
     71 CB         -0.6838  -20.8770  -48.3628 C.3       12 UNK        -0.1800 
     72 C          -0.4973  -23.3924  -48.5447 C.2       12 UNK         0.5000 
     73 O          -0.5818  -23.9468  -49.6414 O.2       12 UNK        -0.5000 
     74 N          -1.0210  -23.8687  -47.4041 N.am      13 UNK        -0.5000 
     75 CA         -1.7094  -25.1453  -47.1980 C.3       13 UNK         0.1400 
     76 CB         -0.6720  -26.2861  -47.1275 C.3       13 UNK        -0.1800 
     77 C          -2.8300  -25.3925  -48.2295 C.2       13 UNK         0.5000 
     78 O          -3.9208  -24.8390  -48.0823 O.2       13 UNK        -0.5000 
     79 N          -2.5239  -26.1808  -49.2703 N.am      14 UNK        -0.5000 
     80 CA         -3.3908  -26.4981  -50.4061 C.3       14 UNK         0.1400 
     81 CB         -2.6663  -27.4953  -51.3224 C.3       14 UNK        -0.1800 
     82 C          -3.8605  -25.2701  -51.2116 C.2       14 UNK         0.5000 
     83 O          -4.9427  -25.3219  -51.7982 O.2       14 UNK        -0.5000 
     84 N          -3.0920  -24.1699  -51.1897 N.am      15 UNK        -0.5000 
     85 CA         -3.4809  -22.8618  -51.7281 C.3       15 UNK         0.1400 
     86 CB         -2.2181  -22.0442  -52.0556 C.3       15 UNK        -0.1800 
     87 C          -4.4557  -22.1305  -50.7761 C.2       15 UNK         0.5000 
     88 O          -4.1693  -21.0281  -50.3059 O.2       15 UNK        -0.5000 
     89 N          -5.5815  -22.7982  -50.4820 N.am      16 UNK        -0.5000 
     90 CA         -6.7308  -22.3675  -49.6783 C.3       16 UNK         0.1400 
     91 CB         -7.5976  -21.3970  -50.5044 C.3       16 UNK        -0.1800 
     92 C          -6.3708  -21.7910  -48.2921 C.2       16 UNK         0.5000 
     93 O          -7.0473  -20.8757  -47.8245 O.2       16 UNK        -0.5000 
     94 N          -5.2926  -22.2990  -47.6757 N.am      17 UNK        -0.5000 
     95 CA         -4.6916  -21.8160  -46.4272 C.3       17 UNK         0.1400 
     96 CB         -5.5627  -22.2274  -45.2232 C.3       17 UNK        -0.1800 
     97 C          -4.3674  -20.3030  -46.4549 C.2       17 UNK         0.5000 
     98 O          -4.6313  -19.5975  -45.4820 O.2       17 UNK        -0.5000 
     99 N          -3.8168  -19.8402  -47.5872 N.am      18 UNK        -0.5000 
    100 CA        -3.4292  -18.4578  -47.8928 C.3       18 UNK         0.1400 
    101 CB        -2.3660  -17.9156  -46.9140 C.3       18 UNK        -0.1800 
    102 C         -4.6199  -17.4945  -48.0787 C.2       18 UNK         0.5000 
    103 O         -4.4556  -16.2824  -47.9307 O.2       18 UNK        -0.5000 
    104 N         -5.7891  -18.0396  -48.4418 N.am      19 UNK        -0.5000 
    105 CA        -6.9339  -17.2801  -48.9527 C.3       19 UNK         0.1400 
    106 CB        -8.2341  -17.9012  -48.4183 C.3       19 UNK        -0.1800 
    107 C         -6.9423  -17.2331  -50.4961 C.2       19 UNK         0.5000 
    108 O         -7.8276  -16.6021  -51.0755 O.2       19 UNK        -0.5000 
    109 N         -5.9767  -17.9038  -51.1353 N.am      20 UNK        -0.5000 
    110 CA        -5.7241  -17.8991  -52.5691 C.3       20 UNK         0.1400 
    111 CB        -6.3480  -19.1510  -53.2073 C.3       20 UNK        -0.1800 
    112 C         -4.2044  -17.8769  -52.7742 C.2       20 UNK         0.5000 
    113 O         -3.4643  -18.3414  -51.9051 O.2       20 UNK        -0.5000 
    114 N         -3.7637  -17.3298  -53.9121 N.am      21 UNK        -0.5000 
    115 CA        -2.3500  -17.2377  -54.2759 C.3       21 UNK         0.1400 
    116 CB        -2.1977  -16.2282  -55.4242 C.3       21 UNK        -0.1800 
    117 C         -1.7691  -18.6040  -54.6819 C.2       21 UNK         0.5000 
    118 O         -2.4988  -19.4539  -55.2001 O.2       21 UNK        -0.5000 
    119 N         -0.4598  -18.7695  -54.4659 N.am      22 UNK        -0.5000 
    120 CA         0.3210  -19.9463  -54.8769 C.3       22 UNK         0.1400 
    121 C          0.3258  -20.1939  -56.4139 C.2       22 UNK         0.5000 
    122 N          0.3770  -21.4466  -56.8460 N.am      22 UNK        -0.7600 
    123 O          0.3294  -19.2616  -57.2151 O.2       22 UNK        -0.5000 
    124 C124        1.7688  -19.8782  -54.3177 C.3       23 UNK        -0.0398 
    125 S125        2.3290  -21.4904  -53.6751 S.3       23 UNK        -0.2404 
    126 C126        1.7095  -21.4213  -51.9648 C.3       23 UNK        -0.0205 
    127 H127        2.7824  -14.3038  -53.0519 H         1 UNK         0.0600 
    128 H128        1.7089  -14.9462  -54.2993 H         1 UNK         0.0600 
    129 H129        3.0279  -15.9397  -53.6707 H         1 UNK         0.0600 
    130 H130        1.8381  -14.2902  -51.0532 H         1 UNK         0.3000 
    131 H131        0.5688  -14.6580  -49.2930 H         1 UNK         0.0600 
    132 H132        0.8401  -17.6314  -49.9688 H         1 UNK         0.0800 
    133 H133        0.2175  -17.0148  -48.4754 H         1 UNK         0.0800 
    134 H134        4.6968  -16.9726  -49.5649 H         1 UNK         0.0800 
    135 H135        3.4686  -16.8064  -50.7792 H         1 UNK         0.0800 
    136 H136        2.0603  -18.7659  -51.4143 H         1 UNK         0.1150 
    137 H137        3.5527  -22.6412  -50.3825 H         1 UNK         0.1150 
    138 H138        5.2047  -19.1391  -48.5374 H         1 UNK         0.1150 
    139 H139        5.0505  -22.9269  -48.5828 H         1 UNK         0.0800 
    140 H140        6.3802  -21.9047  -49.0524 H         1 UNK         0.0800 
    141 H141        3.4263  -20.4590  -46.7792 H         1 UNK         0.0800 
    142 H142        4.1104  -20.6677  -45.2126 H         1 UNK         0.0800 
    143 H143        3.8731  -23.3155  -45.8134 H         1 UNK         0.0600 
    144 H144        2.2735  -21.5355  -44.2623 H         1 UNK         0.3000 
    145 H145        0.0734  -23.9865  -42.9040 H         1 UNK         0.0600 
    146 H146        0.9306  -23.0096  -40.7796 H         1 UNK         0.0600 
    147 H147        2.0964  -24.1340  -41.4626 H         1 UNK         0.0600 
    148 H148        2.3594  -22.4019  -41.6128 H         1 UNK         0.0600 
    149 H149        0.3077  -21.1930  -42.4247 H         1 UNK         0.3000 
    150 H150       -1.7018  -20.0728  -45.1479 H         1 UNK         0.0600 
    151 H151       -3.2303  -20.7490  -43.2716 H         1 UNK         0.0600 
    152 H152       -2.9341  -19.0255  -43.3301 H         1 UNK         0.0600 
    153 H153       -2.1309  -20.0220  -42.1153 H         1 UNK         0.0600 
    154 H154       -0.2331  -18.7609  -43.0333 H         1 UNK         0.3000 
    155 H155        2.7929  -18.3129  -44.8511 H         1 UNK         0.0600 
    156 H156        0.5799  -16.3033  -44.2163 H         1 UNK         0.0600 
    157 H157        1.3444  -16.5309  -45.7825 H         1 UNK         0.0600 
    158 H158        2.2864  -15.9131  -44.4337 H         1 UNK         0.0600 
    159 H159        1.7515  -17.3778  -42.3140 H         1 UNK         0.3000 
    160 H160        2.8802  -20.1623  -40.4046 H         1 UNK         0.0600 
    161 H161        4.1026  -17.3568  -40.6020 H         1 UNK         0.0600 
    162 H162        4.9916  -18.8676  -40.7559 H         1 UNK         0.0600 
    163 H163        4.2337  -18.4539  -39.2266 H         1 UNK         0.0600 
    164 H164        1.8494  -17.6657  -39.5730 H         1 UNK         0.3000 
    165 H165       -1.2464  -18.8519  -38.8956 H         1 UNK         0.0600 
    166 H166       -0.9572  -16.5773  -37.9750 H         1 UNK         0.0600 
    167 H167        0.5208  -17.4962  -37.7732 H         1 UNK         0.0600 
    168 H168        0.4095  -16.2692  -39.0359 H         1 UNK         0.0600 
    169 H169       -2.6096  -17.7812  -40.2608 H         1 UNK         0.3000 
    170 H170       -3.1921  -16.9287  -42.5194 H         1 UNK         0.0600 
    171 H171       -3.8514  -15.8348  -40.3646 H         1 UNK         0.0600 
    172 H172       -2.9273  -14.3995  -40.7914 H         1 UNK         0.0600 
    173 H173       -4.3551  -14.8475  -41.7216 H         1 UNK         0.0600 
    174 H174       -1.2653  -14.8389  -43.1625 H         1 UNK         0.3000 
    175 H175       -2.3325  -13.0627  -44.8727 H         1 UNK         0.0600 
    176 H176       -0.7767  -15.3453  -46.2045 H         1 UNK         0.0600 
    177 H177       -0.5443  -13.6465  -46.5971 H         1 UNK         0.0600 
    178 H178       -0.1899  -14.2180  -44.9831 H         1 UNK         0.0600 
    179 H179       -3.6061  -14.8193  -46.8743 H         1 UNK         0.3000 
    180 H180       -5.1090  -13.7395  -48.2530 H         1 UNK         0.0600 
    181 H181       -4.4461  -10.8535  -49.0737 H         1 UNK         0.0600 
    182 H182       -5.7268  -11.3161  -47.9572 H         1 UNK         0.0600 
    183 H183       -5.8117  -11.8121  -49.6396 H         1 UNK         0.0600 
    184 H184       -2.5353  -13.1445  -49.4549 H         1 UNK         0.3000 
    185 H185       -3.1067  -15.3015  -52.1391 H         1 UNK         0.0600 
    186 H186       -2.0884  -13.5283  -53.5803 H         1 UNK         0.0600 
    187 H187       -3.7975  -13.2277  -53.3043 H         1 UNK         0.0600 
    188 H188       -2.5910  -12.2960  -52.4251 H         1 UNK         0.0600 
    189 H189       -0.8041  -13.7937  -51.4727 H         1 UNK         0.3000 
    190 H190        1.0703  -21.2408  -46.6745 H         1 UNK         0.3000 
    191 H191        0.8594  -21.9707  -49.3540 H         1 UNK         0.0600 
    192 H192       -1.2194  -20.8709  -47.4143 H         1 UNK         0.0600 
    193 H193       -1.4272  -20.8983  -49.1586 H         1 UNK         0.0600 
    194 H194       -0.1427  -19.9346  -48.4513 H         1 UNK         0.0600 
    195 H195       -0.9209  -23.3040  -46.5632 H         1 UNK         0.3000 
    196 H196       -2.1967  -25.0805  -46.2239 H         1 UNK         0.0600 
    197 H197       -1.1560  -27.2531  -46.9839 H         1 UNK         0.0600 
    198 H198        0.0056  -26.1378  -46.2862 H         1 UNK         0.0600 
    199 H199       -0.0607  -26.3461  -48.0286 H         1 UNK         0.0600 
    200 H200       -1.5813  -26.5387  -49.3203 H         1 UNK         0.3000 
    201 H201       -4.2836  -26.9843  -50.0081 H         1 UNK         0.0600 
    202 H202       -2.4127  -28.4111  -50.7881 H         1 UNK         0.0600 
    203 H203       -1.7443  -27.0735  -51.7248 H         1 UNK         0.0600 
    204 H204       -3.2949  -27.7779  -52.1681 H         1 UNK         0.0600 
    205 H205       -2.2241  -24.1982  -50.6606 H         1 UNK         0.3000 
    206 H206       -4.0154  -23.0127  -52.6683 H         1 UNK         0.0600 
    207 H207       -1.6104  -22.5454  -52.8088 H         1 UNK         0.0600 
    208 H208       -2.4774  -21.0606  -52.4507 H         1 UNK         0.0600 
    209 H209       -1.5949  -21.8914  -51.1772 H         1 UNK         0.0600 
    210 H210       -5.6684  -23.7213  -50.8962 H         1 UNK         0.3000 
    211 H211       -7.3226  -23.2637  -49.4883 H         1 UNK         0.0600 
    212 H212       -7.0911  -20.4448  -50.6558 H         1 UNK         0.0600 
    213 H213       -8.5441  -21.1896  -50.0040 H         1 UNK         0.0600 
    214 H214       -7.8351  -21.8109  -51.4843 H         1 UNK         0.0600 
    215 H215       -4.8181  -23.0874  -48.1073 H         1 UNK         0.3000 
    216 H216       -3.7333  -22.3291  -46.3307 H         1 UNK         0.0600 
    217 H217       -5.0727  -21.9810  -44.2811 H         1 UNK         0.0600 
    218 H218       -5.7458  -23.3019  -45.2202 H         1 UNK         0.0600 
    219 H219       -6.5288  -21.7218  -45.2327 H         1 UNK         0.0600 
    220 H220       -3.7397  -20.4792  -48.3729 H         1 UNK         0.3000 
    221 H221       -2.9559  -18.5114  -48.8743 H         1 UNK         0.0600 
    222 H222       -2.7455  -17.8298  -45.8962 H         1 UNK         0.0600 
    223 H223       -1.4791  -18.5445  -46.8975 H         1 UNK         0.0600 
    224 H224       -2.0371  -16.9247  -47.2220 H         1 UNK         0.0600 
    225 H225       -5.8758  -19.0482  -48.4586 H         1 UNK         0.3000 
    226 H226       -6.8852  -16.2489  -48.5970 H         1 UNK         0.0600 
    227 H227       -8.2055  -18.0111  -47.3340 H         1 UNK         0.0600 
    228 H228       -9.0923  -17.2733  -48.6599 H         1 UNK         0.0600 
    229 H229       -8.4198  -18.8836  -48.8519 H         1 UNK         0.0600 
    230 H230       -5.2468  -18.3531  -50.5958 H         1 UNK         0.3000 
    231 H231       -6.1510  -17.0011  -53.0208 H         1 UNK         0.0600 
    232 H232       -7.4225  -19.1926  -53.0282 H         1 UNK         0.0600 
    233 H233       -5.9050  -20.0655  -52.8109 H         1 UNK         0.0600 
    234 H234       -6.1962  -19.1554  -54.2872 H         1 UNK         0.0600 
    235 H235       -4.4285  -17.0158  -54.6035 H         1 UNK         0.3000 
    236 H236       -1.7982  -16.8657  -53.4107 H         1 UNK         0.0600 
    237 H237       -1.1459  -16.0717  -55.6671 H         1 UNK         0.0600 
    238 H238       -2.6959  -16.5736  -56.3311 H         1 UNK         0.0600 
    239 H239       -2.6184  -15.2585  -55.1609 H         1 UNK         0.0600 
    240 H240        0.0502  -18.0295  -53.9927 H         1 UNK         0.3000 
    241 H241       -0.1950  -20.7928  -54.4189 H         1 UNK         0.0600 
    242 H242        0.3970  -21.6231  -57.8384 H         1 UNK         0.3800 
    243 H243        0.4081  -22.2241  -56.2045 H         1 UNK         0.3800 
    244 H244        2.4807  -19.5368  -55.0718 H         1 UNK         0.0800 
    245 H245        1.8449  -19.1427  -53.5211 H         1 UNK         0.0800 
    246 H246        0.7568  -20.8900  -51.9307 H         1 UNK         0.0800 
    247 H247        1.4945  -22.4404  -51.6390 H         1 UNK         0.0800 
@<TRIPOS>BOND
     1    1    2 1    
     2    1  127 1    
     3    1  128 1    
     4    1  129 1    
     5    2    3 2    
     6    2    4 am   BACKBONE|DICT|INTERRES
     7    4    5 1    
     8    4  130 1    
     9    5    6 1    
    10    5   65 1    
    11    5  131 1    
    12    6    7 1    
    13    6  132 1    
    14    6  133 1    
    15    7    8 1    
    16    8    9 1    
    17    8  134 1    
    18    8  135 1    
    19    9   10 ar   
    20    9   14 ar   
    21   10   11 ar   
    22   10  136 1    
    23   11   12 ar   
    24   11  126 1    
    25   12   13 ar   
    26   12  137 1    
    27   13   14 ar   
    28   13   15 1    
    29   14  138 1    
    30   15   16 1    
    31   15  139 1    
    32   15  140 1    
    33   16   17 1    
    34   17   18 1    
    35   17  141 1    
    36   17  142 1    
    37   18   19 1    
    38   18   67 1    
    39   18  143 1    
    40   19   20 am   BACKBONE|DICT|INTERRES
    41   19  144 1    
    42   20   21 2    
    43   20   22 1    
    44   22   23 1    
    45   22   24 1    
    46   22  145 1    
    47   23  146 1    
    48   23  147 1    
    49   23  148 1    
    50   24   25 am   BACKBONE|DICT|INTERRES
    51   24  149 1    
    52   25   26 2    
    53   25   27 1    
    54   27   28 1    
    55   27   29 1    
    56   27  150 1    
    57   28  151 1    
    58   28  152 1    
    59   28  153 1    
    60   29   30 am   BACKBONE|DICT|INTERRES
    61   29  154 1    
    62   30   31 2    
    63   30   32 1    
    64   32   33 1    
    65   32   34 1    
    66   32  155 1    
    67   33  156 1    
    68   33  157 1    
    69   33  158 1    
    70   34   35 am   BACKBONE|DICT|INTERRES
    71   34  159 1    
    72   35   36 2    
    73   35   37 1    
    74   37   38 1    
    75   37   39 1    
    76   37  160 1    
    77   38  161 1    
    78   38  162 1    
    79   38  163 1    
    80   39   40 am   BACKBONE|DICT|INTERRES
    81   39  164 1    
    82   40   41 2    
    83   40   42 1    
    84   42   43 1    
    85   42   44 1    
    86   42  165 1    
    87   43  166 1    
    88   43  167 1    
    89   43  168 1    
    90   44   45 am   BACKBONE|DICT|INTERRES
    91   44  169 1    
    92   45   46 2    
    93   45   47 1    
    94   47   48 1    
    95   47   49 1    
    96   47  170 1    
    97   48  171 1    
    98   48  172 1    
    99   48  173 1    
   100   49   50 am   BACKBONE|DICT|INTERRES
   101   49  174 1    
   102   50   51 2    
   103   50   52 1    
   104   52   53 1    
   105   52   54 1    
   106   52  175 1    
   107   53  176 1    
   108   53  177 1    
   109   53  178 1    
   110   54   55 am   BACKBONE|DICT|INTERRES
   111   54  179 1    
   112   55   56 2    
   113   55   57 1    
   114   57   58 1    
   115   57   59 1    
   116   57  180 1    
   117   58  181 1    
   118   58  182 1    
   119   58  183 1    
   120   59   60 am   BACKBONE|DICT|INTERRES
   121   59  184 1    
   122   60   61 2    
   123   60   62 1    
   124   62   63 1    
   125   62   64 1    
   126   62  185 1    
   127   63  186 1    
   128   63  187 1    
   129   63  188 1    
   130   64   65 am   BACKBONE|DICT|INTERRES
   131   64  189 1    
   132   65   66 2    
   133   67   68 2    
   134   67   69 am   BACKBONE|DICT|INTERRES
   135   69   70 1    
   136   69  190 1    
   137   70   71 1    
   138   70   72 1    
   139   70  191 1    
   140   71  192 1    
   141   71  193 1    
   142   71  194 1    
   143   72   73 2    
   144   72   74 am   BACKBONE|DICT|INTERRES
   145   74   75 1    
   146   74  195 1    
   147   75   76 1    
   148   75   77 1    
   149   75  196 1    
   150   76  197 1    
   151   76  198 1    
   152   76  199 1    
   153   77   78 2    
   154   77   79 am   BACKBONE|DICT|INTERRES
   155   79   80 1    
   156   79  200 1    
   157   80   81 1    
   158   80   82 1    
   159   80  201 1    
   160   81  202 1    
   161   81  203 1    
   162   81  204 1    
   163   82   83 2    
   164   82   84 am   BACKBONE|DICT|INTERRES
   165   84   85 1    
   166   84  205 1    
   167   85   86 1    
   168   85   87 1    
   169   85  206 1    
   170   86  207 1    
   171   86  208 1    
   172   86  209 1    
   173   87   88 2    
   174   87   89 am   BACKBONE|DICT|INTERRES
   175   89   90 1    
   176   89  210 1    
   177   90   91 1    
   178   90   92 1    
   179   90  211 1    
   180   91  212 1    
   181   91  213 1    
   182   91  214 1    
   183   92   93 2    
   184   92   94 am   BACKBONE|DICT|INTERRES
   185   94   95 1    
   186   94  215 1    
   187   95   96 1    
   188   95   97 1    
   189   95  216 1    
   190   96  217 1    
   191   96  218 1    
   192   96  219 1    
   193   97   98 2    
   194   97   99 am   BACKBONE|DICT|INTERRES
   195   99  100 1    
   196   99  220 1    
   197  100  101 1    
   198  100  102 1    
   199  100  221 1    
   200  101  222 1    
   201  101  223 1    
   202  101  224 1    
   203  102  103 2    
   204  102  104 am   BACKBONE|DICT|INTERRES
   205  104  105 1    
   206  104  225 1    
   207  105  106 1    
   208  105  107 1    
   209  105  226 1    
   210  106  227 1    
   211  106  228 1    
   212  106  229 1    
   213  107  108 2    
   214  107  109 am   BACKBONE|DICT|INTERRES
   215  109  110 1    
   216  109  230 1    
   217  110  111 1    
   218  110  112 1    
   219  110  231 1    
   220  111  232 1    
   221  111  233 1    
   222  111  234 1    
   223  112  113 2    
   224  112  114 am   BACKBONE|DICT|INTERRES
   225  114  115 1    
   226  114  235 1    
   227  115  116 1    
   228  115  117 1    
   229  115  236 1    
   230  116  237 1    
   231  116  238 1    
   232  116  239 1    
   233  117  118 2    
   234  117  119 am   BACKBONE|DICT|INTERRES
   235  119  120 1    
   236  119  240 1    
   237  120  121 1    
   238  120  124 1    
   239  120  241 1    
   240  121  122 am   BACKBONE|DICT|INTERRES
   241  121  123 2    
   242  122  242 1    
   243  122  243 1    
   244  124  125 1    
   245  124  244 1    
   246  124  245 1    
   247  125  126 1    
   248  126  246 1    
   249  126  247 1    
@<TRIPOS>SUBSTRUCTURE
     1 UNK         1 GROUP             0       ****    0 ROOT    
