@<TRIPOS>MOLECULE
3R540
247   249    1
SMALL
USER_CHARGES


@<TRIPOS>ATOM
      1 CA         -2.8474  -16.6982  -50.3552 C.3       0 UNK        -0.1800 
      2 C          -2.6560  -15.3156  -49.7482 C.2       0 UNK         0.5000 
      3 O          -3.6292  -14.6950  -49.3189 O.2       0 UNK        -0.5000 
      4 N          -1.4103  -14.8278  -49.7133 N.am      1 UNK        -0.5000 
      5 CA         -1.0203  -13.5486  -49.1136 C.3       1 UNK         0.1400 
      6 C6          0.3134  -13.0093  -49.6912 C.3       23 UNK        -0.0398 
      7 S7          0.2274  -12.6711  -51.4845 S.3       23 UNK        -0.2404 
      8 C8          1.5186  -13.7719  -52.1500 C.3       23 UNK        -0.0205 
      9 C9          1.0750  -15.2265  -52.1690 C.ar      23 UNK        -0.0193 
     10 C10         0.3188  -15.7163  -53.2380 C.ar      23 UNK        -0.1150 
     11 C11        -0.0921  -17.0522  -53.2635 C.ar      23 UNK        -0.0193 
     12 C12         0.2449  -17.8955  -52.2021 C.ar      23 UNK        -0.1150 
     13 C13         0.9886  -17.4147  -51.1220 C.ar      23 UNK        -0.0193 
     14 C14         1.4198  -16.0851  -51.1215 C.ar      23 UNK        -0.1150 
     15 C15         1.2949  -18.3178  -49.9390 C.3       23 UNK        -0.0205 
     16 S16         0.3872  -17.7523  -48.4703 S.3       23 UNK        -0.2404 
     17 C17         0.6274  -19.1411  -47.3111 C.3       23 UNK        -0.0398 
     18 CA         -0.6461  -19.9621  -46.9696 C.3       11 UNK         0.1400 
     19 N          -0.4048  -20.8267  -45.8175 N.am      11 UNK        -0.5000 
     20 C          -1.0418  -21.9657  -45.5294 C.2       10 UNK         0.5000 
     21 O          -1.8721  -22.4828  -46.2798 O.2       10 UNK        -0.5000 
     22 CA         -0.7191  -22.5985  -44.1557 C.3       10 UNK         0.1400 
     23 CB         -0.8946  -24.1294  -44.1464 C.3       10 UNK        -0.1800 
     24 N           0.5916  -22.1992  -43.6212 N.am      10 UNK        -0.5000 
     25 C           1.8049  -22.5037  -44.1087 C.2       9 UNK         0.5000 
     26 O           1.9878  -23.2635  -45.0592 O.2       9 UNK        -0.5000 
     27 CA          3.0278  -21.8193  -43.4597 C.3       9 UNK         0.1400 
     28 CB          3.6561  -20.8202  -44.4448 C.3       9 UNK        -0.1800 
     29 N           2.7230  -21.1119  -42.2134 N.am      9 UNK        -0.5000 
     30 C           2.5710  -21.6921  -41.0150 C.2       8 UNK         0.5000 
     31 O           2.7053  -22.9001  -40.8186 O.2       8 UNK        -0.5000 
     32 CA          2.1659  -20.7701  -39.8458 C.3       8 UNK         0.1400 
     33 CB          3.4039  -20.1684  -39.1639 C.3       8 UNK        -0.1800 
     34 N           1.2647  -19.6915  -40.2599 N.am      8 UNK        -0.5000 
     35 C           0.0173  -19.8843  -40.7116 C.2       7 UNK         0.5000 
     36 O          -0.5250  -20.9873  -40.7784 O.2       7 UNK        -0.5000 
     37 CA         -0.7226  -18.6513  -41.2530 C.3       7 UNK         0.1400 
     38 CB         -1.3866  -17.8510  -40.1236 C.3       7 UNK        -0.1800 
     39 N           0.1528  -17.7773  -42.0344 N.am      7 UNK        -0.5000 
     40 C           0.6997  -18.1133  -43.2090 C.2       6 UNK         0.5000 
     41 O           0.4397  -19.1610  -43.7952 O.2       6 UNK        -0.5000 
     42 CA          1.7120  -17.1418  -43.8350 C.3       6 UNK         0.1400 
     43 CB          1.0067  -16.1365  -44.7505 C.3       6 UNK        -0.1800 
     44 N           2.4979  -16.4320  -42.8293 N.am      6 UNK        -0.5000 
     45 C           3.4243  -17.0115  -42.0538 C.2       5 UNK         0.5000 
     46 O           3.7326  -18.2005  -42.1335 O.2       5 UNK        -0.5000 
     47 CA          4.0786  -16.1182  -40.9846 C.3       5 UNK         0.1400 
     48 CB          5.2724  -15.3535  -41.5751 C.3       5 UNK        -0.1800 
     49 N           3.1299  -15.1651  -40.4036 N.am      5 UNK        -0.5000 
     50 C           2.1095  -15.5115  -39.6060 C.2       4 UNK         0.5000 
     51 O           1.8901  -16.6683  -39.2437 O.2       4 UNK        -0.5000 
     52 CA          1.1459  -14.3804  -39.1933 C.3       4 UNK         0.1400 
     53 CB          1.7124  -13.5908  -38.0037 C.3       4 UNK        -0.1800 
     54 N           0.8346  -13.4565  -40.2923 N.am      4 UNK        -0.5000 
     55 C           0.1932  -13.8168  -41.4113 C.2       3 UNK         0.5000 
     56 O          -0.1966  -14.9691  -41.6217 O.2       3 UNK        -0.5000 
     57 CA         -0.0153  -12.7413  -42.4924 C.3       3 UNK         0.1400 
     58 CB          1.3358  -12.3781  -43.1438 C.3       3 UNK        -0.1800 
     59 N          -0.9313  -13.3118  -43.4767 N.am      3 UNK        -0.5000 
     60 C          -1.4024  -12.7740  -44.6052 C.2       2 UNK         0.5000 
     61 O          -1.2112  -11.6079  -44.9579 O.2       2 UNK        -0.5000 
     62 CA         -2.2661  -13.7166  -45.4681 C.3       2 UNK         0.1400 
     63 CB         -3.7542  -13.5649  -45.1189 C.3       2 UNK        -0.1800 
     64 N          -2.0922  -13.5268  -46.9081 N.am      2 UNK        -0.5000 
     65 C          -0.9492  -13.7126  -47.5816 C.2       1 UNK         0.5000 
     66 O           0.1108  -14.0491  -47.0528 O.2       1 UNK        -0.5000 
     67 C          -1.9037  -19.1055  -46.7134 C.2       11 UNK         0.5000 
     68 O          -2.7531  -19.0104  -47.5978 O.2       11 UNK        -0.5000 
     69 N          -2.0493  -18.5623  -45.4927 N.am      12 UNK        -0.5000 
     70 CA         -3.2271  -17.7793  -45.0874 C.3       12 UNK         0.1400 
     71 CB         -2.9505  -17.0587  -43.7592 C.3       12 UNK        -0.1800 
     72 C          -4.5026  -18.6402  -44.9743 C.2       12 UNK         0.5000 
     73 O          -5.6066  -18.1256  -45.1479 O.2       12 UNK        -0.5000 
     74 N          -4.3161  -19.9438  -44.7224 N.am      13 UNK        -0.5000 
     75 CA         -5.3550  -20.9754  -44.7514 C.3       13 UNK         0.1400 
     76 CB         -4.8627  -22.1801  -43.9317 C.3       13 UNK        -0.1800 
     77 C          -5.7277  -21.4171  -46.1842 C.2       13 UNK         0.5000 
     78 O          -6.6697  -22.1923  -46.3463 O.2       13 UNK        -0.5000 
     79 N          -4.9691  -20.9437  -47.1853 N.am      14 UNK        -0.5000 
     80 CA         -5.0656  -21.2220  -48.6206 C.3       14 UNK         0.1400 
     81 CB         -6.4352  -20.8008  -49.1886 C.3       14 UNK        -0.1800 
     82 C          -4.6795  -22.6602  -49.0212 C.2       14 UNK         0.5000 
     83 O          -4.8608  -23.0275  -50.1825 O.2       14 UNK        -0.5000 
     84 N          -4.1174  -23.4417  -48.0895 N.am      15 UNK        -0.5000 
     85 CA         -3.6728  -24.8140  -48.3242 C.3       15 UNK         0.1400 
     86 CB         -3.4990  -25.5418  -46.9834 C.3       15 UNK        -0.1800 
     87 C          -2.3762  -24.8397  -49.1463 C.2       15 UNK         0.5000 
     88 O          -2.3181  -25.5179  -50.1718 O.2       15 UNK        -0.5000 
     89 N          -1.3839  -24.0428  -48.7233 N.am      16 UNK        -0.5000 
     90 CA         -0.1104  -23.8758  -49.4325 C.3       16 UNK         0.1400 
     91 CB          0.9297  -23.2584  -48.4873 C.3       16 UNK        -0.1800 
     92 C          -0.2497  -23.0434  -50.7234 C.2       16 UNK         0.5000 
     93 O           0.5891  -23.1621  -51.6160 O.2       16 UNK        -0.5000 
     94 N          -1.3215  -22.2428  -50.8113 N.am      17 UNK        -0.5000 
     95 CA         -1.7202  -21.5018  -52.0098 C.3       17 UNK         0.1400 
     96 CB         -2.5799  -20.3010  -51.5825 C.3       17 UNK        -0.1800 
     97 C          -2.4867  -22.3720  -53.0284 C.2       17 UNK         0.5000 
     98 O          -2.7365  -21.9012  -54.1378 O.2       17 UNK        -0.5000 
     99 N          -2.8622  -23.6001  -52.6305 N.am      18 UNK        -0.5000 
    100 CA        -3.6457  -24.5853  -53.3817 C.3       18 UNK         0.1400 
    101 CB        -2.8196  -25.1530  -54.5519 C.3       18 UNK        -0.1800 
    102 C         -5.0206  -24.0342  -53.8108 C.2       18 UNK         0.5000 
    103 O         -5.3936  -24.1255  -54.9839 O.2       18 UNK        -0.5000 
    104 N         -5.7259  -23.4280  -52.8443 N.am      19 UNK        -0.5000 
    105 CA        -7.0038  -22.7141  -52.9372 C.3       19 UNK         0.1400 
    106 CB        -8.1431  -23.6366  -53.4139 C.3       19 UNK        -0.1800 
    107 C         -6.9126  -21.4270  -53.7774 C.2       19 UNK         0.5000 
    108 O         -7.1374  -20.3368  -53.2511 O.2       19 UNK        -0.5000 
    109 N         -6.5676  -21.5824  -55.0575 N.am      20 UNK        -0.5000 
    110 CA        -6.3467  -20.5112  -56.0241 C.3       20 UNK         0.1400 
    111 CB        -7.6841  -20.1366  -56.6876 C.3       20 UNK        -0.1800 
    112 C         -5.2847  -20.8776  -57.0788 C.2       20 UNK         0.5000 
    113 O         -4.9087  -20.0064  -57.8655 O.2       20 UNK        -0.5000 
    114 N         -4.8014  -22.1304  -57.1013 N.am      21 UNK        -0.5000 
    115 CA        -3.8141  -22.6331  -58.0603 C.3       21 UNK         0.1400 
    116 CB        -4.0104  -24.1507  -58.2279 C.3       21 UNK        -0.1800 
    117 C         -2.3757  -22.2497  -57.6527 C.2       21 UNK         0.5000 
    118 O         -1.5296  -23.1223  -57.4487 O.2       21 UNK        -0.5000 
    119 N         -2.1408  -20.9392  -57.5266 N.am      22 UNK        -0.5000 
    120 CA        -0.8632  -20.3178  -57.1574 C.3       22 UNK         0.1400 
    121 C          0.2805  -20.6303  -58.1661 C.2       22 UNK         0.5000 
    122 N          1.4861  -20.9060  -57.6875 N.am      22 UNK        -0.7600 
    123 O          0.0901  -20.5875  -59.3800 O.2       22 UNK        -0.5000 
    124 C124       -1.0442  -18.7891  -56.9665 C.3       23 UNK        -0.0398 
    125 S125        0.1732  -18.0823  -55.8057 S.3       23 UNK        -0.2404 
    126 C126       -0.9064  -17.5829  -54.4311 C.3       23 UNK        -0.0205 
    127 H127       -3.3157  -16.6195  -51.3361 H         1 UNK         0.0600 
    128 H128       -3.4874  -17.3062  -49.7158 H         1 UNK         0.0600 
    129 H129       -1.8991  -17.2204  -50.4692 H         1 UNK         0.0600 
    130 H130       -0.6500  -15.3894  -50.0720 H         1 UNK         0.3000 
    131 H131       -1.7918  -12.8080  -49.3362 H         1 UNK         0.0600 
    132 H132        1.1335  -13.6964  -49.4812 H         1 UNK         0.0800 
    133 H133        0.5798  -12.0723  -49.1991 H         1 UNK         0.0800 
    134 H134        2.4381  -13.6554  -51.5741 H         1 UNK         0.0800 
    135 H135        1.7583  -13.4540  -53.1658 H         1 UNK         0.0800 
    136 H136        0.0530  -15.0581  -54.0534 H         1 UNK         0.1150 
    137 H137       -0.0810  -18.9243  -52.2127 H         1 UNK         0.1150 
    138 H138        2.0031  -15.7170  -50.2893 H         1 UNK         0.1150 
    139 H139        1.0204  -19.3505  -50.1615 H         1 UNK         0.0800 
    140 H140        2.3666  -18.3102  -49.7353 H         1 UNK         0.0800 
    141 H141        1.0545  -18.7190  -46.4027 H         1 UNK         0.0800 
    142 H142        1.3957  -19.8102  -47.7003 H         1 UNK         0.0800 
    143 H143       -0.8743  -20.5870  -47.8351 H         1 UNK         0.0600 
    144 H144        0.1908  -20.4361  -45.0920 H         1 UNK         0.3000 
    145 H145       -1.4515  -22.1858  -43.4607 H         1 UNK         0.0600 
    146 H146       -0.5809  -24.5576  -43.1944 H         1 UNK         0.0600 
    147 H147       -1.9410  -24.3983  -44.2889 H         1 UNK         0.0600 
    148 H148       -0.3202  -24.6104  -44.9387 H         1 UNK         0.0600 
    149 H149        0.5588  -21.5574  -42.8400 H         1 UNK         0.3000 
    150 H150        3.7643  -22.5972  -43.2486 H         1 UNK         0.0600 
    151 H151        3.9793  -21.3208  -45.3583 H         1 UNK         0.0600 
    152 H152        4.5322  -20.3356  -44.0132 H         1 UNK         0.0600 
    153 H153        2.9494  -20.0421  -44.7322 H         1 UNK         0.0600 
    154 H154        2.6634  -20.1023  -42.2684 H         1 UNK         0.3000 
    155 H155        1.6392  -21.3818  -39.1104 H         1 UNK         0.0600 
    156 H156        3.9811  -19.5457  -39.8473 H         1 UNK         0.0600 
    157 H157        4.0666  -20.9534  -38.7976 H         1 UNK         0.0600 
    158 H158        3.1231  -19.5535  -38.3085 H         1 UNK         0.0600 
    159 H159        1.6265  -18.7467  -40.2183 H         1 UNK         0.3000 
    160 H160       -1.5068  -19.0249  -41.9120 H         1 UNK         0.0600 
    161 H161       -1.9572  -17.0110  -40.5202 H         1 UNK         0.0600 
    162 H162       -0.6527  -17.4537  -39.4228 H         1 UNK         0.0600 
    163 H163       -2.0773  -18.4761  -39.5566 H         1 UNK         0.0600 
    164 H164        0.3281  -16.8508  -41.6585 H         1 UNK         0.3000 
    165 H165        2.3982  -17.7280  -44.4486 H         1 UNK         0.0600 
    166 H166        0.3267  -15.5003  -44.1928 H         1 UNK         0.0600 
    167 H167        1.7248  -15.4942  -45.2603 H         1 UNK         0.0600 
    168 H168        0.4171  -16.6355  -45.5193 H         1 UNK         0.0600 
    169 H169        2.2791  -15.4598  -42.6784 H         1 UNK         0.3000 
    170 H170        4.4476  -16.7677  -40.1878 H         1 UNK         0.0600 
    171 H171        6.0036  -16.0417  -42.0013 H         1 UNK         0.0600 
    172 H172        4.9636  -14.6702  -42.3673 H         1 UNK         0.0600 
    173 H173        5.7844  -14.7706  -40.8093 H         1 UNK         0.0600 
    174 H174        3.2444  -14.1932  -40.6503 H         1 UNK         0.3000 
    175 H175        0.2113  -14.8477  -38.8750 H         1 UNK         0.0600 
    176 H176        0.9967  -12.8505  -37.6457 H         1 UNK         0.0600 
    177 H177        1.9378  -14.2538  -37.1673 H         1 UNK         0.0600 
    178 H178        2.6332  -13.0686  -38.2663 H         1 UNK         0.0600 
    179 H179        1.1301  -12.4976  -40.1773 H         1 UNK         0.3000 
    180 H180       -0.4729  -11.8601  -42.0399 H         1 UNK         0.0600 
    181 H181        1.7841  -13.2363  -43.6457 H         1 UNK         0.0600 
    182 H182        2.0511  -12.0186  -42.4034 H         1 UNK         0.0600 
    183 H183        1.2248  -11.5844  -43.8821 H         1 UNK         0.0600 
    184 H184       -1.1789  -14.2647  -43.2363 H         1 UNK         0.3000 
    185 H185       -1.9674  -14.7435  -45.2533 H         1 UNK         0.0600 
    186 H186       -4.1243  -12.5692  -45.3666 H         1 UNK         0.0600 
    187 H187       -4.3621  -14.2936  -45.6559 H         1 UNK         0.0600 
    188 H188       -3.9259  -13.7227  -44.0534 H         1 UNK         0.0600 
    189 H189       -2.9236  -13.2954  -47.4342 H         1 UNK         0.3000 
    190 H190       -1.3221  -18.7082  -44.8032 H         1 UNK         0.3000 
    191 H191       -3.4008  -17.0212  -45.8546 H         1 UNK         0.0600 
    192 H192       -1.9727  -16.5795  -43.7490 H         1 UNK         0.0600 
    193 H193       -3.0023  -17.7413  -42.9132 H         1 UNK         0.0600 
    194 H194       -3.6964  -16.2833  -43.5826 H         1 UNK         0.0600 
    195 H195       -3.3705  -20.2651  -44.5864 H         1 UNK         0.3000 
    196 H196       -6.2581  -20.5816  -44.2805 H         1 UNK         0.0600 
    197 H197       -5.6345  -22.9478  -43.8633 H         1 UNK         0.0600 
    198 H198       -4.6070  -21.8885  -42.9128 H         1 UNK         0.0600 
    199 H199       -3.9833  -22.6424  -44.3809 H         1 UNK         0.0600 
    200 H200       -4.2263  -20.2970  -46.9477 H         1 UNK         0.3000 
    201 H201       -4.3181  -20.5775  -49.0808 H         1 UNK         0.0600 
    202 H202       -6.6983  -19.7903  -48.8757 H         1 UNK         0.0600 
    203 H203       -7.2326  -21.4719  -48.8687 H         1 UNK         0.0600 
    204 H204       -6.4216  -20.8051  -50.2788 H         1 UNK         0.0600 
    205 H205       -3.9183  -23.0476  -47.1801 H         1 UNK         0.3000 
    206 H206       -4.4454  -25.3364  -48.8928 H         1 UNK         0.0600 
    207 H207       -4.4246  -25.5346  -46.4076 H         1 UNK         0.0600 
    208 H208       -3.2201  -26.5845  -47.1404 H         1 UNK         0.0600 
    209 H209       -2.7214  -25.0844  -46.3736 H         1 UNK         0.0600 
    210 H210       -1.5180  -23.5067  -47.8697 H         1 UNK         0.3000 
    211 H211        0.2493  -24.8658  -49.7215 H         1 UNK         0.0600 
    212 H212        0.6628  -22.2459  -48.1934 H         1 UNK         0.0600 
    213 H213        1.9093  -23.2103  -48.9642 H         1 UNK         0.0600 
    214 H214        1.0395  -23.8530  -47.5804 H         1 UNK         0.0600 
    215 H215       -1.9575  -22.2180  -50.0293 H         1 UNK         0.3000 
    216 H216       -0.8238  -21.1268  -52.5072 H         1 UNK         0.0600 
    217 H217       -3.5629  -20.6173  -51.2359 H         1 UNK         0.0600 
    218 H218       -2.7432  -19.6222  -52.4196 H         1 UNK         0.0600 
    219 H219       -2.1046  -19.7281  -50.7856 H         1 UNK         0.0600 
    220 H220       -2.6138  -23.8883  -51.6933 H         1 UNK         0.3000 
    221 H221       -3.8493  -25.4073  -52.6940 H         1 UNK         0.0600 
    222 H222       -2.5661  -24.3807  -55.2770 H         1 UNK         0.0600 
    223 H223       -1.8884  -25.5941  -54.1967 H         1 UNK         0.0600 
    224 H224       -3.3689  -25.9340  -55.0787 H         1 UNK         0.0600 
    225 H225       -5.2971  -23.3738  -51.9211 H         1 UNK         0.3000 
    226 H226       -7.2441  -22.4093  -51.9178 H         1 UNK         0.0600 
    227 H227       -8.2422  -24.5044  -52.7619 H         1 UNK         0.0600 
    228 H228       -7.9878  -23.9993  -54.4300 H         1 UNK         0.0600 
    229 H229       -9.0978  -23.1098  -53.4006 H         1 UNK         0.0600 
    230 H230       -6.3667  -22.5296  -55.3600 H         1 UNK         0.3000 
    231 H231       -5.9611  -19.6353  -55.4983 H         1 UNK         0.0600 
    232 H232       -8.4096  -19.7941  -55.9496 H         1 UNK         0.0600 
    233 H233       -8.1187  -20.9856  -57.2164 H         1 UNK         0.0600 
    234 H234       -7.5535  -19.3298  -57.4099 H         1 UNK         0.0600 
    235 H235       -5.0635  -22.7885  -56.3765 H         1 UNK         0.3000 
    236 H236       -4.0007  -22.1760  -59.0344 H         1 UNK         0.0600 
    237 H237       -3.3099  -24.5585  -58.9576 H         1 UNK         0.0600 
    238 H238       -3.8584  -24.6852  -57.2908 H         1 UNK         0.0600 
    239 H239       -5.0158  -24.3797  -58.5814 H         1 UNK         0.0600 
    240 H240       -2.9130  -20.3122  -57.7216 H         1 UNK         0.3000 
    241 H241       -0.5961  -20.7565  -56.1935 H         1 UNK         0.0600 
    242 H242        2.2383  -21.0972  -58.3310 H         1 UNK         0.3800 
    243 H243        1.6674  -20.9197  -56.6958 H         1 UNK         0.3800 
    244 H244       -0.9807  -18.2586  -57.9186 H         1 UNK         0.0800 
    245 H245       -2.0429  -18.5740  -56.5833 H         1 UNK         0.0800 
    246 H246       -1.6055  -16.8184  -54.7739 H         1 UNK         0.0800 
    247 H247       -1.5081  -18.4363  -54.1159 H         1 UNK         0.0800 
@<TRIPOS>BOND
     1    1    2 1    
     2    1  127 1    
     3    1  128 1    
     4    1  129 1    
     5    2    3 2    
     6    2    4 am   BACKBONE|DICT|INTERRES
     7    4    5 1    
     8    4  130 1    
     9    5    6 1    
    10    5   65 1    
    11    5  131 1    
    12    6    7 1    
    13    6  132 1    
    14    6  133 1    
    15    7    8 1    
    16    8    9 1    
    17    8  134 1    
    18    8  135 1    
    19    9   10 ar   
    20    9   14 ar   
    21   10   11 ar   
    22   10  136 1    
    23   11   12 ar   
    24   11  126 1    
    25   12   13 ar   
    26   12  137 1    
    27   13   14 ar   
    28   13   15 1    
    29   14  138 1    
    30   15   16 1    
    31   15  139 1    
    32   15  140 1    
    33   16   17 1    
    34   17   18 1    
    35   17  141 1    
    36   17  142 1    
    37   18   19 1    
    38   18   67 1    
    39   18  143 1    
    40   19   20 am   BACKBONE|DICT|INTERRES
    41   19  144 1    
    42   20   21 2    
    43   20   22 1    
    44   22   23 1    
    45   22   24 1    
    46   22  145 1    
    47   23  146 1    
    48   23  147 1    
    49   23  148 1    
    50   24   25 am   BACKBONE|DICT|INTERRES
    51   24  149 1    
    52   25   26 2    
    53   25   27 1    
    54   27   28 1    
    55   27   29 1    
    56   27  150 1    
    57   28  151 1    
    58   28  152 1    
    59   28  153 1    
    60   29   30 am   BACKBONE|DICT|INTERRES
    61   29  154 1    
    62   30   31 2    
    63   30   32 1    
    64   32   33 1    
    65   32   34 1    
    66   32  155 1    
    67   33  156 1    
    68   33  157 1    
    69   33  158 1    
    70   34   35 am   BACKBONE|DICT|INTERRES
    71   34  159 1    
    72   35   36 2    
    73   35   37 1    
    74   37   38 1    
    75   37   39 1    
    76   37  160 1    
    77   38  161 1    
    78   38  162 1    
    79   38  163 1    
    80   39   40 am   BACKBONE|DICT|INTERRES
    81   39  164 1    
    82   40   41 2    
    83   40   42 1    
    84   42   43 1    
    85   42   44 1    
    86   42  165 1    
    87   43  166 1    
    88   43  167 1    
    89   43  168 1    
    90   44   45 am   BACKBONE|DICT|INTERRES
    91   44  169 1    
    92   45   46 2    
    93   45   47 1    
    94   47   48 1    
    95   47   49 1    
    96   47  170 1    
    97   48  171 1    
    98   48  172 1    
    99   48  173 1    
   100   49   50 am   BACKBONE|DICT|INTERRES
   101   49  174 1    
   102   50   51 2    
   103   50   52 1    
   104   52   53 1    
   105   52   54 1    
   106   52  175 1    
   107   53  176 1    
   108   53  177 1    
   109   53  178 1    
   110   54   55 am   BACKBONE|DICT|INTERRES
   111   54  179 1    
   112   55   56 2    
   113   55   57 1    
   114   57   58 1    
   115   57   59 1    
   116   57  180 1    
   117   58  181 1    
   118   58  182 1    
   119   58  183 1    
   120   59   60 am   BACKBONE|DICT|INTERRES
   121   59  184 1    
   122   60   61 2    
   123   60   62 1    
   124   62   63 1    
   125   62   64 1    
   126   62  185 1    
   127   63  186 1    
   128   63  187 1    
   129   63  188 1    
   130   64   65 am   BACKBONE|DICT|INTERRES
   131   64  189 1    
   132   65   66 2    
   133   67   68 2    
   134   67   69 am   BACKBONE|DICT|INTERRES
   135   69   70 1    
   136   69  190 1    
   137   70   71 1    
   138   70   72 1    
   139   70  191 1    
   140   71  192 1    
   141   71  193 1    
   142   71  194 1    
   143   72   73 2    
   144   72   74 am   BACKBONE|DICT|INTERRES
   145   74   75 1    
   146   74  195 1    
   147   75   76 1    
   148   75   77 1    
   149   75  196 1    
   150   76  197 1    
   151   76  198 1    
   152   76  199 1    
   153   77   78 2    
   154   77   79 am   BACKBONE|DICT|INTERRES
   155   79   80 1    
   156   79  200 1    
   157   80   81 1    
   158   80   82 1    
   159   80  201 1    
   160   81  202 1    
   161   81  203 1    
   162   81  204 1    
   163   82   83 2    
   164   82   84 am   BACKBONE|DICT|INTERRES
   165   84   85 1    
   166   84  205 1    
   167   85   86 1    
   168   85   87 1    
   169   85  206 1    
   170   86  207 1    
   171   86  208 1    
   172   86  209 1    
   173   87   88 2    
   174   87   89 am   BACKBONE|DICT|INTERRES
   175   89   90 1    
   176   89  210 1    
   177   90   91 1    
   178   90   92 1    
   179   90  211 1    
   180   91  212 1    
   181   91  213 1    
   182   91  214 1    
   183   92   93 2    
   184   92   94 am   BACKBONE|DICT|INTERRES
   185   94   95 1    
   186   94  215 1    
   187   95   96 1    
   188   95   97 1    
   189   95  216 1    
   190   96  217 1    
   191   96  218 1    
   192   96  219 1    
   193   97   98 2    
   194   97   99 am   BACKBONE|DICT|INTERRES
   195   99  100 1    
   196   99  220 1    
   197  100  101 1    
   198  100  102 1    
   199  100  221 1    
   200  101  222 1    
   201  101  223 1    
   202  101  224 1    
   203  102  103 2    
   204  102  104 am   BACKBONE|DICT|INTERRES
   205  104  105 1    
   206  104  225 1    
   207  105  106 1    
   208  105  107 1    
   209  105  226 1    
   210  106  227 1    
   211  106  228 1    
   212  106  229 1    
   213  107  108 2    
   214  107  109 am   BACKBONE|DICT|INTERRES
   215  109  110 1    
   216  109  230 1    
   217  110  111 1    
   218  110  112 1    
   219  110  231 1    
   220  111  232 1    
   221  111  233 1    
   222  111  234 1    
   223  112  113 2    
   224  112  114 am   BACKBONE|DICT|INTERRES
   225  114  115 1    
   226  114  235 1    
   227  115  116 1    
   228  115  117 1    
   229  115  236 1    
   230  116  237 1    
   231  116  238 1    
   232  116  239 1    
   233  117  118 2    
   234  117  119 am   BACKBONE|DICT|INTERRES
   235  119  120 1    
   236  119  240 1    
   237  120  121 1    
   238  120  124 1    
   239  120  241 1    
   240  121  122 am   BACKBONE|DICT|INTERRES
   241  121  123 2    
   242  122  242 1    
   243  122  243 1    
   244  124  125 1    
   245  124  244 1    
   246  124  245 1    
   247  125  126 1    
   248  126  246 1    
   249  126  247 1    
@<TRIPOS>SUBSTRUCTURE
     1 UNK         1 GROUP             0       ****    0 ROOT    
