@<TRIPOS>MOLECULE
3R540
247   249    1
SMALL
USER_CHARGES


@<TRIPOS>ATOM
      1 CA          1.3360  -14.2037  -51.0486 C.3       0 UNK        -0.1800 
      2 C           2.7521  -14.6439  -50.7139 C.2       0 UNK         0.5000 
      3 O           3.5905  -13.8081  -50.3755 O.2       0 UNK        -0.5000 
      4 N           3.0210  -15.9532  -50.8040 N.am      1 UNK        -0.5000 
      5 CA          4.3485  -16.5728  -50.6523 C.3       1 UNK         0.1400 
      6 C6          4.3615  -18.0796  -51.0243 C.3       23 UNK        -0.0398 
      7 S7          3.4803  -18.4722  -52.5786 S.3       23 UNK        -0.2404 
      8 C8          2.0579  -19.4404  -51.9722 C.3       23 UNK        -0.0205 
      9 C9          1.1077  -18.5992  -51.1321 C.ar      23 UNK        -0.0193 
     10 C10         0.1382  -17.8038  -51.7479 C.ar      23 UNK        -0.1150 
     11 C11        -0.7250  -17.0040  -50.9920 C.ar      23 UNK        -0.0193 
     12 C12        -0.5985  -17.0113  -49.5960 C.ar      23 UNK        -0.1150 
     13 C13         0.3611  -17.8057  -48.9641 C.ar      23 UNK        -0.0193 
     14 C14         1.2064  -18.6032  -49.7391 C.ar      23 UNK        -0.1150 
     15 C15         0.4985  -17.7577  -47.4472 C.3       23 UNK        -0.0205 
     16 S16         0.6556  -19.3975  -46.6657 S.3       23 UNK        -0.2404 
     17 C17        -0.9137  -20.1939  -47.1452 C.3       23 UNK        -0.0398 
     18 CA         -1.0145  -21.6467  -46.6244 C.3       11 UNK         0.1400 
     19 N          -0.8107  -21.7408  -45.1717 N.am      11 UNK        -0.5000 
     20 C          -0.7272  -22.8638  -44.4450 C.2       10 UNK         0.5000 
     21 O          -0.9612  -23.9863  -44.8980 O.2       10 UNK        -0.5000 
     22 CA         -0.3039  -22.6822  -42.9726 C.3       10 UNK         0.1400 
     23 CB         -0.0154  -24.0198  -42.2602 C.3       10 UNK        -0.1800 
     24 N           0.8266  -21.7541  -42.8322 N.am      10 UNK        -0.5000 
     25 C           2.0491  -21.8777  -43.3747 C.2       9 UNK         0.5000 
     26 O           2.4134  -22.8612  -44.0191 O.2       9 UNK        -0.5000 
     27 CA          3.0381  -20.7162  -43.1624 C.3       9 UNK         0.1400 
     28 CB          3.8258  -20.3748  -44.4411 C.3       9 UNK        -0.1800 
     29 N           2.3897  -19.5050  -42.6508 N.am      9 UNK        -0.5000 
     30 C           2.9403  -18.6812  -41.7489 C.2       8 UNK         0.5000 
     31 O           4.0472  -18.8649  -41.2400 O.2       8 UNK        -0.5000 
     32 CA          2.1265  -17.4399  -41.3355 C.3       8 UNK         0.1400 
     33 CB          2.5171  -16.2391  -42.2088 C.3       8 UNK        -0.1800 
     34 N           0.6748  -17.6319  -41.3929 N.am      8 UNK        -0.5000 
     35 C          -0.0145  -18.4650  -40.5965 C.2       7 UNK         0.5000 
     36 O           0.5156  -19.1732  -39.7402 O.2       7 UNK        -0.5000 
     37 CA         -1.5474  -18.5360  -40.7693 C.3       7 UNK         0.1400 
     38 CB         -2.2504  -17.8040  -39.6156 C.3       7 UNK        -0.1800 
     39 N          -2.0417  -17.9938  -42.0348 N.am      7 UNK        -0.5000 
     40 C          -1.7808  -18.4965  -43.2474 C.2       6 UNK         0.5000 
     41 O          -1.1057  -19.5081  -43.4353 O.2       6 UNK        -0.5000 
     42 CA         -2.3197  -17.7118  -44.4575 C.3       6 UNK         0.1400 
     43 CB         -3.6556  -18.3001  -44.9364 C.3       6 UNK        -0.1800 
     44 N          -2.4684  -16.2681  -44.2432 N.am      6 UNK        -0.5000 
     45 C          -1.4852  -15.4365  -43.8716 C.2       5 UNK         0.5000 
     46 O          -0.3456  -15.8106  -43.5948 O.2       5 UNK        -0.5000 
     47 CA         -1.8338  -13.9387  -43.8123 C.3       5 UNK         0.1400 
     48 CB         -1.0798  -13.2216  -42.6789 C.3       5 UNK        -0.1800 
     49 N          -1.5050  -13.2934  -45.0795 N.am      5 UNK        -0.5000 
     50 C          -2.1879  -13.4396  -46.2226 C.2       4 UNK         0.5000 
     51 O          -3.2410  -14.0713  -46.3080 O.2       4 UNK        -0.5000 
     52 CA         -1.6083  -12.7628  -47.4812 C.3       4 UNK         0.1400 
     53 CB         -2.4148  -11.5060  -47.8415 C.3       4 UNK        -0.1800 
     54 N          -0.1916  -12.4032  -47.3618 N.am      4 UNK        -0.5000 
     55 C           0.8117  -13.2901  -47.3809 C.2       3 UNK         0.5000 
     56 O           0.6327  -14.5030  -47.5053 O.2       3 UNK        -0.5000 
     57 CA          2.2400  -12.7118  -47.2869 C.3       3 UNK         0.1400 
     58 CB          2.4269  -11.7857  -46.0649 C.3       3 UNK        -0.1800 
     59 N           3.2625  -13.7629  -47.3380 N.am      3 UNK        -0.5000 
     60 C           3.5432  -14.6894  -46.4065 C.2       2 UNK         0.5000 
     61 O           3.1009  -14.6724  -45.2583 O.2       2 UNK        -0.5000 
     62 CA          4.4498  -15.8478  -46.8640 C.3       2 UNK         0.1400 
     63 CB          4.3481  -17.0904  -45.9585 C.3       2 UNK        -0.1800 
     64 N           4.1021  -16.2135  -48.2364 N.am      2 UNK        -0.5000 
     65 C           4.9631  -16.3715  -49.2484 C.2       1 UNK         0.5000 
     66 O           6.1876  -16.3439  -49.1193 O.2       1 UNK        -0.5000 
     67 C          -2.3223  -22.3057  -47.1042 C.2       11 UNK         0.5000 
     68 O          -2.3789  -22.7836  -48.2374 O.2       11 UNK        -0.5000 
     69 N          -3.3238  -22.3875  -46.2178 N.am      12 UNK        -0.5000 
     70 CA         -4.5788  -23.1162  -46.4139 C.3       12 UNK         0.1400 
     71 CB         -5.4733  -22.8919  -45.1859 C.3       12 UNK        -0.1800 
     72 C          -4.4010  -24.6266  -46.6895 C.2       12 UNK         0.5000 
     73 O          -5.3151  -25.2373  -47.2408 O.2       12 UNK        -0.5000 
     74 N          -3.2415  -25.1901  -46.3236 N.am      13 UNK        -0.5000 
     75 CA         -2.8165  -26.5427  -46.6753 C.3       13 UNK         0.1400 
     76 CB         -2.6288  -27.3648  -45.3905 C.3       13 UNK        -0.1800 
     77 C          -1.5142  -26.5120  -47.4940 C.2       13 UNK         0.5000 
     78 O          -1.4139  -27.2193  -48.4970 O.2       13 UNK        -0.5000 
     79 N          -0.5387  -25.6958  -47.0661 N.am      14 UNK        -0.5000 
     80 CA          0.8134  -25.6364  -47.6313 C.3       14 UNK         0.1400 
     81 CB          1.7268  -24.8471  -46.6820 C.3       14 UNK        -0.1800 
     82 C           0.8856  -25.0571  -49.0565 C.2       14 UNK         0.5000 
     83 O           1.8068  -25.4039  -49.7962 O.2       14 UNK        -0.5000 
     84 N          -0.0887  -24.2171  -49.4268 N.am      15 UNK        -0.5000 
     85 CA         -0.2736  -23.6812  -50.7751 C.3       15 UNK         0.1400 
     86 CB         -0.1843  -22.1442  -50.7375 C.3       15 UNK        -0.1800 
     87 C          -1.6078  -24.1935  -51.3477 C.2       15 UNK         0.5000 
     88 O          -2.3291  -23.4392  -52.0046 O.2       15 UNK        -0.5000 
     89 N          -1.9248  -25.4642  -51.0524 N.am      16 UNK        -0.5000 
     90 CA         -3.0937  -26.2616  -51.4464 C.3       16 UNK         0.1400 
     91 CB         -3.1837  -26.4030  -52.9780 C.3       16 UNK        -0.1800 
     92 C          -4.4303  -25.7785  -50.8533 C.2       16 UNK         0.5000 
     93 O          -5.1708  -26.5854  -50.2917 O.2       16 UNK        -0.5000 
     94 N          -4.7076  -24.4819  -50.9979 N.am      17 UNK        -0.5000 
     95 CA         -5.9005  -23.7771  -50.5437 C.3       17 UNK         0.1400 
     96 CB         -7.1261  -24.1835  -51.3899 C.3       17 UNK        -0.1800 
     97 C          -5.6173  -22.2671  -50.5942 C.2       17 UNK         0.5000 
     98 O          -6.3971  -21.5141  -51.1799 O.2       17 UNK        -0.5000 
     99 N          -4.4650  -21.8536  -50.0398 N.am      18 UNK        -0.5000 
    100 CA        -3.9430  -20.4796  -50.0287 C.3       18 UNK         0.1400 
    101 CB        -4.7916  -19.6027  -49.0893 C.3       18 UNK        -0.1800 
    102 C         -3.7839  -19.9023  -51.4521 C.2       18 UNK         0.5000 
    103 O         -4.1810  -18.7647  -51.7213 O.2       18 UNK        -0.5000 
    104 N         -3.2845  -20.7586  -52.3587 N.am      19 UNK        -0.5000 
    105 CA        -3.1276  -20.5739  -53.8062 C.3       19 UNK         0.1400 
    106 CB        -2.0376  -19.5235  -54.0920 C.3       19 UNK        -0.1800 
    107 C         -4.4408  -20.2725  -54.5645 C.2       19 UNK         0.5000 
    108 O         -4.3845  -19.8557  -55.7222 O.2       19 UNK        -0.5000 
    109 N         -5.5926  -20.4588  -53.8974 N.am      20 UNK        -0.5000 
    110 CA        -6.9377  -20.0348  -54.2989 C.3       20 UNK         0.1400 
    111 CB        -7.4292  -20.8462  -55.5155 C.3       20 UNK        -0.1800 
    112 C         -7.0509  -18.5055  -54.5033 C.2       20 UNK         0.5000 
    113 O         -7.8959  -18.0544  -55.2791 O.2       20 UNK        -0.5000 
    114 N         -6.1909  -17.7388  -53.8166 N.am      21 UNK        -0.5000 
    115 CA        -6.0402  -16.2940  -53.9857 C.3       21 UNK         0.1400 
    116 CB        -4.7522  -16.0127  -54.7773 C.3       21 UNK        -0.1800 
    117 C         -6.0186  -15.5559  -52.6403 C.2       21 UNK         0.5000 
    118 O         -6.6079  -14.4788  -52.5401 O.2       21 UNK        -0.5000 
    119 N         -5.3551  -16.1383  -51.6343 N.am      22 UNK        -0.5000 
    120 CA        -5.2061  -15.5601  -50.2879 C.3       22 UNK         0.1400 
    121 C         -6.2475  -16.1013  -49.2641 C.2       22 UNK         0.5000 
    122 N         -7.1856  -16.9560  -49.6544 N.am      22 UNK        -0.7600 
    123 O         -6.2216  -15.7240  -48.0966 O.2       22 UNK        -0.5000 
    124 C124       -3.7538  -15.7132  -49.7692 C.3       23 UNK        -0.0398 
    125 S125       -2.5390  -14.8018  -50.7851 S.3       23 UNK        -0.2404 
    126 C126       -1.7589  -16.1530  -51.7362 C.3       23 UNK        -0.0205 
    127 H127        0.6597  -14.4341  -50.2267 H         1 UNK         0.0600 
    128 H128        1.2975  -13.1296  -51.2300 H         1 UNK         0.0600 
    129 H129        0.9769  -14.7092  -51.9447 H         1 UNK         0.0600 
    130 H130        2.2820  -16.5900  -51.0732 H         1 UNK         0.3000 
    131 H131        5.0053  -16.0584  -51.3569 H         1 UNK         0.0600 
    132 H132        5.3933  -18.4151  -51.1428 H         1 UNK         0.0800 
    133 H133        3.9559  -18.6867  -50.2154 H         1 UNK         0.0800 
    134 H134        2.4188  -20.2977  -51.4022 H         1 UNK         0.0800 
    135 H135        1.5203  -19.8513  -52.8279 H         1 UNK         0.0800 
    136 H136        0.0653  -17.7971  -52.8263 H         1 UNK         0.1150 
    137 H137       -1.2283  -16.3846  -48.9839 H         1 UNK         0.1150 
    138 H138        1.9499  -19.2184  -49.2531 H         1 UNK         0.1150 
    139 H139        1.3805  -17.1678  -47.2011 H         1 UNK         0.0800 
    140 H140       -0.3439  -17.2259  -47.0058 H         1 UNK         0.0800 
    141 H141       -0.9741  -20.1808  -48.2341 H         1 UNK         0.0800 
    142 H142       -1.7461  -19.5907  -46.7843 H         1 UNK         0.0800 
    143 H143       -0.2040  -22.2115  -47.0872 H         1 UNK         0.0600 
    144 H144       -0.6545  -20.8612  -44.6865 H         1 UNK         0.3000 
    145 H145       -1.1506  -22.2156  -42.4673 H         1 UNK         0.0600 
    146 H146        0.2708  -23.8592  -41.2209 H         1 UNK         0.0600 
    147 H147       -0.8994  -24.6586  -42.2585 H         1 UNK         0.0600 
    148 H148        0.7859  -24.5762  -42.7474 H         1 UNK         0.0600 
    149 H149        0.6222  -20.9068  -42.3230 H         1 UNK         0.3000 
    150 H150        3.7489  -21.0866  -42.4211 H         1 UNK         0.0600 
    151 H151        4.3535  -21.2470  -44.8284 H         1 UNK         0.0600 
    152 H152        4.5749  -19.6071  -44.2478 H         1 UNK         0.0600 
    153 H153        3.1694  -20.0106  -45.2305 H         1 UNK         0.0600 
    154 H154        1.4886  -19.2670  -43.0436 H         1 UNK         0.3000 
    155 H155        2.3889  -17.2049  -40.3019 H         1 UNK         0.0600 
    156 H156        2.2885  -16.4191  -43.2601 H         1 UNK         0.0600 
    157 H157        3.5857  -16.0325  -42.1391 H         1 UNK         0.0600 
    158 H158        1.9898  -15.3354  -41.9026 H         1 UNK         0.0600 
    159 H159        0.1787  -17.0808  -42.0867 H         1 UNK         0.3000 
    160 H160       -1.8276  -19.5906  -40.7270 H         1 UNK         0.0600 
    161 H161       -3.3329  -17.9179  -39.6764 H         1 UNK         0.0600 
    162 H162       -2.0229  -16.7372  -39.6194 H         1 UNK         0.0600 
    163 H163       -1.9380  -18.2028  -38.6495 H         1 UNK         0.0600 
    164 H164       -2.5926  -17.1500  -41.9801 H         1 UNK         0.3000 
    165 H165       -1.5881  -17.8370  -45.2525 H         1 UNK         0.0600 
    166 H166       -3.9694  -17.8498  -45.8788 H         1 UNK         0.0600 
    167 H167       -3.5783  -19.3755  -45.1019 H         1 UNK         0.0600 
    168 H168       -4.4493  -18.1385  -44.2061 H         1 UNK         0.0600 
    169 H169       -3.3583  -15.8657  -44.5043 H         1 UNK         0.3000 
    170 H170       -2.9045  -13.8336  -43.6247 H         1 UNK         0.0600 
    171 H171       -1.2860  -13.6906  -41.7160 H         1 UNK         0.0600 
    172 H172        0.0004  -13.2457  -42.8307 H         1 UNK         0.0600 
    173 H173       -1.3833  -12.1773  -42.6034 H         1 UNK         0.0600 
    174 H174       -0.6330  -12.7874  -45.1121 H         1 UNK         0.3000 
    175 H175       -1.7088  -13.4752  -48.3012 H         1 UNK         0.0600 
    176 H176       -2.0645  -11.0676  -48.7761 H         1 UNK         0.0600 
    177 H177       -3.4710  -11.7448  -47.9736 H         1 UNK         0.0600 
    178 H178       -2.3442  -10.7451  -47.0633 H         1 UNK         0.0600 
    179 H179        0.0178  -11.4191  -47.2764 H         1 UNK         0.3000 
    180 H180        2.3917  -12.1133  -48.1864 H         1 UNK         0.0600 
    181 H181        2.1216  -12.2671  -45.1353 H         1 UNK         0.0600 
    182 H182        1.8362  -10.8750  -46.1659 H         1 UNK         0.0600 
    183 H183        3.4677  -11.4801  -45.9576 H         1 UNK         0.0600 
    184 H184        3.6707  -13.8928  -48.2571 H         1 UNK         0.3000 
    185 H185        5.4744  -15.4733  -46.8203 H         1 UNK         0.0600 
    186 H186        3.3284  -17.4716  -45.9058 H         1 UNK         0.0600 
    187 H187        4.9874  -17.8953  -46.3212 H         1 UNK         0.0600 
    188 H188        4.6630  -16.8606  -44.9399 H         1 UNK         0.0600 
    189 H189        3.1139  -16.2199  -48.4503 H         1 UNK         0.3000 
    190 H190       -3.1759  -21.9909  -45.3017 H         1 UNK         0.3000 
    191 H191       -5.0783  -22.6850  -47.2833 H         1 UNK         0.0600 
    192 H192       -5.0125  -23.2812  -44.2772 H         1 UNK         0.0600 
    193 H193       -6.4356  -23.3914  -45.3061 H         1 UNK         0.0600 
    194 H194       -5.6766  -21.8316  -45.0335 H         1 UNK         0.0600 
    195 H195       -2.5523  -24.6163  -45.8491 H         1 UNK         0.3000 
    196 H196       -3.5723  -27.0368  -47.2897 H         1 UNK         0.0600 
    197 H197       -2.2926  -28.3770  -45.6190 H         1 UNK         0.0600 
    198 H198       -3.5659  -27.4494  -44.8400 H         1 UNK         0.0600 
    199 H199       -1.8909  -26.9133  -44.7258 H         1 UNK         0.0600 
    200 H200       -0.6889  -25.1425  -46.2248 H         1 UNK         0.3000 
    201 H201        1.1909  -26.6598  -47.6816 H         1 UNK         0.0600 
    202 H202        1.7252  -25.2780  -45.6804 H         1 UNK         0.0600 
    203 H203        1.4200  -23.8054  -46.5945 H         1 UNK         0.0600 
    204 H204        2.7584  -24.8534  -47.0356 H         1 UNK         0.0600 
    205 H205       -0.8336  -24.0030  -48.7731 H         1 UNK         0.3000 
    206 H206        0.5078  -24.0426  -51.4460 H         1 UNK         0.0600 
    207 H207        0.7513  -21.8162  -50.2852 H         1 UNK         0.0600 
    208 H208       -0.2256  -21.7237  -51.7430 H         1 UNK         0.0600 
    209 H209       -0.9990  -21.7035  -50.1677 H         1 UNK         0.0600 
    210 H210       -1.2888  -25.9564  -50.4376 H         1 UNK         0.3000 
    211 H211       -2.9155  -27.2580  -51.0384 H         1 UNK         0.0600 
    212 H212       -3.3640  -25.4463  -53.4690 H         1 UNK         0.0600 
    213 H213       -3.9997  -27.0701  -53.2585 H         1 UNK         0.0600 
    214 H214       -2.2655  -26.8225  -53.3889 H         1 UNK         0.0600 
    215 H215       -4.0037  -23.9156  -51.4669 H         1 UNK         0.3000 
    216 H216       -6.0918  -24.0365  -49.5019 H         1 UNK         0.0600 
    217 H217       -8.0203  -23.6500  -51.0655 H         1 UNK         0.0600 
    218 H218       -7.3410  -25.2480  -51.3003 H         1 UNK         0.0600 
    219 H219       -6.9736  -23.9606  -52.4467 H         1 UNK         0.0600 
    220 H220       -3.8652  -22.5347  -49.5851 H         1 UNK         0.3000 
    221 H221       -2.9387  -20.5243  -49.6113 H         1 UNK         0.0600 
    222 H222       -5.7891  -19.4273  -49.4922 H         1 UNK         0.0600 
    223 H223       -4.9043  -20.0697  -48.1108 H         1 UNK         0.0600 
    224 H224       -4.3245  -18.6347  -48.9250 H         1 UNK         0.0600 
    225 H225       -3.0097  -21.6831  -52.0369 H         1 UNK         0.3000 
    226 H226       -2.7733  -21.5306  -54.1924 H         1 UNK         0.0600 
    227 H227       -1.1108  -19.7771  -53.5785 H         1 UNK         0.0600 
    228 H228       -1.8102  -19.4689  -55.1571 H         1 UNK         0.0600 
    229 H229       -2.3429  -18.5279  -53.7721 H         1 UNK         0.0600 
    230 H230       -5.5364  -20.8083  -52.9471 H         1 UNK         0.3000 
    231 H231       -7.5913  -20.2738  -53.4590 H         1 UNK         0.0600 
    232 H232       -7.3340  -21.9174  -55.3382 H         1 UNK         0.0600 
    233 H233       -6.8689  -20.6036  -56.4187 H         1 UNK         0.0600 
    234 H234       -8.4812  -20.6452  -55.7206 H         1 UNK         0.0600 
    235 H235       -5.5391  -18.1946  -53.1880 H         1 UNK         0.3000 
    236 H236       -6.8812  -15.8890  -54.5523 H         1 UNK         0.0600 
    237 H237       -4.6021  -14.9412  -54.9151 H         1 UNK         0.0600 
    238 H238       -3.8722  -16.4065  -54.2675 H         1 UNK         0.0600 
    239 H239       -4.7935  -16.4670  -55.7675 H         1 UNK         0.0600 
    240 H240       -4.9054  -17.0391  -51.7700 H         1 UNK         0.3000 
    241 H241       -5.4044  -14.4880  -50.3384 H         1 UNK         0.0600 
    242 H242       -7.8613  -17.2896  -48.9858 H         1 UNK         0.3800 
    243 H243       -7.2301  -17.2625  -50.6122 H         1 UNK         0.3800 
    244 H244       -3.6660  -15.3359  -48.7491 H         1 UNK         0.0800 
    245 H245       -3.4740  -16.7643  -49.7308 H         1 UNK         0.0800 
    246 H246       -2.5370  -16.8040  -52.1298 H         1 UNK         0.0800 
    247 H247       -1.2783  -15.7000  -52.6043 H         1 UNK         0.0800 
@<TRIPOS>BOND
     1    1    2 1    
     2    1  127 1    
     3    1  128 1    
     4    1  129 1    
     5    2    3 2    
     6    2    4 am   BACKBONE|DICT|INTERRES
     7    4    5 1    
     8    4  130 1    
     9    5    6 1    
    10    5   65 1    
    11    5  131 1    
    12    6    7 1    
    13    6  132 1    
    14    6  133 1    
    15    7    8 1    
    16    8    9 1    
    17    8  134 1    
    18    8  135 1    
    19    9   10 ar   
    20    9   14 ar   
    21   10   11 ar   
    22   10  136 1    
    23   11   12 ar   
    24   11  126 1    
    25   12   13 ar   
    26   12  137 1    
    27   13   14 ar   
    28   13   15 1    
    29   14  138 1    
    30   15   16 1    
    31   15  139 1    
    32   15  140 1    
    33   16   17 1    
    34   17   18 1    
    35   17  141 1    
    36   17  142 1    
    37   18   19 1    
    38   18   67 1    
    39   18  143 1    
    40   19   20 am   BACKBONE|DICT|INTERRES
    41   19  144 1    
    42   20   21 2    
    43   20   22 1    
    44   22   23 1    
    45   22   24 1    
    46   22  145 1    
    47   23  146 1    
    48   23  147 1    
    49   23  148 1    
    50   24   25 am   BACKBONE|DICT|INTERRES
    51   24  149 1    
    52   25   26 2    
    53   25   27 1    
    54   27   28 1    
    55   27   29 1    
    56   27  150 1    
    57   28  151 1    
    58   28  152 1    
    59   28  153 1    
    60   29   30 am   BACKBONE|DICT|INTERRES
    61   29  154 1    
    62   30   31 2    
    63   30   32 1    
    64   32   33 1    
    65   32   34 1    
    66   32  155 1    
    67   33  156 1    
    68   33  157 1    
    69   33  158 1    
    70   34   35 am   BACKBONE|DICT|INTERRES
    71   34  159 1    
    72   35   36 2    
    73   35   37 1    
    74   37   38 1    
    75   37   39 1    
    76   37  160 1    
    77   38  161 1    
    78   38  162 1    
    79   38  163 1    
    80   39   40 am   BACKBONE|DICT|INTERRES
    81   39  164 1    
    82   40   41 2    
    83   40   42 1    
    84   42   43 1    
    85   42   44 1    
    86   42  165 1    
    87   43  166 1    
    88   43  167 1    
    89   43  168 1    
    90   44   45 am   BACKBONE|DICT|INTERRES
    91   44  169 1    
    92   45   46 2    
    93   45   47 1    
    94   47   48 1    
    95   47   49 1    
    96   47  170 1    
    97   48  171 1    
    98   48  172 1    
    99   48  173 1    
   100   49   50 am   BACKBONE|DICT|INTERRES
   101   49  174 1    
   102   50   51 2    
   103   50   52 1    
   104   52   53 1    
   105   52   54 1    
   106   52  175 1    
   107   53  176 1    
   108   53  177 1    
   109   53  178 1    
   110   54   55 am   BACKBONE|DICT|INTERRES
   111   54  179 1    
   112   55   56 2    
   113   55   57 1    
   114   57   58 1    
   115   57   59 1    
   116   57  180 1    
   117   58  181 1    
   118   58  182 1    
   119   58  183 1    
   120   59   60 am   BACKBONE|DICT|INTERRES
   121   59  184 1    
   122   60   61 2    
   123   60   62 1    
   124   62   63 1    
   125   62   64 1    
   126   62  185 1    
   127   63  186 1    
   128   63  187 1    
   129   63  188 1    
   130   64   65 am   BACKBONE|DICT|INTERRES
   131   64  189 1    
   132   65   66 2    
   133   67   68 2    
   134   67   69 am   BACKBONE|DICT|INTERRES
   135   69   70 1    
   136   69  190 1    
   137   70   71 1    
   138   70   72 1    
   139   70  191 1    
   140   71  192 1    
   141   71  193 1    
   142   71  194 1    
   143   72   73 2    
   144   72   74 am   BACKBONE|DICT|INTERRES
   145   74   75 1    
   146   74  195 1    
   147   75   76 1    
   148   75   77 1    
   149   75  196 1    
   150   76  197 1    
   151   76  198 1    
   152   76  199 1    
   153   77   78 2    
   154   77   79 am   BACKBONE|DICT|INTERRES
   155   79   80 1    
   156   79  200 1    
   157   80   81 1    
   158   80   82 1    
   159   80  201 1    
   160   81  202 1    
   161   81  203 1    
   162   81  204 1    
   163   82   83 2    
   164   82   84 am   BACKBONE|DICT|INTERRES
   165   84   85 1    
   166   84  205 1    
   167   85   86 1    
   168   85   87 1    
   169   85  206 1    
   170   86  207 1    
   171   86  208 1    
   172   86  209 1    
   173   87   88 2    
   174   87   89 am   BACKBONE|DICT|INTERRES
   175   89   90 1    
   176   89  210 1    
   177   90   91 1    
   178   90   92 1    
   179   90  211 1    
   180   91  212 1    
   181   91  213 1    
   182   91  214 1    
   183   92   93 2    
   184   92   94 am   BACKBONE|DICT|INTERRES
   185   94   95 1    
   186   94  215 1    
   187   95   96 1    
   188   95   97 1    
   189   95  216 1    
   190   96  217 1    
   191   96  218 1    
   192   96  219 1    
   193   97   98 2    
   194   97   99 am   BACKBONE|DICT|INTERRES
   195   99  100 1    
   196   99  220 1    
   197  100  101 1    
   198  100  102 1    
   199  100  221 1    
   200  101  222 1    
   201  101  223 1    
   202  101  224 1    
   203  102  103 2    
   204  102  104 am   BACKBONE|DICT|INTERRES
   205  104  105 1    
   206  104  225 1    
   207  105  106 1    
   208  105  107 1    
   209  105  226 1    
   210  106  227 1    
   211  106  228 1    
   212  106  229 1    
   213  107  108 2    
   214  107  109 am   BACKBONE|DICT|INTERRES
   215  109  110 1    
   216  109  230 1    
   217  110  111 1    
   218  110  112 1    
   219  110  231 1    
   220  111  232 1    
   221  111  233 1    
   222  111  234 1    
   223  112  113 2    
   224  112  114 am   BACKBONE|DICT|INTERRES
   225  114  115 1    
   226  114  235 1    
   227  115  116 1    
   228  115  117 1    
   229  115  236 1    
   230  116  237 1    
   231  116  238 1    
   232  116  239 1    
   233  117  118 2    
   234  117  119 am   BACKBONE|DICT|INTERRES
   235  119  120 1    
   236  119  240 1    
   237  120  121 1    
   238  120  124 1    
   239  120  241 1    
   240  121  122 am   BACKBONE|DICT|INTERRES
   241  121  123 2    
   242  122  242 1    
   243  122  243 1    
   244  124  125 1    
   245  124  244 1    
   246  124  245 1    
   247  125  126 1    
   248  126  246 1    
   249  126  247 1    
@<TRIPOS>SUBSTRUCTURE
     1 UNK         1 GROUP             0       ****    0 ROOT    
