@<TRIPOS>MOLECULE
3R540
247   249    1
SMALL
USER_CHARGES


@<TRIPOS>ATOM
      1 CA          5.8840  -11.2693  -47.4561 C.3       0 UNK        -0.1800 
      2 C           5.3526  -12.6800  -47.6653 C.2       0 UNK         0.5000 
      3 O           5.9958  -13.6447  -47.2499 O.2       0 UNK        -0.5000 
      4 N           4.1836  -12.8064  -48.3072 N.am      1 UNK        -0.5000 
      5 CA          3.4840  -14.0737  -48.5310 C.3       1 UNK         0.1400 
      6 C6          2.3135  -13.9061  -49.5326 C.3       23 UNK        -0.0398 
      7 S7          1.4596  -15.4725  -49.9225 S.3       23 UNK        -0.2404 
      8 C8          2.4275  -16.0646  -51.3410 C.3       23 UNK        -0.0205 
      9 C9          2.0556  -17.5011  -51.6632 C.ar      23 UNK        -0.0193 
     10 C10         1.0091  -17.7765  -52.5454 C.ar      23 UNK        -0.1150 
     11 C11         0.6407  -19.0959  -52.8207 C.ar      23 UNK        -0.0193 
     12 C12         1.3240  -20.1430  -52.1929 C.ar      23 UNK        -0.1150 
     13 C13         2.3845  -19.8848  -51.3151 C.ar      23 UNK        -0.0193 
     14 C14         2.7520  -18.5562  -51.0687 C.ar      23 UNK        -0.1150 
     15 C15         3.1339  -21.0671  -50.6970 C.3       23 UNK        -0.0205 
     16 S16         3.9920  -20.7594  -49.1054 S.3       23 UNK        -0.2404 
     17 C17         2.6970  -20.0760  -48.0121 C.3       23 UNK        -0.0398 
     18 CA          1.8221  -21.1441  -47.3097 C.3       11 UNK         0.1400 
     19 N           1.1857  -20.6148  -46.0972 N.am      11 UNK        -0.5000 
     20 C           0.4736  -21.3434  -45.2254 C.2       10 UNK         0.5000 
     21 O           0.3156  -22.5594  -45.3204 O.2       10 UNK        -0.5000 
     22 CA         -0.2188  -20.5887  -44.0739 C.3       10 UNK         0.1400 
     23 CB          0.7194  -20.4643  -42.8658 C.3       10 UNK        -0.1800 
     24 N          -0.7468  -19.2626  -44.4098 N.am      10 UNK        -0.5000 
     25 C          -1.5729  -18.9739  -45.4269 C.2       9 UNK         0.5000 
     26 O          -1.8912  -19.7774  -46.3046 O.2       9 UNK        -0.5000 
     27 CA         -2.1538  -17.5466  -45.4251 C.3       9 UNK         0.1400 
     28 CB         -3.1832  -17.3057  -46.5483 C.3       9 UNK        -0.1800 
     29 N          -2.7087  -17.2002  -44.1130 N.am      9 UNK        -0.5000 
     30 C          -3.7106  -17.8110  -43.4591 C.2       8 UNK         0.5000 
     31 O          -4.3791  -18.7358  -43.9211 O.2       8 UNK        -0.5000 
     32 CA         -4.0087  -17.3158  -42.0317 C.3       8 UNK         0.1400 
     33 CB         -3.3670  -18.2571  -40.9998 C.3       8 UNK        -0.1800 
     34 N          -3.5196  -15.9546  -41.8056 N.am      8 UNK        -0.5000 
     35 C          -4.2097  -14.8435  -42.1003 C.2       7 UNK         0.5000 
     36 O          -5.3631  -14.8495  -42.5317 O.2       7 UNK        -0.5000 
     37 CA         -3.4910  -13.4963  -41.8861 C.3       7 UNK         0.1400 
     38 CB         -3.7962  -12.9407  -40.4868 C.3       7 UNK        -0.1800 
     39 N          -2.0398  -13.5859  -42.0580 N.am      7 UNK        -0.5000 
     40 C          -1.4203  -13.7887  -43.2292 C.2       6 UNK         0.5000 
     41 O          -2.0064  -13.8744  -44.3078 O.2       6 UNK        -0.5000 
     42 CA          0.1079  -13.9709  -43.1803 C.3       6 UNK         0.1400 
     43 CB          0.8230  -12.6318  -43.4093 C.3       6 UNK        -0.1800 
     44 N           0.5948  -14.5707  -41.9338 N.am      6 UNK        -0.5000 
     45 C           0.2949  -15.8066  -41.5107 C.2       5 UNK         0.5000 
     46 O          -0.5130  -16.5446  -42.0811 O.2       5 UNK        -0.5000 
     47 CA          1.0634  -16.2911  -40.2713 C.3       5 UNK         0.1400 
     48 CB          0.6644  -17.7114  -39.8261 C.3       5 UNK        -0.1800 
     49 N           2.4951  -16.2310  -40.5558 N.am      5 UNK        -0.5000 
     50 C           3.4719  -16.1806  -39.6412 C.2       4 UNK         0.5000 
     51 O           3.2645  -16.1579  -38.4270 O.2       4 UNK        -0.5000 
     52 CA          4.9295  -16.1561  -40.1524 C.3       4 UNK         0.1400 
     53 CB          5.5276  -17.5712  -40.1209 C.3       4 UNK        -0.1800 
     54 N           5.0825  -15.6111  -41.5033 N.am      4 UNK        -0.5000 
     55 C           4.8593  -14.3354  -41.8449 C.2       3 UNK         0.5000 
     56 O           4.5619  -13.4580  -41.0333 O.2       3 UNK        -0.5000 
     57 CA          4.9710  -13.9660  -43.3404 C.3       3 UNK         0.1400 
     58 CB          6.3755  -13.4176  -43.6372 C.3       3 UNK        -0.1800 
     59 N           4.6517  -15.0094  -44.3285 N.am      3 UNK        -0.5000 
     60 C           3.6005  -15.8453  -44.3273 C.2       2 UNK         0.5000 
     61 O           2.8557  -16.0090  -43.3648 O.2       2 UNK        -0.5000 
     62 CA          3.3238  -16.6250  -45.6298 C.3       2 UNK         0.1400 
     63 CB          1.8899  -17.1965  -45.6732 C.3       2 UNK        -0.1800 
     64 N           3.5896  -15.8402  -46.8393 N.am      2 UNK        -0.5000 
     65 C           3.0281  -14.6702  -47.1825 C.2       1 UNK         0.5000 
     66 O           2.2050  -14.0592  -46.4971 O.2       1 UNK        -0.5000 
     67 C           0.7724  -21.7169  -48.2808 C.2       11 UNK         0.5000 
     68 O           0.8657  -22.8794  -48.6754 O.2       11 UNK        -0.5000 
     69 N          -0.2246  -20.8894  -48.6213 N.am      12 UNK        -0.5000 
     70 CA         -1.3147  -21.2382  -49.5267 C.3       12 UNK         0.1400 
     71 CB         -2.1152  -19.9757  -49.8724 C.3       12 UNK        -0.1800 
     72 C          -2.2273  -22.3276  -48.9445 C.2       12 UNK         0.5000 
     73 O          -2.7093  -23.1724  -49.6977 O.2       12 UNK        -0.5000 
     74 N          -2.4314  -22.3051  -47.6210 N.am      13 UNK        -0.5000 
     75 CA         -3.1689  -23.3242  -46.8783 C.3       13 UNK         0.1400 
     76 CB         -3.3920  -22.8513  -45.4345 C.3       13 UNK        -0.1800 
     77 C          -2.4671  -24.6942  -46.9149 C.2       13 UNK         0.5000 
     78 O          -3.1206  -25.6967  -47.2036 O.2       13 UNK        -0.5000 
     79 N          -1.1483  -24.7109  -46.6682 N.am      14 UNK        -0.5000 
     80 CA         -0.3072  -25.9100  -46.7223 C.3       14 UNK         0.1400 
     81 CB          1.0783  -25.5961  -46.1381 C.3       14 UNK        -0.1800 
     82 C          -0.1760  -26.4878  -48.1432 C.2       14 UNK         0.5000 
     83 O          -0.1916  -27.7081  -48.3076 O.2       14 UNK        -0.5000 
     84 N          -0.0787  -25.6029  -49.1444 N.am      15 UNK        -0.5000 
     85 CA         -0.0383  -25.9501  -50.5666 C.3       15 UNK         0.1400 
     86 CB          0.4659  -24.7298  -51.3551 C.3       15 UNK        -0.1800 
     87 C          -1.3968  -26.4180  -51.1294 C.2       15 UNK         0.5000 
     88 O          -1.4274  -26.9756  -52.2267 O.2       15 UNK        -0.5000 
     89 N          -2.4879  -26.1442  -50.3964 N.am      16 UNK        -0.5000 
     90 CA         -3.8977  -26.3128  -50.7751 C.3       16 UNK         0.1400 
     91 CB         -4.2417  -27.7940  -51.0321 C.3       16 UNK        -0.1800 
     92 C          -4.3306  -25.3856  -51.9336 C.2       16 UNK         0.5000 
     93 O          -5.3539  -25.6279  -52.5746 O.2       16 UNK        -0.5000 
     94 N          -3.5567  -24.3169  -52.1575 N.am      17 UNK        -0.5000 
     95 CA         -3.8009  -23.2701  -53.1434 C.3       17 UNK         0.1400 
     96 CB         -2.4708  -22.5728  -53.4593 C.3       17 UNK        -0.1800 
     97 C          -4.8382  -22.2485  -52.6507 C.2       17 UNK         0.5000 
     98 O          -5.5012  -21.6203  -53.4762 O.2       17 UNK        -0.5000 
     99 N          -4.9881  -22.1182  -51.3225 N.am      18 UNK        -0.5000 
    100 CA        -5.9471  -21.2300  -50.6565 C.3       18 UNK         0.1400 
    101 CB        -5.7506  -21.3044  -49.1351 C.3       18 UNK        -0.1800 
    102 C         -7.4160  -21.5207  -51.0168 C.2       18 UNK         0.5000 
    103 O         -8.2236  -20.5929  -51.0460 O.2       18 UNK        -0.5000 
    104 N         -7.7222  -22.7832  -51.3486 N.am      19 UNK        -0.5000 
    105 CA        -9.0267  -23.2353  -51.8404 C.3       19 UNK         0.1400 
    106 CB        -9.0179  -24.7691  -51.9260 C.3       19 UNK        -0.1800 
    107 C         -9.4210  -22.6213  -53.2009 C.2       19 UNK         0.5000 
    108 O        -10.6126  -22.5107  -53.4909 O.2       19 UNK        -0.5000 
    109 N         -8.4195  -22.2177  -53.9931 N.am      20 UNK        -0.5000 
    110 CA        -8.5667  -21.5142  -55.2670 C.3       20 UNK         0.1400 
    111 CB        -7.7365  -22.2624  -56.3246 C.3       20 UNK        -0.1800 
    112 C         -8.1127  -20.0438  -55.1583 C.2       20 UNK         0.5000 
    113 O         -8.0135  -19.3699  -56.1848 O.2       20 UNK        -0.5000 
    114 N         -7.7953  -19.5809  -53.9373 N.am      21 UNK        -0.5000 
    115 CA        -7.2192  -18.2738  -53.5952 C.3       21 UNK         0.1400 
    116 CB        -8.2815  -17.1672  -53.7550 C.3       21 UNK        -0.1800 
    117 C         -5.9083  -17.9639  -54.3559 C.2       21 UNK         0.5000 
    118 O         -5.6667  -16.8118  -54.7202 O.2       21 UNK        -0.5000 
    119 N         -5.1096  -19.0102  -54.6132 N.am      22 UNK        -0.5000 
    120 CA        -3.9146  -19.0123  -55.4767 C.3       22 UNK         0.1400 
    121 C         -4.2026  -18.7521  -56.9908 C.2       22 UNK         0.5000 
    122 N         -5.4430  -18.7989  -57.4632 N.am      22 UNK        -0.7600 
    123 O         -3.2783  -18.5409  -57.7714 O.2       22 UNK        -0.5000 
    124 C124       -2.7547  -18.1309  -54.9284 C.3       23 UNK        -0.0398 
    125 S125       -2.0798  -18.7338  -53.3387 S.3       23 UNK        -0.2404 
    126 C126       -0.4483  -19.3800  -53.8466 C.3       23 UNK        -0.0205 
    127 H127        5.2281  -10.5189  -47.8982 H         1 UNK         0.0600 
    128 H128        6.8700  -11.1689  -47.9096 H         1 UNK         0.0600 
    129 H129        5.9742  -11.0571  -46.3908 H         1 UNK         0.0600 
    130 H130        3.6911  -11.9747  -48.6001 H         1 UNK         0.3000 
    131 H131        4.2036  -14.7578  -48.9862 H         1 UNK         0.0600 
    132 H132        2.6753  -13.4631  -50.4616 H         1 UNK         0.0800 
    133 H133        1.5730  -13.2087  -49.1370 H         1 UNK         0.0800 
    134 H134        2.2461  -15.4212  -52.2034 H         1 UNK         0.0800 
    135 H135        3.4934  -15.9961  -51.1186 H         1 UNK         0.0800 
    136 H136        0.4787  -16.9629  -53.0203 H         1 UNK         0.1150 
    137 H137        1.0472  -21.1655  -52.4089 H         1 UNK         0.1150 
    138 H138        3.5746  -18.3339  -50.4047 H         1 UNK         0.1150 
    139 H139        2.4574  -21.9125  -50.5738 H         1 UNK         0.0800 
    140 H140        3.8831  -21.3959  -51.4180 H         1 UNK         0.0800 
    141 H141        2.0919  -19.3403  -48.5427 H         1 UNK         0.0800 
    142 H142        3.2377  -19.5077  -47.2546 H         1 UNK         0.0800 
    143 H143        2.4676  -21.9672  -46.9951 H         1 UNK         0.0600 
    144 H144        1.2433  -19.6205  -45.9438 H         1 UNK         0.3000 
    145 H145       -1.0722  -21.1953  -43.7670 H         1 UNK         0.0600 
    146 H146        0.1727  -20.1215  -41.9880 H         1 UNK         0.0600 
    147 H147        1.1642  -21.4272  -42.6104 H         1 UNK         0.0600 
    148 H148        1.5337  -19.7636  -43.0540 H         1 UNK         0.0600 
    149 H149       -0.5698  -18.5335  -43.7312 H         1 UNK         0.3000 
    150 H150       -1.3172  -16.8679  -45.5951 H         1 UNK         0.0600 
    151 H151       -2.7260  -17.4419  -47.5289 H         1 UNK         0.0600 
    152 H152       -3.5744  -16.2890  -46.5108 H         1 UNK         0.0600 
    153 H153       -4.0269  -17.9934  -46.4842 H         1 UNK         0.0600 
    154 H154       -2.2053  -16.4842  -43.6063 H         1 UNK         0.3000 
    155 H155       -5.0908  -17.3424  -41.8864 H         1 UNK         0.0600 
    156 H156       -2.2876  -18.3287  -41.1338 H         1 UNK         0.0600 
    157 H157       -3.7723  -19.2657  -41.0898 H         1 UNK         0.0600 
    158 H158       -3.5591  -17.9194  -39.9813 H         1 UNK         0.0600 
    159 H159       -2.5613  -15.8695  -41.4943 H         1 UNK         0.3000 
    160 H160       -3.8797  -12.7927  -42.6255 H         1 UNK         0.0600 
    161 H161       -3.4151  -13.5947  -39.7014 H         1 UNK         0.0600 
    162 H162       -4.8713  -12.8366  -40.3341 H         1 UNK         0.0600 
    163 H163       -3.3529  -11.9545  -40.3483 H         1 UNK         0.0600 
    164 H164       -1.4758  -13.5246  -41.2230 H         1 UNK         0.3000 
    165 H165        0.3811  -14.6421  -43.9970 H         1 UNK         0.0600 
    166 H166        1.9012  -12.7718  -43.4790 H         1 UNK         0.0600 
    167 H167        0.4987  -12.1714  -44.3436 H         1 UNK         0.0600 
    168 H168        0.6241  -11.9239  -42.6040 H         1 UNK         0.0600 
    169 H169        1.2885  -14.0447  -41.4225 H         1 UNK         0.3000 
    170 H170        0.8293  -15.5964  -39.4623 H         1 UNK         0.0600 
    171 H171       -0.4094  -17.7828  -39.6515 H         1 UNK         0.0600 
    172 H172        0.9314  -18.4509  -40.5797 H         1 UNK         0.0600 
    173 H173        1.1596  -17.9907  -38.8964 H         1 UNK         0.0600 
    174 H174        2.7367  -16.2039  -41.5466 H         1 UNK         0.3000 
    175 H175        5.5046  -15.5277  -39.4691 H         1 UNK         0.0600 
    176 H176        5.0047  -18.2431  -40.8029 H         1 UNK         0.0600 
    177 H177        6.5816  -17.5613  -40.3995 H         1 UNK         0.0600 
    178 H178        5.4613  -18.0019  -39.1209 H         1 UNK         0.0600 
    179 H179        5.2995  -16.2686  -42.2375 H         1 UNK         0.3000 
    180 H180        4.2587  -13.1577  -43.5119 H         1 UNK         0.0600 
    181 H181        7.1329  -14.1992  -43.5673 H         1 UNK         0.0600 
    182 H182        6.6492  -12.6305  -42.9331 H         1 UNK         0.0600 
    183 H183        6.4302  -12.9854  -44.6356 H         1 UNK         0.0600 
    184 H184        5.1915  -14.9632  -45.1823 H         1 UNK         0.3000 
    185 H185        4.0207  -17.4640  -45.6419 H         1 UNK         0.0600 
    186 H186        1.7410  -17.9253  -44.8767 H         1 UNK         0.0600 
    187 H187        1.1432  -16.4134  -45.5405 H         1 UNK         0.0600 
    188 H188        1.6827  -17.6861  -46.6234 H         1 UNK         0.0600 
    189 H189        4.2879  -16.2275  -47.4586 H         1 UNK         0.3000 
    190 H190       -0.2824  -19.9819  -48.1836 H         1 UNK         0.3000 
    191 H191       -0.8747  -21.6252  -50.4474 H         1 UNK         0.0600 
    192 H192       -1.4722  -19.2105  -50.3080 H         1 UNK         0.0600 
    193 H193       -2.8951  -20.1954  -50.6021 H         1 UNK         0.0600 
    194 H194       -2.5972  -19.5478  -48.9928 H         1 UNK         0.0600 
    195 H195       -2.0573  -21.5238  -47.0890 H         1 UNK         0.3000 
    196 H196       -4.1466  -23.4381  -47.3502 H         1 UNK         0.0600 
    197 H197       -4.0109  -23.5607  -44.8841 H         1 UNK         0.0600 
    198 H198       -3.8982  -21.8858  -45.4081 H         1 UNK         0.0600 
    199 H199       -2.4513  -22.7504  -44.8946 H         1 UNK         0.0600 
    200 H200       -0.6811  -23.8469  -46.4077 H         1 UNK         0.3000 
    201 H201       -0.7730  -26.6741  -46.0966 H         1 UNK         0.0600 
    202 H202        1.0036  -25.2786  -45.0980 H         1 UNK         0.0600 
    203 H203        1.5789  -24.8027  -46.6946 H         1 UNK         0.0600 
    204 H204        1.7234  -26.4751  -46.1640 H         1 UNK         0.0600 
    205 H205        0.0093  -24.6164  -48.9151 H         1 UNK         0.3000 
    206 H206        0.6739  -26.7663  -50.7037 H         1 UNK         0.0600 
    207 H207        1.4549  -24.4216  -51.0153 H         1 UNK         0.0600 
    208 H208        0.5442  -24.9532  -52.4199 H         1 UNK         0.0600 
    209 H209       -0.2052  -23.8773  -51.2473 H         1 UNK         0.0600 
    210 H210       -2.3411  -25.6711  -49.5142 H         1 UNK         0.3000 
    211 H211       -4.4741  -25.9901  -49.9069 H         1 UNK         0.0600 
    212 H212       -3.7747  -28.1690  -51.9430 H         1 UNK         0.0600 
    213 H213       -5.3182  -27.9310  -51.1400 H         1 UNK         0.0600 
    214 H214       -3.9171  -28.4231  -50.2033 H         1 UNK         0.0600 
    215 H215       -2.8037  -24.1504  -51.5008 H         1 UNK         0.3000 
    216 H216       -4.1822  -23.7258  -54.0596 H         1 UNK         0.0600 
    217 H217       -2.6000  -21.8333  -54.2490 H         1 UNK         0.0600 
    218 H218       -1.7216  -23.2862  -53.8031 H         1 UNK         0.0600 
    219 H219       -2.0678  -22.0566  -52.5874 H         1 UNK         0.0600 
    220 H220       -4.3743  -22.6582  -50.7223 H         1 UNK         0.3000 
    221 H221       -5.7300  -20.2099  -50.9799 H         1 UNK         0.0600 
    222 H222       -5.8406  -22.3270  -48.7677 H         1 UNK         0.0600 
    223 H223       -4.7744  -20.9224  -48.8419 H         1 UNK         0.0600 
    224 H224       -6.4945  -20.7014  -48.6126 H         1 UNK         0.0600 
    225 H225       -6.9897  -23.4773  -51.3143 H         1 UNK         0.3000 
    226 H226       -9.7831  -22.9347  -51.1126 H         1 UNK         0.0600 
    227 H227       -8.8170  -25.2181  -50.9531 H         1 UNK         0.0600 
    228 H228       -9.9832  -25.1480  -52.2646 H         1 UNK         0.0600 
    229 H229       -8.2604  -25.1282  -52.6242 H         1 UNK         0.0600 
    230 H230       -7.4655  -22.3254  -53.6677 H         1 UNK         0.3000 
    231 H231       -9.6100  -21.5075  -55.5880 H         1 UNK         0.0600 
    232 H232       -8.0514  -23.3027  -56.4082 H         1 UNK         0.0600 
    233 H233       -6.6732  -22.2526  -56.0804 H         1 UNK         0.0600 
    234 H234       -7.8519  -21.8103  -57.3104 H         1 UNK         0.0600 
    235 H235       -7.9356  -20.2027  -53.1514 H         1 UNK         0.3000 
    236 H236       -6.9504  -18.3249  -52.5393 H         1 UNK         0.0600 
    237 H237       -7.9114  -16.2106  -53.3844 H         1 UNK         0.0600 
    238 H238       -8.5650  -17.0276  -54.7987 H         1 UNK         0.0600 
    239 H239       -9.1838  -17.4042  -53.1912 H         1 UNK         0.0600 
    240 H240       -5.3845  -19.9224  -54.2576 H         1 UNK         0.3000 
    241 H241       -3.5628  -20.0434  -55.4621 H         1 UNK         0.0600 
    242 H242       -6.2410  -18.9724  -56.8598 H         1 UNK         0.3800 
    243 H243       -5.5967  -18.6405  -58.4461 H         1 UNK         0.3800 
    244 H244       -3.0863  -17.1020  -54.7896 H         1 UNK         0.0800 
    245 H245       -1.9429  -18.0675  -55.6525 H         1 UNK         0.0800 
    246 H246       -0.1300  -18.9341  -54.7888 H         1 UNK         0.0800 
    247 H247       -0.5344  -20.4502  -54.0352 H         1 UNK         0.0800 
@<TRIPOS>BOND
     1    1    2 1    
     2    1  127 1    
     3    1  128 1    
     4    1  129 1    
     5    2    3 2    
     6    2    4 am   BACKBONE|DICT|INTERRES
     7    4    5 1    
     8    4  130 1    
     9    5    6 1    
    10    5   65 1    
    11    5  131 1    
    12    6    7 1    
    13    6  132 1    
    14    6  133 1    
    15    7    8 1    
    16    8    9 1    
    17    8  134 1    
    18    8  135 1    
    19    9   10 ar   
    20    9   14 ar   
    21   10   11 ar   
    22   10  136 1    
    23   11   12 ar   
    24   11  126 1    
    25   12   13 ar   
    26   12  137 1    
    27   13   14 ar   
    28   13   15 1    
    29   14  138 1    
    30   15   16 1    
    31   15  139 1    
    32   15  140 1    
    33   16   17 1    
    34   17   18 1    
    35   17  141 1    
    36   17  142 1    
    37   18   19 1    
    38   18   67 1    
    39   18  143 1    
    40   19   20 am   BACKBONE|DICT|INTERRES
    41   19  144 1    
    42   20   21 2    
    43   20   22 1    
    44   22   23 1    
    45   22   24 1    
    46   22  145 1    
    47   23  146 1    
    48   23  147 1    
    49   23  148 1    
    50   24   25 am   BACKBONE|DICT|INTERRES
    51   24  149 1    
    52   25   26 2    
    53   25   27 1    
    54   27   28 1    
    55   27   29 1    
    56   27  150 1    
    57   28  151 1    
    58   28  152 1    
    59   28  153 1    
    60   29   30 am   BACKBONE|DICT|INTERRES
    61   29  154 1    
    62   30   31 2    
    63   30   32 1    
    64   32   33 1    
    65   32   34 1    
    66   32  155 1    
    67   33  156 1    
    68   33  157 1    
    69   33  158 1    
    70   34   35 am   BACKBONE|DICT|INTERRES
    71   34  159 1    
    72   35   36 2    
    73   35   37 1    
    74   37   38 1    
    75   37   39 1    
    76   37  160 1    
    77   38  161 1    
    78   38  162 1    
    79   38  163 1    
    80   39   40 am   BACKBONE|DICT|INTERRES
    81   39  164 1    
    82   40   41 2    
    83   40   42 1    
    84   42   43 1    
    85   42   44 1    
    86   42  165 1    
    87   43  166 1    
    88   43  167 1    
    89   43  168 1    
    90   44   45 am   BACKBONE|DICT|INTERRES
    91   44  169 1    
    92   45   46 2    
    93   45   47 1    
    94   47   48 1    
    95   47   49 1    
    96   47  170 1    
    97   48  171 1    
    98   48  172 1    
    99   48  173 1    
   100   49   50 am   BACKBONE|DICT|INTERRES
   101   49  174 1    
   102   50   51 2    
   103   50   52 1    
   104   52   53 1    
   105   52   54 1    
   106   52  175 1    
   107   53  176 1    
   108   53  177 1    
   109   53  178 1    
   110   54   55 am   BACKBONE|DICT|INTERRES
   111   54  179 1    
   112   55   56 2    
   113   55   57 1    
   114   57   58 1    
   115   57   59 1    
   116   57  180 1    
   117   58  181 1    
   118   58  182 1    
   119   58  183 1    
   120   59   60 am   BACKBONE|DICT|INTERRES
   121   59  184 1    
   122   60   61 2    
   123   60   62 1    
   124   62   63 1    
   125   62   64 1    
   126   62  185 1    
   127   63  186 1    
   128   63  187 1    
   129   63  188 1    
   130   64   65 am   BACKBONE|DICT|INTERRES
   131   64  189 1    
   132   65   66 2    
   133   67   68 2    
   134   67   69 am   BACKBONE|DICT|INTERRES
   135   69   70 1    
   136   69  190 1    
   137   70   71 1    
   138   70   72 1    
   139   70  191 1    
   140   71  192 1    
   141   71  193 1    
   142   71  194 1    
   143   72   73 2    
   144   72   74 am   BACKBONE|DICT|INTERRES
   145   74   75 1    
   146   74  195 1    
   147   75   76 1    
   148   75   77 1    
   149   75  196 1    
   150   76  197 1    
   151   76  198 1    
   152   76  199 1    
   153   77   78 2    
   154   77   79 am   BACKBONE|DICT|INTERRES
   155   79   80 1    
   156   79  200 1    
   157   80   81 1    
   158   80   82 1    
   159   80  201 1    
   160   81  202 1    
   161   81  203 1    
   162   81  204 1    
   163   82   83 2    
   164   82   84 am   BACKBONE|DICT|INTERRES
   165   84   85 1    
   166   84  205 1    
   167   85   86 1    
   168   85   87 1    
   169   85  206 1    
   170   86  207 1    
   171   86  208 1    
   172   86  209 1    
   173   87   88 2    
   174   87   89 am   BACKBONE|DICT|INTERRES
   175   89   90 1    
   176   89  210 1    
   177   90   91 1    
   178   90   92 1    
   179   90  211 1    
   180   91  212 1    
   181   91  213 1    
   182   91  214 1    
   183   92   93 2    
   184   92   94 am   BACKBONE|DICT|INTERRES
   185   94   95 1    
   186   94  215 1    
   187   95   96 1    
   188   95   97 1    
   189   95  216 1    
   190   96  217 1    
   191   96  218 1    
   192   96  219 1    
   193   97   98 2    
   194   97   99 am   BACKBONE|DICT|INTERRES
   195   99  100 1    
   196   99  220 1    
   197  100  101 1    
   198  100  102 1    
   199  100  221 1    
   200  101  222 1    
   201  101  223 1    
   202  101  224 1    
   203  102  103 2    
   204  102  104 am   BACKBONE|DICT|INTERRES
   205  104  105 1    
   206  104  225 1    
   207  105  106 1    
   208  105  107 1    
   209  105  226 1    
   210  106  227 1    
   211  106  228 1    
   212  106  229 1    
   213  107  108 2    
   214  107  109 am   BACKBONE|DICT|INTERRES
   215  109  110 1    
   216  109  230 1    
   217  110  111 1    
   218  110  112 1    
   219  110  231 1    
   220  111  232 1    
   221  111  233 1    
   222  111  234 1    
   223  112  113 2    
   224  112  114 am   BACKBONE|DICT|INTERRES
   225  114  115 1    
   226  114  235 1    
   227  115  116 1    
   228  115  117 1    
   229  115  236 1    
   230  116  237 1    
   231  116  238 1    
   232  116  239 1    
   233  117  118 2    
   234  117  119 am   BACKBONE|DICT|INTERRES
   235  119  120 1    
   236  119  240 1    
   237  120  121 1    
   238  120  124 1    
   239  120  241 1    
   240  121  122 am   BACKBONE|DICT|INTERRES
   241  121  123 2    
   242  122  242 1    
   243  122  243 1    
   244  124  125 1    
   245  124  244 1    
   246  124  245 1    
   247  125  126 1    
   248  126  246 1    
   249  126  247 1    
@<TRIPOS>SUBSTRUCTURE
     1 UNK         1 GROUP             0       ****    0 ROOT    
