@<TRIPOS>MOLECULE
3R540
247   249    1
SMALL
USER_CHARGES


@<TRIPOS>ATOM
      1 CA         -2.0818   -9.5600  -50.9210 C.3       0 UNK        -0.1800 
      2 C          -1.0613  -10.4521  -50.2293 C.2       0 UNK         0.5000 
      3 O           0.1382  -10.3187  -50.4734 O.2       0 UNK        -0.5000 
      4 N          -1.5265  -11.3503  -49.3530 N.am      1 UNK        -0.5000 
      5 CA         -0.7231  -12.3279  -48.6044 C.3       1 UNK         0.1400 
      6 C6         -1.5620  -13.5735  -48.2134 C.3       23 UNK        -0.0398 
      7 S7         -2.2382  -14.4533  -49.6636 S.3       23 UNK        -0.2404 
      8 C8         -4.0355  -14.2934  -49.4140 C.3       23 UNK        -0.0205 
      9 C9         -4.6357  -15.4937  -48.6914 C.ar      23 UNK        -0.0193 
     10 C10        -5.2056  -16.5346  -49.4307 C.ar      23 UNK        -0.1150 
     11 C11        -5.8267  -17.6092  -48.7876 C.ar      23 UNK        -0.0193 
     12 C12        -5.8678  -17.6450  -47.3920 C.ar      23 UNK        -0.1150 
     13 C13        -5.2762  -16.6281  -46.6381 C.ar      23 UNK        -0.0193 
     14 C14        -4.6675  -15.5506  -47.2935 C.ar      23 UNK        -0.1150 
     15 C15        -5.3220  -16.6798  -45.1173 C.3       23 UNK        -0.0205 
     16 S16        -3.7933  -17.3673  -44.4062 S.3       23 UNK        -0.2404 
     17 C17        -4.0284  -19.1752  -44.5510 C.3       23 UNK        -0.0398 
     18 CA         -3.4400  -19.7857  -45.8478 C.3       11 UNK         0.1400 
     19 N          -2.0891  -19.3060  -46.1414 N.am      11 UNK        -0.5000 
     20 C          -1.5147  -19.3568  -47.3495 C.2       10 UNK         0.5000 
     21 O          -2.0052  -19.9186  -48.3256 O.2       10 UNK        -0.5000 
     22 CA         -0.1652  -18.6371  -47.4879 C.3       10 UNK         0.1400 
     23 CB         -0.3974  -17.1337  -47.6949 C.3       10 UNK        -0.1800 
     24 N           0.6936  -18.8553  -46.3237 N.am      10 UNK        -0.5000 
     25 C           1.3063  -20.0198  -46.0653 C.2       9 UNK         0.5000 
     26 O           1.2984  -20.9851  -46.8289 O.2       9 UNK        -0.5000 
     27 CA          2.0279  -20.1345  -44.7122 C.3       9 UNK         0.1400 
     28 CB          3.4641  -19.5993  -44.8181 C.3       9 UNK        -0.1800 
     29 N           1.3378  -19.4215  -43.6402 N.am      9 UNK        -0.5000 
     30 C           0.1310  -19.7183  -43.1419 C.2       8 UNK         0.5000 
     31 O          -0.5646  -20.6429  -43.5614 O.2       8 UNK        -0.5000 
     32 CA         -0.4159  -18.8021  -42.0271 C.3       8 UNK         0.1400 
     33 CB         -1.0711  -19.6002  -40.8830 C.3       8 UNK        -0.1800 
     34 N           0.5606  -17.8313  -41.5161 N.am      8 UNK        -0.5000 
     35 C           1.6786  -18.0470  -40.8057 C.2       7 UNK         0.5000 
     36 O           2.0436  -19.1545  -40.4120 O.2       7 UNK        -0.5000 
     37 CA          2.5658  -16.8149  -40.5236 C.3       7 UNK         0.1400 
     38 CB          3.7899  -16.8237  -41.4533 C.3       7 UNK        -0.1800 
     39 N           1.8593  -15.5450  -40.7036 N.am      7 UNK        -0.5000 
     40 C           0.9256  -15.0591  -39.8741 C.2       6 UNK         0.5000 
     41 O           0.6373  -15.5673  -38.7904 O.2       6 UNK        -0.5000 
     42 CA          0.1420  -13.8339  -40.3788 C.3       6 UNK         0.1400 
     43 CB          0.8909  -12.5279  -40.0712 C.3       6 UNK        -0.1800 
     44 N          -0.1352  -13.9252  -41.8160 N.am      6 UNK        -0.5000 
     45 C          -1.0195  -14.7753  -42.3582 C.2       5 UNK         0.5000 
     46 O          -1.7230  -15.5361  -41.6957 O.2       5 UNK        -0.5000 
     47 CA         -1.1177  -14.8092  -43.8925 C.3       5 UNK         0.1400 
     48 CB         -2.1973  -13.8320  -44.3728 C.3       5 UNK        -0.1800 
     49 N           0.1574  -14.5179  -44.5503 N.am      5 UNK        -0.5000 
     50 C           1.1611  -15.4015  -44.6516 C.2       4 UNK         0.5000 
     51 O           1.0675  -16.5758  -44.2960 O.2       4 UNK        -0.5000 
     52 CA          2.5027  -14.9025  -45.2180 C.3       4 UNK         0.1400 
     53 CB          2.5771  -15.1287  -46.7328 C.3       4 UNK        -0.1800 
     54 N           2.7725  -13.4960  -44.9298 N.am      4 UNK        -0.5000 
     55 C           2.9554  -12.9714  -43.7135 C.2       3 UNK         0.5000 
     56 O           2.8920  -13.6368  -42.6797 O.2       3 UNK        -0.5000 
     57 CA          3.2078  -11.4514  -43.6221 C.3       3 UNK         0.1400 
     58 CB          4.7094  -11.1305  -43.7386 C.3       3 UNK        -0.1800 
     59 N           2.4037  -10.6430  -44.5533 N.am      3 UNK        -0.5000 
     60 C           2.4548  -10.6005  -45.8923 C.2       2 UNK         0.5000 
     61 O           3.2690  -11.2242  -46.5770 O.2       2 UNK        -0.5000 
     62 CA          1.3662   -9.7647  -46.5887 C.3       2 UNK         0.1400 
     63 CB          1.9719   -8.5190  -47.2524 C.3       2 UNK        -0.1800 
     64 N           0.6458  -10.5441  -47.5970 N.am      2 UNK        -0.5000 
     65 C          -0.0328  -11.6791  -47.3787 C.2       1 UNK         0.5000 
     66 O          -0.1351  -12.1962  -46.2643 O.2       1 UNK        -0.5000 
     67 C          -3.5144  -21.3242  -45.8210 C.2       11 UNK         0.5000 
     68 O          -4.5076  -21.8939  -46.2753 O.2       11 UNK        -0.5000 
     69 N          -2.4519  -21.9791  -45.3318 N.am      12 UNK        -0.5000 
     70 CA         -2.2715  -23.4328  -45.3170 C.3       12 UNK         0.1400 
     71 CB         -1.2549  -23.7919  -44.2185 C.3       12 UNK        -0.1800 
     72 C          -1.8647  -23.9792  -46.7044 C.2       12 UNK         0.5000 
     73 O          -0.8643  -24.6869  -46.8285 O.2       12 UNK        -0.5000 
     74 N          -2.6468  -23.6276  -47.7319 N.am      13 UNK        -0.5000 
     75 CA         -2.3898  -23.9457  -49.1348 C.3       13 UNK         0.1400 
     76 CB         -3.1396  -22.9393  -50.0159 C.3       13 UNK        -0.1800 
     77 C          -2.7729  -25.3795  -49.5332 C.2       13 UNK         0.5000 
     78 O          -2.4017  -25.8005  -50.6283 O.2       13 UNK        -0.5000 
     79 N          -3.5118  -26.0980  -48.6744 N.am      14 UNK        -0.5000 
     80 CA         -3.9455  -27.4917  -48.8484 C.3       14 UNK         0.1400 
     81 CB         -2.7316  -28.4414  -48.7608 C.3       14 UNK        -0.1800 
     82 C          -4.7772  -27.7009  -50.1334 C.2       14 UNK         0.5000 
     83 O          -4.5097  -28.6247  -50.9022 O.2       14 UNK        -0.5000 
     84 N          -5.7507  -26.8025  -50.3483 N.am      15 UNK        -0.5000 
     85 CA         -6.6009  -26.6931  -51.5416 C.3       15 UNK         0.1400 
     86 CB         -7.4873  -27.9445  -51.7218 C.3       15 UNK        -0.1800 
     87 C          -5.7948  -26.3215  -52.8059 C.2       15 UNK         0.5000 
     88 O          -6.0161  -26.8893  -53.8770 O.2       15 UNK        -0.5000 
     89 N          -4.8814  -25.3533  -52.6389 N.am      16 UNK        -0.5000 
     90 CA         -3.9929  -24.7746  -53.6529 C.3       16 UNK         0.1400 
     91 CB         -4.8009  -24.0289  -54.7352 C.3       16 UNK        -0.1800 
     92 C          -2.9857  -25.7922  -54.2303 C.2       16 UNK         0.5000 
     93 O          -2.7733  -25.8342  -55.4442 O.2       16 UNK        -0.5000 
     94 N          -2.3916  -26.5994  -53.3433 N.am      17 UNK        -0.5000 
     95 CA         -1.4087  -27.6330  -53.6694 C.3       17 UNK         0.1400 
     96 CB         -1.9653  -29.0048  -53.2588 C.3       17 UNK        -0.1800 
     97 C          -0.0606  -27.3759  -52.9762 C.2       17 UNK         0.5000 
     98 O           0.9834  -27.5947  -53.5918 O.2       17 UNK        -0.5000 
     99 N          -0.0958  -26.9183  -51.7175 N.am      18 UNK        -0.5000 
    100 CA         1.0866  -26.6187  -50.9067 C.3       18 UNK         0.1400 
    101 CB         0.7720  -26.9090  -49.4309 C.3       18 UNK        -0.1800 
    102 C          1.5646  -25.1658  -51.0817 C.2       18 UNK         0.5000 
    103 O          2.7294  -24.8785  -50.8030 O.2       18 UNK        -0.5000 
    104 N          0.6759  -24.2822  -51.5495 N.am      19 UNK        -0.5000 
    105 CA         0.9610  -22.8942  -51.8902 C.3       19 UNK         0.1400 
    106 CB         0.7754  -21.9914  -50.6567 C.3       19 UNK        -0.1800 
    107 C          0.0112  -22.4813  -53.0189 C.2       19 UNK         0.5000 
    108 O         -1.1138  -22.9800  -53.0795 O.2       19 UNK        -0.5000 
    109 N          0.4670  -21.5642  -53.8785 N.am      20 UNK        -0.5000 
    110 CA        -0.3128  -21.0268  -54.9978 C.3       20 UNK         0.1400 
    111 CB         0.6592  -20.5416  -56.0851 C.3       20 UNK        -0.1800 
    112 C         -1.2655  -19.8873  -54.5826 C.2       20 UNK         0.5000 
    113 O         -2.1303  -19.5103  -55.3744 O.2       20 UNK        -0.5000 
    114 N         -1.0886  -19.3564  -53.3629 N.am      21 UNK        -0.5000 
    115 CA        -1.7750  -18.1864  -52.8039 C.3       21 UNK         0.1400 
    116 CB        -1.2770  -17.9659  -51.3675 C.3       21 UNK        -0.1800 
    117 C         -3.3144  -18.2507  -52.8266 C.2       21 UNK         0.5000 
    118 O         -3.9570  -17.2124  -52.9894 O.2       21 UNK        -0.5000 
    119 N         -3.8674  -19.4601  -52.6833 N.am      22 UNK        -0.5000 
    120 CA        -5.3135  -19.7310  -52.7304 C.3       22 UNK         0.1400 
    121 C         -5.8004  -20.2579  -54.1122 C.2       22 UNK         0.5000 
    122 N         -4.9697  -20.3009  -55.1479 N.am      22 UNK        -0.7600 
    123 O         -6.9638  -20.6229  -54.2566 O.2       22 UNK        -0.5000 
    124 C124       -5.7760  -20.6469  -51.5644 C.3       23 UNK        -0.0398 
    125 S125       -5.2442  -20.0415  -49.9251 S.3       23 UNK        -0.2404 
    126 C126       -6.4558  -18.7262  -49.6036 C.3       23 UNK        -0.0205 
    127 H127       -3.1004   -9.7905  -50.6078 H         1 UNK         0.0600 
    128 H128       -1.8830   -8.5134  -50.6900 H         1 UNK         0.0600 
    129 H129       -2.0212   -9.6895  -52.0016 H         1 UNK         0.0600 
    130 H130       -2.5203  -11.3895  -49.1803 H         1 UNK         0.3000 
    131 H131        0.0835  -12.6756  -49.2535 H         1 UNK         0.0600 
    132 H132       -0.9548  -14.2853  -47.6527 H         1 UNK         0.0800 
    133 H133       -2.3773  -13.2785  -47.5542 H         1 UNK         0.0800 
    134 H134       -4.5036  -14.1887  -50.3940 H         1 UNK         0.0800 
    135 H135       -4.2708  -13.3729  -48.8784 H         1 UNK         0.0800 
    136 H136       -5.1760  -16.5041  -50.5113 H         1 UNK         0.1150 
    137 H137       -6.3487  -18.4746  -46.8929 H         1 UNK         0.1150 
    138 H138       -4.2296  -14.7512  -46.7140 H         1 UNK         0.1150 
    139 H139       -5.4585  -15.6694  -44.7290 H         1 UNK         0.0800 
    140 H140       -6.1847  -17.2521  -44.7733 H         1 UNK         0.0800 
    141 H141       -5.0914  -19.4078  -44.4702 H         1 UNK         0.0800 
    142 H142       -3.5551  -19.6254  -43.6762 H         1 UNK         0.0800 
    143 H143       -4.0712  -19.4680  -46.6775 H         1 UNK         0.0600 
    144 H144       -1.6105  -18.8297  -45.3935 H         1 UNK         0.3000 
    145 H145        0.3327  -19.0307  -48.3770 H         1 UNK         0.0600 
    146 H146        0.5107  -16.6357  -48.0273 H         1 UNK         0.0600 
    147 H147       -1.1508  -16.9615  -48.4640 H         1 UNK         0.0600 
    148 H148       -0.7477  -16.6463  -46.7845 H         1 UNK         0.0600 
    149 H149        0.7604  -18.1099  -45.6390 H         1 UNK         0.3000 
    150 H150        2.0686  -21.1918  -44.4424 H         1 UNK         0.0600 
    151 H151        3.4803  -18.5354  -45.0595 H         1 UNK         0.0600 
    152 H152        4.0196  -20.1225  -45.5976 H         1 UNK         0.0600 
    153 H153        4.0067  -19.7389  -43.8829 H         1 UNK         0.0600 
    154 H154        1.7825  -18.5822  -43.2977 H         1 UNK         0.3000 
    155 H155       -1.2002  -18.2075  -42.4975 H         1 UNK         0.0600 
    156 H156       -0.3674  -20.2844  -40.4086 H         1 UNK         0.0600 
    157 H157       -1.9054  -20.1977  -41.2521 H         1 UNK         0.0600 
    158 H158       -1.4651  -18.9346  -40.1150 H         1 UNK         0.0600 
    159 H159        0.3830  -16.8765  -41.7934 H         1 UNK         0.3000 
    160 H160        2.9119  -16.8806  -39.4902 H         1 UNK         0.0600 
    161 H161        3.4983  -16.7582  -42.5023 H         1 UNK         0.0600 
    162 H162        4.3708  -17.7386  -41.3298 H         1 UNK         0.0600 
    163 H163        4.4535  -15.9857  -41.2390 H         1 UNK         0.0600 
    164 H164        2.0932  -15.0066  -41.5331 H         1 UNK         0.3000 
    165 H165       -0.8122  -13.8059  -39.8480 H         1 UNK         0.0600 
    166 H166        0.3286  -11.6597  -40.4151 H         1 UNK         0.0600 
    167 H167        1.0406  -12.4128  -38.9970 H         1 UNK         0.0600 
    168 H168        1.8741  -12.4992  -40.5400 H         1 UNK         0.0600 
    169 H169        0.4375  -13.3641  -42.4286 H         1 UNK         0.3000 
    170 H170       -1.4234  -15.8159  -44.1786 H         1 UNK         0.0600 
    171 H171       -2.3748  -13.9514  -45.4375 H         1 UNK         0.0600 
    172 H172       -1.9184  -12.7942  -44.1872 H         1 UNK         0.0600 
    173 H173       -3.1469  -14.0167  -43.8685 H         1 UNK         0.0600 
    174 H174        0.2665  -13.5902  -44.9507 H         1 UNK         0.3000 
    175 H175        3.2938  -15.4908  -44.7487 H         1 UNK         0.0600 
    176 H176        2.5053  -16.1911  -46.9671 H         1 UNK         0.0600 
    177 H177        3.5254  -14.7756  -47.1385 H         1 UNK         0.0600 
    178 H178        1.7744  -14.6095  -47.2582 H         1 UNK         0.0600 
    179 H179        2.8597  -12.8671  -45.7230 H         1 UNK         0.3000 
    180 H180        2.8895  -11.1482  -42.6235 H         1 UNK         0.0600 
    181 H181        4.8947  -10.0629  -43.6214 H         1 UNK         0.0600 
    182 H182        5.1225  -11.4400  -44.6989 H         1 UNK         0.0600 
    183 H183        5.2761  -11.6460  -42.9621 H         1 UNK         0.0600 
    184 H184        1.6693  -10.1107  -44.1073 H         1 UNK         0.3000 
    185 H185        0.6372   -9.4374  -45.8446 H         1 UNK         0.0600 
    186 H186        1.1986   -7.8951  -47.7010 H         1 UNK         0.0600 
    187 H187        2.5018   -7.9058  -46.5222 H         1 UNK         0.0600 
    188 H188        2.6829   -8.7865  -48.0353 H         1 UNK         0.0600 
    189 H189        0.6968  -10.2127  -48.5545 H         1 UNK         0.3000 
    190 H190       -1.6835  -21.4362  -44.9475 H         1 UNK         0.3000 
    191 H191       -3.2221  -23.9005  -45.0532 H         1 UNK         0.0600 
    192 H192       -1.1323  -24.8722  -44.1327 H         1 UNK         0.0600 
    193 H193       -1.5802  -23.4241  -43.2451 H         1 UNK         0.0600 
    194 H194       -0.2736  -23.3624  -44.4255 H         1 UNK         0.0600 
    195 H195       -3.4430  -23.0299  -47.5335 H         1 UNK         0.3000 
    196 H196       -1.3204  -23.8371  -49.3235 H         1 UNK         0.0600 
    197 H197       -4.2184  -23.0032  -49.8708 H         1 UNK         0.0600 
    198 H198       -2.8310  -21.9185  -49.7954 H         1 UNK         0.0600 
    199 H199       -2.9338  -23.1079  -51.0716 H         1 UNK         0.0600 
    200 H200       -3.7830  -25.6542  -47.8088 H         1 UNK         0.3000 
    201 H201       -4.6065  -27.7216  -48.0115 H         1 UNK         0.0600 
    202 H202       -2.0546  -28.3144  -49.6059 H         1 UNK         0.0600 
    203 H203       -3.0514  -29.4840  -48.7541 H         1 UNK         0.0600 
    204 H204       -2.1615  -28.2706  -47.8476 H         1 UNK         0.0600 
    205 H205       -5.8868  -26.0861  -49.6491 H         1 UNK         0.3000 
    206 H206       -7.2705  -25.8515  -51.3582 H         1 UNK         0.0600 
    207 H207       -8.0409  -28.1704  -50.8105 H         1 UNK         0.0600 
    208 H208       -8.2194  -27.7904  -52.5153 H         1 UNK         0.0600 
    209 H209       -6.9032  -28.8257  -51.9876 H         1 UNK         0.0600 
    210 H210       -4.7535  -24.9984  -51.7035 H         1 UNK         0.3000 
    211 H211       -3.4011  -24.0262  -53.1314 H         1 UNK         0.0600 
    212 H212       -4.1400  -23.4593  -55.3896 H         1 UNK         0.0600 
    213 H213       -5.5000  -23.3227  -54.2881 H         1 UNK         0.0600 
    214 H214       -5.3719  -24.7143  -55.3620 H         1 UNK         0.0600 
    215 H215       -2.5995  -26.4606  -52.3583 H         1 UNK         0.3000 
    216 H216       -1.2197  -27.6557  -54.7445 H         1 UNK         0.0600 
    217 H217       -2.1355  -29.0649  -52.1833 H         1 UNK         0.0600 
    218 H218       -1.2737  -29.8041  -53.5276 H         1 UNK         0.0600 
    219 H219       -2.9129  -29.2102  -53.7574 H         1 UNK         0.0600 
    220 H220       -0.9936  -26.7095  -51.2887 H         1 UNK         0.3000 
    221 H221        1.9074  -27.2736  -51.2066 H         1 UNK         0.0600 
    222 H222        0.4623  -27.9443  -49.2890 H         1 UNK         0.0600 
    223 H223       -0.0205  -26.2656  -49.0500 H         1 UNK         0.0600 
    224 H224        1.6506  -26.7450  -48.8058 H         1 UNK         0.0600 
    225 H225       -0.2511  -24.5961  -51.8080 H         1 UNK         0.3000 
    226 H226        1.9886  -22.8128  -52.2513 H         1 UNK         0.0600 
    227 H227        1.0692  -20.9647  -50.8769 H         1 UNK         0.0600 
    228 H228       -0.2623  -21.9659  -50.3234 H         1 UNK         0.0600 
    229 H229        1.3860  -22.3291  -49.8190 H         1 UNK         0.0600 
    230 H230        1.4048  -21.2043  -53.7698 H         1 UNK         0.3000 
    231 H231       -0.9255  -21.8247  -55.4236 H         1 UNK         0.0600 
    232 H232        1.2995  -19.7361  -55.7234 H         1 UNK         0.0600 
    233 H233        0.1185  -20.1655  -56.9547 H         1 UNK         0.0600 
    234 H234        1.3009  -21.3524  -56.4304 H         1 UNK         0.0600 
    235 H235       -0.3578  -19.7512  -52.7916 H         1 UNK         0.3000 
    236 H236       -1.4812  -17.3228  -53.4036 H         1 UNK         0.0600 
    237 H237       -0.2067  -17.7613  -51.3421 H         1 UNK         0.0600 
    238 H238       -1.7812  -17.1169  -50.9058 H         1 UNK         0.0600 
    239 H239       -1.4697  -18.8372  -50.7411 H         1 UNK         0.0600 
    240 H240       -3.2629  -20.2589  -52.5640 H         1 UNK         0.3000 
    241 H241       -5.8463  -18.7874  -52.6080 H         1 UNK         0.0600 
    242 H242       -5.3104  -20.6353  -56.0347 H         1 UNK         0.3800 
    243 H243       -4.0139  -19.9666  -55.0767 H         1 UNK         0.3800 
    244 H244       -5.3759  -21.6528  -51.6981 H         1 UNK         0.0800 
    245 H245       -6.8624  -20.7506  -51.5586 H         1 UNK         0.0800 
    246 H246       -6.8386  -18.3204  -50.5403 H         1 UNK         0.0800 
    247 H247       -7.3144  -19.1475  -49.0788 H         1 UNK         0.0800 
@<TRIPOS>BOND
     1    1    2 1    
     2    1  127 1    
     3    1  128 1    
     4    1  129 1    
     5    2    3 2    
     6    2    4 am   BACKBONE|DICT|INTERRES
     7    4    5 1    
     8    4  130 1    
     9    5    6 1    
    10    5   65 1    
    11    5  131 1    
    12    6    7 1    
    13    6  132 1    
    14    6  133 1    
    15    7    8 1    
    16    8    9 1    
    17    8  134 1    
    18    8  135 1    
    19    9   10 ar   
    20    9   14 ar   
    21   10   11 ar   
    22   10  136 1    
    23   11   12 ar   
    24   11  126 1    
    25   12   13 ar   
    26   12  137 1    
    27   13   14 ar   
    28   13   15 1    
    29   14  138 1    
    30   15   16 1    
    31   15  139 1    
    32   15  140 1    
    33   16   17 1    
    34   17   18 1    
    35   17  141 1    
    36   17  142 1    
    37   18   19 1    
    38   18   67 1    
    39   18  143 1    
    40   19   20 am   BACKBONE|DICT|INTERRES
    41   19  144 1    
    42   20   21 2    
    43   20   22 1    
    44   22   23 1    
    45   22   24 1    
    46   22  145 1    
    47   23  146 1    
    48   23  147 1    
    49   23  148 1    
    50   24   25 am   BACKBONE|DICT|INTERRES
    51   24  149 1    
    52   25   26 2    
    53   25   27 1    
    54   27   28 1    
    55   27   29 1    
    56   27  150 1    
    57   28  151 1    
    58   28  152 1    
    59   28  153 1    
    60   29   30 am   BACKBONE|DICT|INTERRES
    61   29  154 1    
    62   30   31 2    
    63   30   32 1    
    64   32   33 1    
    65   32   34 1    
    66   32  155 1    
    67   33  156 1    
    68   33  157 1    
    69   33  158 1    
    70   34   35 am   BACKBONE|DICT|INTERRES
    71   34  159 1    
    72   35   36 2    
    73   35   37 1    
    74   37   38 1    
    75   37   39 1    
    76   37  160 1    
    77   38  161 1    
    78   38  162 1    
    79   38  163 1    
    80   39   40 am   BACKBONE|DICT|INTERRES
    81   39  164 1    
    82   40   41 2    
    83   40   42 1    
    84   42   43 1    
    85   42   44 1    
    86   42  165 1    
    87   43  166 1    
    88   43  167 1    
    89   43  168 1    
    90   44   45 am   BACKBONE|DICT|INTERRES
    91   44  169 1    
    92   45   46 2    
    93   45   47 1    
    94   47   48 1    
    95   47   49 1    
    96   47  170 1    
    97   48  171 1    
    98   48  172 1    
    99   48  173 1    
   100   49   50 am   BACKBONE|DICT|INTERRES
   101   49  174 1    
   102   50   51 2    
   103   50   52 1    
   104   52   53 1    
   105   52   54 1    
   106   52  175 1    
   107   53  176 1    
   108   53  177 1    
   109   53  178 1    
   110   54   55 am   BACKBONE|DICT|INTERRES
   111   54  179 1    
   112   55   56 2    
   113   55   57 1    
   114   57   58 1    
   115   57   59 1    
   116   57  180 1    
   117   58  181 1    
   118   58  182 1    
   119   58  183 1    
   120   59   60 am   BACKBONE|DICT|INTERRES
   121   59  184 1    
   122   60   61 2    
   123   60   62 1    
   124   62   63 1    
   125   62   64 1    
   126   62  185 1    
   127   63  186 1    
   128   63  187 1    
   129   63  188 1    
   130   64   65 am   BACKBONE|DICT|INTERRES
   131   64  189 1    
   132   65   66 2    
   133   67   68 2    
   134   67   69 am   BACKBONE|DICT|INTERRES
   135   69   70 1    
   136   69  190 1    
   137   70   71 1    
   138   70   72 1    
   139   70  191 1    
   140   71  192 1    
   141   71  193 1    
   142   71  194 1    
   143   72   73 2    
   144   72   74 am   BACKBONE|DICT|INTERRES
   145   74   75 1    
   146   74  195 1    
   147   75   76 1    
   148   75   77 1    
   149   75  196 1    
   150   76  197 1    
   151   76  198 1    
   152   76  199 1    
   153   77   78 2    
   154   77   79 am   BACKBONE|DICT|INTERRES
   155   79   80 1    
   156   79  200 1    
   157   80   81 1    
   158   80   82 1    
   159   80  201 1    
   160   81  202 1    
   161   81  203 1    
   162   81  204 1    
   163   82   83 2    
   164   82   84 am   BACKBONE|DICT|INTERRES
   165   84   85 1    
   166   84  205 1    
   167   85   86 1    
   168   85   87 1    
   169   85  206 1    
   170   86  207 1    
   171   86  208 1    
   172   86  209 1    
   173   87   88 2    
   174   87   89 am   BACKBONE|DICT|INTERRES
   175   89   90 1    
   176   89  210 1    
   177   90   91 1    
   178   90   92 1    
   179   90  211 1    
   180   91  212 1    
   181   91  213 1    
   182   91  214 1    
   183   92   93 2    
   184   92   94 am   BACKBONE|DICT|INTERRES
   185   94   95 1    
   186   94  215 1    
   187   95   96 1    
   188   95   97 1    
   189   95  216 1    
   190   96  217 1    
   191   96  218 1    
   192   96  219 1    
   193   97   98 2    
   194   97   99 am   BACKBONE|DICT|INTERRES
   195   99  100 1    
   196   99  220 1    
   197  100  101 1    
   198  100  102 1    
   199  100  221 1    
   200  101  222 1    
   201  101  223 1    
   202  101  224 1    
   203  102  103 2    
   204  102  104 am   BACKBONE|DICT|INTERRES
   205  104  105 1    
   206  104  225 1    
   207  105  106 1    
   208  105  107 1    
   209  105  226 1    
   210  106  227 1    
   211  106  228 1    
   212  106  229 1    
   213  107  108 2    
   214  107  109 am   BACKBONE|DICT|INTERRES
   215  109  110 1    
   216  109  230 1    
   217  110  111 1    
   218  110  112 1    
   219  110  231 1    
   220  111  232 1    
   221  111  233 1    
   222  111  234 1    
   223  112  113 2    
   224  112  114 am   BACKBONE|DICT|INTERRES
   225  114  115 1    
   226  114  235 1    
   227  115  116 1    
   228  115  117 1    
   229  115  236 1    
   230  116  237 1    
   231  116  238 1    
   232  116  239 1    
   233  117  118 2    
   234  117  119 am   BACKBONE|DICT|INTERRES
   235  119  120 1    
   236  119  240 1    
   237  120  121 1    
   238  120  124 1    
   239  120  241 1    
   240  121  122 am   BACKBONE|DICT|INTERRES
   241  121  123 2    
   242  122  242 1    
   243  122  243 1    
   244  124  125 1    
   245  124  244 1    
   246  124  245 1    
   247  125  126 1    
   248  126  246 1    
   249  126  247 1    
@<TRIPOS>SUBSTRUCTURE
     1 UNK         1 GROUP             0       ****    0 ROOT    
