@<TRIPOS>MOLECULE
3R540
247   249    1
SMALL
USER_CHARGES


@<TRIPOS>ATOM
      1 CA         -3.3525  -17.6189  -42.5572 C.3       0 UNK        -0.1800 
      2 C          -2.3642  -16.5817  -43.0692 C.2       0 UNK         0.5000 
      3 O          -2.3160  -15.4675  -42.5494 O.2       0 UNK        -0.5000 
      4 N          -1.5512  -16.9465  -44.0693 N.am      1 UNK        -0.5000 
      5 CA         -0.5806  -16.0688  -44.7418 C.3       1 UNK         0.1400 
      6 C6         -0.0539  -16.7038  -46.0501 C.3       23 UNK        -0.0398 
      7 S7         -1.3928  -16.8581  -47.2832 S.3       23 UNK        -0.2404 
      8 C8         -0.6465  -16.1140  -48.7757 C.3       23 UNK        -0.0205 
      9 C9         -0.0790  -17.1498  -49.7423 C.ar      23 UNK        -0.0193 
     10 C10        -0.3458  -17.0389  -51.1090 C.ar      23 UNK        -0.1150 
     11 C11         0.1347  -17.9931  -52.0093 C.ar      23 UNK        -0.0193 
     12 C12         0.8884  -19.0694  -51.5322 C.ar      23 UNK        -0.1150 
     13 C13         1.1819  -19.1931  -50.1707 C.ar      23 UNK        -0.0193 
     14 C14         0.7068  -18.2136  -49.2882 C.ar      23 UNK        -0.1150 
     15 C15         2.0093  -20.3979  -49.7064 C.3       23 UNK        -0.0205 
     16 S16         1.8716  -20.8384  -47.9347 S.3       23 UNK        -0.2404 
     17 C17         0.0674  -21.0125  -47.7444 C.3       23 UNK        -0.0398 
     18 CA         -0.3771  -22.3497  -47.1168 C.3       11 UNK         0.1400 
     19 N           0.1900  -22.5693  -45.7830 N.am      11 UNK        -0.5000 
     20 C           0.0851  -23.7181  -45.0962 C.2       10 UNK         0.5000 
     21 O          -0.4771  -24.7200  -45.5339 O.2       10 UNK        -0.5000 
     22 CA          0.6397  -23.7432  -43.6578 C.3       10 UNK         0.1400 
     23 CB          2.1057  -24.2000  -43.6593 C.3       10 UNK        -0.1800 
     24 N           0.5420  -22.4545  -42.9742 N.am      10 UNK        -0.5000 
     25 C          -0.5802  -21.7417  -42.8005 C.2       9 UNK         0.5000 
     26 O          -1.7016  -22.1526  -43.1018 O.2       9 UNK        -0.5000 
     27 CA         -0.4122  -20.2984  -42.2825 C.3       9 UNK         0.1400 
     28 CB         -0.8223  -20.1939  -40.8072 C.3       9 UNK        -0.1800 
     29 N           0.9442  -19.7583  -42.4484 N.am      9 UNK        -0.5000 
     30 C           1.5552  -19.5630  -43.6255 C.2       8 UNK         0.5000 
     31 O           1.0331  -19.8144  -44.7133 O.2       8 UNK        -0.5000 
     32 CA          3.0024  -19.0631  -43.5668 C.3       8 UNK         0.1400 
     33 CB          3.9633  -20.2258  -43.2673 C.3       8 UNK        -0.1800 
     34 N           3.3702  -18.4509  -44.8390 N.am      8 UNK        -0.5000 
     35 C           4.1762  -17.3901  -44.9702 C.2       7 UNK         0.5000 
     36 O           4.6707  -16.7991  -44.0091 O.2       7 UNK        -0.5000 
     37 CA          4.5036  -16.9101  -46.4004 C.3       7 UNK         0.1400 
     38 CB          4.0725  -17.8905  -47.5061 C.3       7 UNK        -0.1800 
     39 N           3.8850  -15.6110  -46.6557 N.am      7 UNK        -0.5000 
     40 C           4.4100  -14.4267  -46.3171 C.2       6 UNK         0.5000 
     41 O           5.5253  -14.2927  -45.8102 O.2       6 UNK        -0.5000 
     42 CA          3.5586  -13.1730  -46.5879 C.3       6 UNK         0.1400 
     43 CB          2.3153  -13.4169  -47.4670 C.3       6 UNK        -0.1800 
     44 N           3.1227  -12.6352  -45.3061 N.am      6 UNK        -0.5000 
     45 C           3.6766  -11.5952  -44.6709 C.2       5 UNK         0.5000 
     46 O           4.6018  -10.9228  -45.1311 O.2       5 UNK        -0.5000 
     47 CA          3.0830  -11.2554  -43.2874 C.3       5 UNK         0.1400 
     48 CB          3.4464   -9.8386  -42.7956 C.3       5 UNK        -0.1800 
     49 N           1.6356  -11.4800  -43.2245 N.am      5 UNK        -0.5000 
     50 C           0.6754  -10.8644  -43.9344 C.2       4 UNK         0.5000 
     51 O           0.8884   -9.9490  -44.7299 O.2       4 UNK        -0.5000 
     52 CA         -0.7722  -11.3675  -43.7450 C.3       4 UNK         0.1400 
     53 CB         -1.2589  -12.0779  -45.0185 C.3       4 UNK        -0.1800 
     54 N          -0.9177  -12.2812  -42.6098 N.am      4 UNK        -0.5000 
     55 C          -0.9175  -11.9119  -41.3213 C.2       3 UNK         0.5000 
     56 O          -0.9066  -10.7400  -40.9442 O.2       3 UNK        -0.5000 
     57 CA         -0.8731  -13.0471  -40.2830 C.3       3 UNK         0.1400 
     58 CB         -2.2876  -13.3971  -39.7965 C.3       3 UNK        -0.1800 
     59 N          -0.2223  -14.2527  -40.8048 N.am      3 UNK        -0.5000 
     60 C           1.1016  -14.3846  -40.9815 C.2       2 UNK         0.5000 
     61 O           1.9141  -13.4951  -40.7314 O.2       2 UNK        -0.5000 
     62 CA          1.5957  -15.7204  -41.5693 C.3       2 UNK         0.1400 
     63 CB          1.6725  -16.7783  -40.4559 C.3       2 UNK        -0.1800 
     64 N           0.7352  -16.2036  -42.6512 N.am      2 UNK        -0.5000 
     65 C           0.5718  -15.5834  -43.8299 C.2       1 UNK         0.5000 
     66 O           1.2529  -14.6209  -44.1881 O.2       1 UNK        -0.5000 
     67 C          -1.9174  -22.3972  -47.1098 C.2       11 UNK         0.5000 
     68 O          -2.5089  -22.8626  -48.0835 O.2       11 UNK        -0.5000 
     69 N          -2.5419  -21.9096  -46.0296 N.am      12 UNK        -0.5000 
     70 CA         -3.9912  -21.9439  -45.8474 C.3       12 UNK         0.1400 
     71 CB         -4.4148  -20.8777  -44.8262 C.3       12 UNK        -0.1800 
     72 C          -4.4611  -23.3451  -45.4270 C.2       12 UNK         0.5000 
     73 O          -5.4757  -23.8184  -45.9375 O.2       12 UNK        -0.5000 
     74 N          -3.6889  -24.0017  -44.5482 N.am      13 UNK        -0.5000 
     75 CA         -3.9301  -25.3703  -44.0835 C.3       13 UNK         0.1400 
     76 CB         -2.9539  -25.7029  -42.9456 C.3       13 UNK        -0.1800 
     77 C          -3.8309  -26.4161  -45.2118 C.2       13 UNK         0.5000 
     78 O          -4.6630  -27.3212  -45.2779 O.2       13 UNK        -0.5000 
     79 N          -2.8378  -26.2526  -46.0968 N.am      14 UNK        -0.5000 
     80 CA         -2.6300  -27.0799  -47.2882 C.3       14 UNK         0.1400 
     81 CB         -1.1691  -26.9297  -47.7432 C.3       14 UNK        -0.1800 
     82 C          -3.5812  -26.7338  -48.4520 C.2       14 UNK         0.5000 
     83 O          -3.6191  -27.4784  -49.4319 O.2       14 UNK        -0.5000 
     84 N          -4.2985  -25.6047  -48.3424 N.am      15 UNK        -0.5000 
     85 CA         -5.1856  -25.0032  -49.3454 C.3       15 UNK         0.1400 
     86 CB         -6.3781  -25.9280  -49.6662 C.3       15 UNK        -0.1800 
     87 C          -4.4448  -24.5162  -50.6107 C.2       15 UNK         0.5000 
     88 O          -5.0658  -24.3406  -51.6589 O.2       15 UNK        -0.5000 
     89 N          -3.1376  -24.2550  -50.4814 N.am      16 UNK        -0.5000 
     90 CA         -2.2836  -23.6778  -51.5170 C.3       16 UNK         0.1400 
     91 CB         -0.8098  -23.8602  -51.1233 C.3       16 UNK        -0.1800 
     92 C          -2.6003  -22.1919  -51.7472 C.2       16 UNK         0.5000 
     93 O          -2.6119  -21.7471  -52.8938 O.2       16 UNK        -0.5000 
     94 N          -2.8955  -21.4650  -50.6604 N.am      17 UNK        -0.5000 
     95 CA         -3.3282  -20.0652  -50.6980 C.3       17 UNK         0.1400 
     96 CB         -3.1906  -19.4566  -49.2940 C.3       17 UNK        -0.1800 
     97 C          -4.7724  -19.8986  -51.2139 C.2       17 UNK         0.5000 
     98 O          -5.1343  -18.8161  -51.6741 O.2       17 UNK        -0.5000 
     99 N          -5.5740  -20.9676  -51.1109 N.am      18 UNK        -0.5000 
    100 CA        -6.9728  -21.0144  -51.5359 C.3       18 UNK         0.1400 
    101 CB        -7.7233  -22.0110  -50.6380 C.3       18 UNK        -0.1800 
    102 C         -7.1412  -21.3917  -53.0210 C.2       18 UNK         0.5000 
    103 O         -8.2375  -21.2232  -53.5576 O.2       18 UNK        -0.5000 
    104 N         -6.0800  -21.9084  -53.6573 N.am      19 UNK        -0.5000 
    105 CA        -6.0586  -22.2915  -55.0687 C.3       19 UNK         0.1400 
    106 CB        -4.7699  -23.0797  -55.3519 C.3       19 UNK        -0.1800 
    107 C         -6.1587  -21.0672  -55.9976 C.2       19 UNK         0.5000 
    108 O         -5.6366  -20.0020  -55.6635 O.2       19 UNK        -0.5000 
    109 N         -6.7944  -21.2503  -57.1629 N.am      20 UNK        -0.5000 
    110 CA        -7.0159  -20.1995  -58.1627 C.3       20 UNK         0.1400 
    111 CB        -7.9901  -20.7133  -59.2339 C.3       20 UNK        -0.1800 
    112 C         -5.7152  -19.6887  -58.8113 C.2       20 UNK         0.5000 
    113 O         -5.5829  -18.4872  -59.0472 O.2       20 UNK        -0.5000 
    114 N         -4.7720  -20.6071  -59.0631 N.am      21 UNK        -0.5000 
    115 CA        -3.4259  -20.2946  -59.5528 C.3       21 UNK         0.1400 
    116 CB        -2.8316  -21.5511  -60.2082 C.3       21 UNK        -0.1800 
    117 C         -2.4956  -19.7808  -58.4350 C.2       21 UNK         0.5000 
    118 O         -1.5409  -19.0604  -58.7266 O.2       21 UNK        -0.5000 
    119 N         -2.8128  -20.1563  -57.1890 N.am      22 UNK        -0.5000 
    120 CA        -2.0853  -19.8999  -55.9405 C.3       22 UNK         0.1400 
    121 C         -0.7529  -20.6956  -55.8423 C.2       22 UNK         0.5000 
    122 N         -0.5961  -21.5183  -54.8163 N.am      22 UNK        -0.7600 
    123 O          0.1521  -20.5547  -56.6602 O.2       22 UNK        -0.5000 
    124 C124       -1.8987  -18.3886  -55.6423 C.3       23 UNK        -0.0398 
    125 S125       -1.9274  -18.0599  -53.8497 S.3       23 UNK        -0.2404 
    126 C126       -0.1553  -17.8574  -53.4964 C.3       23 UNK        -0.0205 
    127 H127       -3.1400  -17.8569  -41.5150 H         1 UNK         0.0600 
    128 H128       -3.3081  -18.5422  -43.1341 H         1 UNK         0.0600 
    129 H129       -4.3685  -17.2292  -42.6189 H         1 UNK         0.0600 
    130 H130       -1.6504  -17.8647  -44.4771 H         1 UNK         0.3000 
    131 H131       -1.1243  -15.1635  -45.0175 H         1 UNK         0.0600 
    132 H132        0.3628  -17.6915  -45.8648 H         1 UNK         0.0800 
    133 H133        0.7590  -16.1143  -46.4700 H         1 UNK         0.0800 
    134 H134       -1.4287  -15.5381  -49.2725 H         1 UNK         0.0800 
    135 H135        0.1301  -15.3960  -48.5142 H         1 UNK         0.0800 
    136 H136       -0.9399  -16.2145  -51.4781 H         1 UNK         0.1150 
    137 H137        1.2520  -19.8147  -52.2259 H         1 UNK         0.1150 
    138 H138        0.9169  -18.2885  -48.2344 H         1 UNK         0.1150 
    139 H139        1.7294  -21.2756  -50.2914 H         1 UNK         0.0800 
    140 H140        3.0583  -20.2002  -49.9293 H         1 UNK         0.0800 
    141 H141       -0.3909  -20.9090  -48.7289 H         1 UNK         0.0800 
    142 H142       -0.2889  -20.1693  -47.1492 H         1 UNK         0.0800 
    143 H143       -0.0293  -23.1610  -47.7596 H         1 UNK         0.0600 
    144 H144        0.6515  -21.7713  -45.3601 H         1 UNK         0.3000 
    145 H145        0.0548  -24.4649  -43.0859 H         1 UNK         0.0600 
    146 H146        2.4900  -24.2993  -42.6440 H         1 UNK         0.0600 
    147 H147        2.2106  -25.1728  -44.1416 H         1 UNK         0.0600 
    148 H148        2.7457  -23.4973  -44.1946 H         1 UNK         0.0600 
    149 H149        1.4129  -22.0337  -42.6900 H         1 UNK         0.3000 
    150 H150       -1.0897  -19.6757  -42.8681 H         1 UNK         0.0600 
    151 H151       -0.1618  -20.7762  -40.1637 H         1 UNK         0.0600 
    152 H152       -1.8376  -20.5637  -40.6568 H         1 UNK         0.0600 
    153 H153       -0.8022  -19.1596  -40.4636 H         1 UNK         0.0600 
    154 H154        1.4535  -19.5760  -41.5958 H         1 UNK         0.3000 
    155 H155        3.0706  -18.3233  -42.7690 H         1 UNK         0.0600 
    156 H156        3.9177  -20.9936  -44.0410 H         1 UNK         0.0600 
    157 H157        3.7272  -20.7016  -42.3148 H         1 UNK         0.0600 
    158 H158        4.9944  -19.8770  -43.2053 H         1 UNK         0.0600 
    159 H159        2.9494  -18.8777  -45.6544 H         1 UNK         0.3000 
    160 H160        5.5896  -16.8113  -46.4602 H         1 UNK         0.0600 
    161 H161        2.9930  -18.0181  -47.5301 H         1 UNK         0.0600 
    162 H162        4.5240  -18.8734  -47.3641 H         1 UNK         0.0600 
    163 H163        4.3833  -17.5348  -48.4887 H         1 UNK         0.0600 
    164 H164        2.9648  -15.6234  -47.0663 H         1 UNK         0.3000 
    165 H165        4.1985  -12.4590  -47.1103 H         1 UNK         0.0600 
    166 H166        1.8304  -12.4717  -47.7123 H         1 UNK         0.0600 
    167 H167        2.5786  -13.8941  -48.4119 H         1 UNK         0.0600 
    168 H168        1.5735  -14.0349  -46.9637 H         1 UNK         0.0600 
    169 H169        2.4045  -13.1712  -44.8266 H         1 UNK         0.3000 
    170 H170        3.5275  -11.9662  -42.5894 H         1 UNK         0.0600 
    171 H171        4.5266   -9.7242  -42.6995 H         1 UNK         0.0600 
    172 H172        3.0970   -9.0671  -43.4821 H         1 UNK         0.0600 
    173 H173        3.0118   -9.6388  -41.8161 H         1 UNK         0.0600 
    174 H174        1.3493  -12.2219  -42.6004 H         1 UNK         0.3000 
    175 H175       -1.4079  -10.4964  -43.5731 H         1 UNK         0.0600 
    176 H176       -1.3035  -11.3816  -45.8568 H         1 UNK         0.0600 
    177 H177       -0.5889  -12.8870  -45.3086 H         1 UNK         0.0600 
    178 H178       -2.2584  -12.4934  -44.8883 H         1 UNK         0.0600 
    179 H179       -0.9629  -13.2682  -42.8193 H         1 UNK         0.3000 
    180 H180       -0.2994  -12.6898  -39.4250 H         1 UNK         0.0600 
    181 H181       -2.9263  -13.7322  -40.6141 H         1 UNK         0.0600 
    182 H182       -2.7678  -12.5295  -39.3423 H         1 UNK         0.0600 
    183 H183       -2.2628  -14.1856  -39.0443 H         1 UNK         0.0600 
    184 H184       -0.8415  -14.9923  -41.1147 H         1 UNK         0.3000 
    185 H185        2.5994  -15.5639  -41.9714 H         1 UNK         0.0600 
    186 H186        2.2728  -16.4181  -39.6191 H         1 UNK         0.0600 
    187 H187        0.6852  -17.0265  -40.0646 H         1 UNK         0.0600 
    188 H188        2.1369  -17.6984  -40.8021 H         1 UNK         0.0600 
    189 H189        0.1143  -16.9679  -42.4330 H         1 UNK         0.3000 
    190 H190       -1.9921  -21.6020  -45.2389 H         1 UNK         0.3000 
    191 H191       -4.4718  -21.7023  -46.7981 H         1 UNK         0.0600 
    192 H192       -4.1085  -19.8828  -45.1494 H         1 UNK         0.0600 
    193 H193       -5.4992  -20.8615  -44.7107 H         1 UNK         0.0600 
    194 H194       -3.9853  -21.0597  -43.8412 H         1 UNK         0.0600 
    195 H195       -2.8897  -23.5179  -44.1541 H         1 UNK         0.3000 
    196 H196       -4.9450  -25.4084  -43.6821 H         1 UNK         0.0600 
    197 H197       -3.1751  -26.6816  -42.5180 H         1 UNK         0.0600 
    198 H198       -3.0197  -24.9719  -42.1394 H         1 UNK         0.0600 
    199 H199       -1.9224  -25.7261  -43.2957 H         1 UNK         0.0600 
    200 H200       -2.1433  -25.5288  -45.9279 H         1 UNK         0.3000 
    201 H201       -2.8002  -28.1255  -47.0236 H         1 UNK         0.0600 
    202 H202       -0.9554  -27.5692  -48.6005 H         1 UNK         0.0600 
    203 H203       -0.4776  -27.2116  -46.9490 H         1 UNK         0.0600 
    204 H204       -0.9434  -25.9030  -48.0352 H         1 UNK         0.0600 
    205 H205       -4.2009  -25.0760  -47.4861 H         1 UNK         0.3000 
    206 H206       -5.5896  -24.1044  -48.8774 H         1 UNK         0.0600 
    207 H207       -6.8825  -26.2494  -48.7550 H         1 UNK         0.0600 
    208 H208       -7.1186  -25.4162  -50.2812 H         1 UNK         0.0600 
    209 H209       -6.0671  -26.8193  -50.2112 H         1 UNK         0.0600 
    210 H210       -2.7381  -24.3212  -49.5535 H         1 UNK         0.3000 
    211 H211       -2.4620  -24.2126  -52.4524 H         1 UNK         0.0600 
    212 H212       -0.5705  -23.3385  -50.1964 H         1 UNK         0.0600 
    213 H213       -0.1486  -23.4701  -51.8982 H         1 UNK         0.0600 
    214 H214       -0.5659  -24.9140  -50.9873 H         1 UNK         0.0600 
    215 H215       -2.8574  -21.9164  -49.7516 H         1 UNK         0.3000 
    216 H216       -2.6682  -19.5155  -51.3714 H         1 UNK         0.0600 
    217 H217       -3.5373  -18.4225  -49.2803 H         1 UNK         0.0600 
    218 H218       -2.1516  -19.4426  -48.9708 H         1 UNK         0.0600 
    219 H219       -3.7699  -20.0081  -48.5531 H         1 UNK         0.0600 
    220 H220       -5.1851  -21.8216  -50.7419 H         1 UNK         0.3000 
    221 H221       -7.4235  -20.0296  -51.3954 H         1 UNK         0.0600 
    222 H222       -7.3495  -23.0266  -50.7652 H         1 UNK         0.0600 
    223 H223       -7.6287  -21.7458  -49.5848 H         1 UNK         0.0600 
    224 H224       -8.7880  -22.0239  -50.8745 H         1 UNK         0.0600 
    225 H225       -5.2098  -21.9952  -53.1529 H         1 UNK         0.3000 
    226 H226       -6.9137  -22.9450  -55.2539 H         1 UNK         0.0600 
    227 H227       -4.7426  -23.4313  -56.3838 H         1 UNK         0.0600 
    228 H228       -3.8799  -22.4723  -55.1884 H         1 UNK         0.0600 
    229 H229       -4.6959  -23.9565  -54.7079 H         1 UNK         0.0600 
    230 H230       -7.1908  -22.1561  -57.3692 H         1 UNK         0.3000 
    231 H231       -7.4850  -19.3523  -57.6577 H         1 UNK         0.0600 
    232 H232       -7.5935  -21.5845  -59.7567 H         1 UNK         0.0600 
    233 H233       -8.1890  -19.9444  -59.9817 H         1 UNK         0.0600 
    234 H234       -8.9482  -20.9921  -58.7947 H         1 UNK         0.0600 
    235 H235       -4.9744  -21.5758  -58.8639 H         1 UNK         0.3000 
    236 H236       -3.4964  -19.5144  -60.3140 H         1 UNK         0.0600 
    237 H237       -3.4503  -21.8936  -61.0378 H         1 UNK         0.0600 
    238 H238       -1.8369  -21.3489  -60.6077 H         1 UNK         0.0600 
    239 H239       -2.7382  -22.3719  -59.4960 H         1 UNK         0.0600 
    240 H240       -3.6492  -20.7081  -57.0801 H         1 UNK         0.3000 
    241 H241       -2.7602  -20.2981  -55.1815 H         1 UNK         0.0600 
    242 H242        0.2607  -22.0395  -54.7267 H         1 UNK         0.3800 
    243 H243       -1.3283  -21.6151  -54.1135 H         1 UNK         0.3800 
    244 H244       -0.9925  -17.9894  -56.1015 H         1 UNK         0.0800 
    245 H245       -2.7247  -17.8203  -56.0722 H         1 UNK         0.0800 
    246 H246        0.4167  -18.5953  -54.0605 H         1 UNK         0.0800 
    247 H247        0.1735  -16.8775  -53.8451 H         1 UNK         0.0800 
@<TRIPOS>BOND
     1    1    2 1    
     2    1  127 1    
     3    1  128 1    
     4    1  129 1    
     5    2    3 2    
     6    2    4 am   BACKBONE|DICT|INTERRES
     7    4    5 1    
     8    4  130 1    
     9    5    6 1    
    10    5   65 1    
    11    5  131 1    
    12    6    7 1    
    13    6  132 1    
    14    6  133 1    
    15    7    8 1    
    16    8    9 1    
    17    8  134 1    
    18    8  135 1    
    19    9   10 ar   
    20    9   14 ar   
    21   10   11 ar   
    22   10  136 1    
    23   11   12 ar   
    24   11  126 1    
    25   12   13 ar   
    26   12  137 1    
    27   13   14 ar   
    28   13   15 1    
    29   14  138 1    
    30   15   16 1    
    31   15  139 1    
    32   15  140 1    
    33   16   17 1    
    34   17   18 1    
    35   17  141 1    
    36   17  142 1    
    37   18   19 1    
    38   18   67 1    
    39   18  143 1    
    40   19   20 am   BACKBONE|DICT|INTERRES
    41   19  144 1    
    42   20   21 2    
    43   20   22 1    
    44   22   23 1    
    45   22   24 1    
    46   22  145 1    
    47   23  146 1    
    48   23  147 1    
    49   23  148 1    
    50   24   25 am   BACKBONE|DICT|INTERRES
    51   24  149 1    
    52   25   26 2    
    53   25   27 1    
    54   27   28 1    
    55   27   29 1    
    56   27  150 1    
    57   28  151 1    
    58   28  152 1    
    59   28  153 1    
    60   29   30 am   BACKBONE|DICT|INTERRES
    61   29  154 1    
    62   30   31 2    
    63   30   32 1    
    64   32   33 1    
    65   32   34 1    
    66   32  155 1    
    67   33  156 1    
    68   33  157 1    
    69   33  158 1    
    70   34   35 am   BACKBONE|DICT|INTERRES
    71   34  159 1    
    72   35   36 2    
    73   35   37 1    
    74   37   38 1    
    75   37   39 1    
    76   37  160 1    
    77   38  161 1    
    78   38  162 1    
    79   38  163 1    
    80   39   40 am   BACKBONE|DICT|INTERRES
    81   39  164 1    
    82   40   41 2    
    83   40   42 1    
    84   42   43 1    
    85   42   44 1    
    86   42  165 1    
    87   43  166 1    
    88   43  167 1    
    89   43  168 1    
    90   44   45 am   BACKBONE|DICT|INTERRES
    91   44  169 1    
    92   45   46 2    
    93   45   47 1    
    94   47   48 1    
    95   47   49 1    
    96   47  170 1    
    97   48  171 1    
    98   48  172 1    
    99   48  173 1    
   100   49   50 am   BACKBONE|DICT|INTERRES
   101   49  174 1    
   102   50   51 2    
   103   50   52 1    
   104   52   53 1    
   105   52   54 1    
   106   52  175 1    
   107   53  176 1    
   108   53  177 1    
   109   53  178 1    
   110   54   55 am   BACKBONE|DICT|INTERRES
   111   54  179 1    
   112   55   56 2    
   113   55   57 1    
   114   57   58 1    
   115   57   59 1    
   116   57  180 1    
   117   58  181 1    
   118   58  182 1    
   119   58  183 1    
   120   59   60 am   BACKBONE|DICT|INTERRES
   121   59  184 1    
   122   60   61 2    
   123   60   62 1    
   124   62   63 1    
   125   62   64 1    
   126   62  185 1    
   127   63  186 1    
   128   63  187 1    
   129   63  188 1    
   130   64   65 am   BACKBONE|DICT|INTERRES
   131   64  189 1    
   132   65   66 2    
   133   67   68 2    
   134   67   69 am   BACKBONE|DICT|INTERRES
   135   69   70 1    
   136   69  190 1    
   137   70   71 1    
   138   70   72 1    
   139   70  191 1    
   140   71  192 1    
   141   71  193 1    
   142   71  194 1    
   143   72   73 2    
   144   72   74 am   BACKBONE|DICT|INTERRES
   145   74   75 1    
   146   74  195 1    
   147   75   76 1    
   148   75   77 1    
   149   75  196 1    
   150   76  197 1    
   151   76  198 1    
   152   76  199 1    
   153   77   78 2    
   154   77   79 am   BACKBONE|DICT|INTERRES
   155   79   80 1    
   156   79  200 1    
   157   80   81 1    
   158   80   82 1    
   159   80  201 1    
   160   81  202 1    
   161   81  203 1    
   162   81  204 1    
   163   82   83 2    
   164   82   84 am   BACKBONE|DICT|INTERRES
   165   84   85 1    
   166   84  205 1    
   167   85   86 1    
   168   85   87 1    
   169   85  206 1    
   170   86  207 1    
   171   86  208 1    
   172   86  209 1    
   173   87   88 2    
   174   87   89 am   BACKBONE|DICT|INTERRES
   175   89   90 1    
   176   89  210 1    
   177   90   91 1    
   178   90   92 1    
   179   90  211 1    
   180   91  212 1    
   181   91  213 1    
   182   91  214 1    
   183   92   93 2    
   184   92   94 am   BACKBONE|DICT|INTERRES
   185   94   95 1    
   186   94  215 1    
   187   95   96 1    
   188   95   97 1    
   189   95  216 1    
   190   96  217 1    
   191   96  218 1    
   192   96  219 1    
   193   97   98 2    
   194   97   99 am   BACKBONE|DICT|INTERRES
   195   99  100 1    
   196   99  220 1    
   197  100  101 1    
   198  100  102 1    
   199  100  221 1    
   200  101  222 1    
   201  101  223 1    
   202  101  224 1    
   203  102  103 2    
   204  102  104 am   BACKBONE|DICT|INTERRES
   205  104  105 1    
   206  104  225 1    
   207  105  106 1    
   208  105  107 1    
   209  105  226 1    
   210  106  227 1    
   211  106  228 1    
   212  106  229 1    
   213  107  108 2    
   214  107  109 am   BACKBONE|DICT|INTERRES
   215  109  110 1    
   216  109  230 1    
   217  110  111 1    
   218  110  112 1    
   219  110  231 1    
   220  111  232 1    
   221  111  233 1    
   222  111  234 1    
   223  112  113 2    
   224  112  114 am   BACKBONE|DICT|INTERRES
   225  114  115 1    
   226  114  235 1    
   227  115  116 1    
   228  115  117 1    
   229  115  236 1    
   230  116  237 1    
   231  116  238 1    
   232  116  239 1    
   233  117  118 2    
   234  117  119 am   BACKBONE|DICT|INTERRES
   235  119  120 1    
   236  119  240 1    
   237  120  121 1    
   238  120  124 1    
   239  120  241 1    
   240  121  122 am   BACKBONE|DICT|INTERRES
   241  121  123 2    
   242  122  242 1    
   243  122  243 1    
   244  124  125 1    
   245  124  244 1    
   246  124  245 1    
   247  125  126 1    
   248  126  246 1    
   249  126  247 1    
@<TRIPOS>SUBSTRUCTURE
     1 UNK         1 GROUP             0       ****    0 ROOT    
