@<TRIPOS>MOLECULE
3R540
247   249    1
SMALL
USER_CHARGES


@<TRIPOS>ATOM
      1 CA         -2.8244  -12.3156  -49.1272 C.3       0 UNK        -0.1800 
      2 C          -2.0085  -13.4765  -48.5788 C.2       0 UNK         0.5000 
      3 O          -2.5241  -14.2578  -47.7820 O.2       0 UNK        -0.5000 
      4 N          -0.7319  -13.5748  -48.9794 N.am      1 UNK        -0.5000 
      5 CA          0.2338  -14.6225  -48.5977 C.3       1 UNK         0.1400 
      6 C6         -0.1218  -16.0181  -49.1743 C.3       23 UNK        -0.0398 
      7 S7         -0.0689  -16.0657  -50.9970 S.3       23 UNK        -0.2404 
      8 C8         -0.5343  -17.8032  -51.3116 C.3       23 UNK        -0.0205 
      9 C9          0.6309  -18.7760  -51.4808 C.ar      23 UNK        -0.0193 
     10 C10         0.4888  -19.8457  -52.3686 C.ar      23 UNK        -0.1150 
     11 C11         1.5054  -20.7895  -52.5300 C.ar      23 UNK        -0.0193 
     12 C12         2.6732  -20.6757  -51.7701 C.ar      23 UNK        -0.1150 
     13 C13         2.8332  -19.6129  -50.8757 C.ar      23 UNK        -0.0193 
     14 C14         1.8183  -18.6604  -50.7503 C.ar      23 UNK        -0.1150 
     15 C15         4.1044  -19.4843  -50.0485 C.3       23 UNK        -0.0205 
     16 S16         4.0172  -20.4423  -48.5004 S.3       23 UNK        -0.2404 
     17 C17         2.7276  -19.5493  -47.5643 C.3       23 UNK        -0.0398 
     18 CA          1.3734  -20.2960  -47.5915 C.3       11 UNK         0.1400 
     19 N           1.4435  -21.6016  -46.9310 N.am      11 UNK        -0.5000 
     20 C           0.5102  -22.5545  -47.0556 C.2       10 UNK         0.5000 
     21 O          -0.4982  -22.4349  -47.7484 O.2       10 UNK        -0.5000 
     22 CA          0.7077  -23.8440  -46.2393 C.3       10 UNK         0.1400 
     23 CB          1.5306  -24.8635  -47.0406 C.3       10 UNK        -0.1800 
     24 N           1.3406  -23.6321  -44.9371 N.am      10 UNK        -0.5000 
     25 C           0.8823  -22.8320  -43.9644 C.2       9 UNK         0.5000 
     26 O          -0.1355  -22.1459  -44.0658 O.2       9 UNK        -0.5000 
     27 CA          1.6999  -22.7713  -42.6607 C.3       9 UNK         0.1400 
     28 CB          2.7658  -23.8823  -42.5310 C.3       9 UNK        -0.1800 
     29 N           2.3202  -21.4632  -42.4447 N.am      9 UNK        -0.5000 
     30 C           3.1559  -20.7996  -43.2607 C.2       8 UNK         0.5000 
     31 O           3.4059  -21.1527  -44.4145 O.2       8 UNK        -0.5000 
     32 CA          3.8485  -19.5370  -42.6973 C.3       8 UNK         0.1400 
     33 CB          3.4556  -18.2808  -43.4900 C.3       8 UNK        -0.1800 
     34 N           3.5824  -19.3138  -41.2723 N.am      8 UNK        -0.5000 
     35 C           4.1573  -20.0032  -40.2730 C.2       7 UNK         0.5000 
     36 O           5.0515  -20.8311  -40.4500 O.2       7 UNK        -0.5000 
     37 CA          3.6327  -19.7657  -38.8391 C.3       7 UNK         0.1400 
     38 CB          4.5719  -18.8195  -38.0758 C.3       7 UNK        -0.1800 
     39 N           2.2719  -19.2272  -38.7784 N.am      7 UNK        -0.5000 
     40 C           1.1696  -19.8143  -39.2662 C.2       6 UNK         0.5000 
     41 O           1.1610  -20.9487  -39.7442 O.2       6 UNK        -0.5000 
     42 CA         -0.1278  -18.9768  -39.2808 C.3       6 UNK         0.1400 
     43 CB         -1.0552  -19.4046  -38.1339 C.3       6 UNK        -0.1800 
     44 N           0.0657  -17.5215  -39.2177 N.am      6 UNK        -0.5000 
     45 C           0.8047  -16.7876  -40.0612 C.2       5 UNK         0.5000 
     46 O           1.4652  -17.2681  -40.9833 O.2       5 UNK        -0.5000 
     47 CA          0.7960  -15.2715  -39.8172 C.3       5 UNK         0.1400 
     48 CB          2.0023  -14.5662  -40.4630 C.3       5 UNK        -0.1800 
     49 N          -0.4359  -14.7108  -40.3618 N.am      5 UNK        -0.5000 
     50 C          -1.5566  -14.4862  -39.6628 C.2       4 UNK         0.5000 
     51 O          -1.6624  -14.7311  -38.4602 O.2       4 UNK        -0.5000 
     52 CA         -2.7614  -13.8813  -40.4146 C.3       4 UNK         0.1400 
     53 CB         -2.8421  -12.3680  -40.1614 C.3       4 UNK        -0.1800 
     54 N          -2.7281  -14.1147  -41.8591 N.am      4 UNK        -0.5000 
     55 C          -2.9868  -15.2910  -42.4456 C.2       3 UNK         0.5000 
     56 O          -3.3533  -16.2919  -41.8293 O.2       3 UNK        -0.5000 
     57 CA         -2.7831  -15.3743  -43.9734 C.3       3 UNK         0.1400 
     58 CB         -4.1162  -15.1656  -44.7073 C.3       3 UNK        -0.1800 
     59 N          -1.7771  -14.4605  -44.5327 N.am      3 UNK        -0.5000 
     60 C          -0.4986  -14.3631  -44.1364 C.2       2 UNK         0.5000 
     61 O          -0.0325  -15.0013  -43.1945 O.2       2 UNK        -0.5000 
     62 CA          0.3956  -13.3819  -44.9239 C.3       2 UNK         0.1400 
     63 CB          1.8748  -13.4269  -44.4862 C.3       2 UNK        -0.1800 
     64 N           0.2787  -13.5600  -46.3739 N.am      2 UNK        -0.5000 
     65 C           0.5182  -14.6802  -47.0749 C.2       1 UNK         0.5000 
     66 O           0.9542  -15.7171  -46.5727 O.2       1 UNK        -0.5000 
     67 C           0.2447  -19.4327  -46.9953 C.2       11 UNK         0.5000 
     68 O          -0.5359  -18.8488  -47.7479 O.2       11 UNK        -0.5000 
     69 N           0.1361  -19.4181  -45.6583 N.am      12 UNK        -0.5000 
     70 CA         -0.9352  -18.7255  -44.9419 C.3       12 UNK         0.1400 
     71 CB         -0.6217  -18.6602  -43.4387 C.3       12 UNK        -0.1800 
     72 C          -2.3122  -19.3646  -45.1890 C.2       12 UNK         0.5000 
     73 O          -3.2925  -18.6413  -45.3580 O.2       12 UNK        -0.5000 
     74 N          -2.3526  -20.7032  -45.2411 N.am      13 UNK        -0.5000 
     75 CA         -3.5457  -21.4871  -45.5596 C.3       13 UNK         0.1400 
     76 CB         -3.2647  -22.9732  -45.2935 C.3       13 UNK        -0.1800 
     77 C          -4.0406  -21.2770  -47.0039 C.2       13 UNK         0.5000 
     78 O          -5.2514  -21.2721  -47.2284 O.2       13 UNK        -0.5000 
     79 N          -3.1064  -21.0989  -47.9504 N.am      14 UNK        -0.5000 
     80 CA         -3.3942  -20.8256  -49.3586 C.3       14 UNK         0.1400 
     81 CB         -2.1206  -21.0026  -50.1989 C.3       14 UNK        -0.1800 
     82 C          -4.0347  -19.4471  -49.5972 C.2       14 UNK         0.5000 
     83 O          -4.8506  -19.3244  -50.5085 O.2       14 UNK        -0.5000 
     84 N          -3.6770  -18.4525  -48.7695 N.am      15 UNK        -0.5000 
     85 CA         -4.3422  -17.1508  -48.6050 C.3       15 UNK         0.1400 
     86 CB         -5.6327  -17.3396  -47.7820 C.3       15 UNK        -0.1800 
     87 C          -4.5957  -16.3704  -49.9182 C.2       15 UNK         0.5000 
     88 O          -5.6661  -15.7867  -50.0957 O.2       15 UNK        -0.5000 
     89 N          -3.6112  -16.4085  -50.8269 N.am      16 UNK        -0.5000 
     90 CA         -3.6078  -15.8247  -52.1761 C.3       16 UNK         0.1400 
     91 CB         -3.7586  -14.2906  -52.1356 C.3       16 UNK        -0.1800 
     92 C          -4.5634  -16.4955  -53.1884 C.2       16 UNK         0.5000 
     93 O          -4.7136  -15.9819  -54.2976 O.2       16 UNK        -0.5000 
     94 N          -5.1327  -17.6598  -52.8476 N.am      17 UNK        -0.5000 
     95 CA         -5.9300  -18.5052  -53.7404 C.3       17 UNK         0.1400 
     96 CB         -7.1662  -19.0210  -52.9819 C.3       17 UNK        -0.1800 
     97 C          -5.0639  -19.6507  -54.3021 C.2       17 UNK         0.5000 
     98 O          -5.5108  -20.7980  -54.3611 O.2       17 UNK        -0.5000 
     99 N          -3.8259  -19.3207  -54.7016 N.am      18 UNK        -0.5000 
    100 CA        -2.7732  -20.2423  -55.1427 C.3       18 UNK         0.1400 
    101 CB        -1.5332  -19.4273  -55.5394 C.3       18 UNK        -0.1800 
    102 C         -3.1805  -21.1743  -56.2982 C.2       18 UNK         0.5000 
    103 O         -2.7580  -22.3299  -56.3209 O.2       18 UNK        -0.5000 
    104 N         -4.0283  -20.6755  -57.2073 N.am      19 UNK        -0.5000 
    105 CA        -4.5774  -21.4247  -58.3396 C.3       19 UNK         0.1400 
    106 CB        -5.3653  -20.4603  -59.2393 C.3       19 UNK        -0.1800 
    107 C         -5.4609  -22.6207  -57.9285 C.2       19 UNK         0.5000 
    108 O         -5.5548  -23.5849  -58.6889 O.2       19 UNK        -0.5000 
    109 N         -6.0791  -22.5416  -56.7429 N.am      20 UNK        -0.5000 
    110 CA        -6.8862  -23.6071  -56.1546 C.3       20 UNK         0.1400 
    111 CB        -8.1633  -22.9957  -55.5555 C.3       20 UNK        -0.1800 
    112 C         -6.0979  -24.3682  -55.0765 C.2       20 UNK         0.5000 
    113 O         -6.1683  -25.5968  -55.0291 O.2       20 UNK        -0.5000 
    114 N         -5.3841  -23.6280  -54.2175 N.am      21 UNK        -0.5000 
    115 CA        -4.6917  -24.1597  -53.0457 C.3       21 UNK         0.1400 
    116 CB        -4.3778  -23.0059  -52.0847 C.3       21 UNK        -0.1800 
    117 C         -3.4089  -24.9383  -53.3808 C.2       21 UNK         0.5000 
    118 O         -3.1736  -25.9915  -52.7862 O.2       21 UNK        -0.5000 
    119 N         -2.6031  -24.4034  -54.3039 N.am      22 UNK        -0.5000 
    120 CA        -1.3137  -24.9749  -54.7216 C.3       22 UNK         0.1400 
    121 C         -1.4124  -25.6392  -56.1197 C.2       22 UNK         0.5000 
    122 N         -2.1222  -25.0426  -57.0699 N.am      22 UNK        -0.7600 
    123 O         -0.8467  -26.7059  -56.3430 O.2       22 UNK        -0.5000 
    124 C124       -0.1756  -23.9215  -54.7132 C.3       23 UNK        -0.0398 
    125 S125        0.0320  -23.0753  -53.1088 S.3       23 UNK        -0.2404 
    126 C126        1.3468  -21.8999  -53.5576 C.3       23 UNK        -0.0205 
    127 H127       -2.3174  -11.8194  -49.9550 H         1 UNK         0.0600 
    128 H128       -3.0022  -11.5803  -48.3427 H         1 UNK         0.0600 
    129 H129       -3.7908  -12.6719  -49.4839 H         1 UNK         0.0600 
    130 H130       -0.3749  -12.8893  -49.6305 H         1 UNK         0.3000 
    131 H131        1.1842  -14.3228  -49.0419 H         1 UNK         0.0600 
    132 H132       -1.1070  -16.3349  -48.8299 H         1 UNK         0.0800 
    133 H133        0.5770  -16.7689  -48.8114 H         1 UNK         0.0800 
    134 H134       -1.1448  -17.8215  -52.2148 H         1 UNK         0.0800 
    135 H135       -1.1697  -18.1628  -50.5030 H         1 UNK         0.0800 
    136 H136       -0.4227  -19.9562  -52.9362 H         1 UNK         0.1150 
    137 H137        3.4622  -21.4064  -51.8800 H         1 UNK         0.1150 
    138 H138        1.9597  -17.8368  -50.0707 H         1 UNK         0.1150 
    139 H139        4.9561  -19.8379  -50.6315 H         1 UNK         0.0800 
    140 H140        4.3097  -18.4372  -49.8204 H         1 UNK         0.0800 
    141 H141        2.6288  -18.5368  -47.9574 H         1 UNK         0.0800 
    142 H142        3.0753  -19.4339  -46.5377 H         1 UNK         0.0800 
    143 H143        1.1106  -20.4737  -48.6366 H         1 UNK         0.0600 
    144 H144        2.2314  -21.7587  -46.3147 H         1 UNK         0.3000 
    145 H145       -0.2790  -24.2726  -46.0564 H         1 UNK         0.0600 
    146 H146        1.5992  -25.8166  -46.5158 H         1 UNK         0.0600 
    147 H147        1.0708  -25.0602  -48.0102 H         1 UNK         0.0600 
    148 H148        2.5445  -24.5060  -47.2249 H         1 UNK         0.0600 
    149 H149        2.2005  -24.1337  -44.7704 H         1 UNK         0.3000 
    150 H150        0.9827  -22.9084  -41.8502 H         1 UNK         0.0600 
    151 H151        2.3205  -24.8728  -42.6337 H         1 UNK         0.0600 
    152 H152        3.2404  -23.8475  -41.5501 H         1 UNK         0.0600 
    153 H153        3.5550  -23.7880  -43.2778 H         1 UNK         0.0600 
    154 H154        2.1338  -21.0637  -41.5316 H         1 UNK         0.3000 
    155 H155        4.9231  -19.6824  -42.8249 H         1 UNK         0.0600 
    156 H156        2.3811  -18.1124  -43.4737 H         1 UNK         0.0600 
    157 H157        3.7593  -18.3644  -44.5332 H         1 UNK         0.0600 
    158 H158        3.9371  -17.3907  -43.0847 H         1 UNK         0.0600 
    159 H159        2.8555  -18.6362  -41.0554 H         1 UNK         0.3000 
    160 H160        3.6286  -20.7318  -38.3304 H         1 UNK         0.0600 
    161 H161        4.5946  -17.8266  -38.5269 H         1 UNK         0.0600 
    162 H162        5.5936  -19.2016  -38.0714 H         1 UNK         0.0600 
    163 H163        4.2635  -18.7102  -37.0358 H         1 UNK         0.0600 
    164 H164        2.1784  -18.2913  -38.4132 H         1 UNK         0.3000 
    165 H165       -0.6318  -19.1919  -40.2252 H         1 UNK         0.0600 
    166 H166       -2.0198  -18.9003  -38.1969 H         1 UNK         0.0600 
    167 H167       -1.2493  -20.4776  -38.1658 H         1 UNK         0.0600 
    168 H168       -0.6196  -19.1781  -37.1599 H         1 UNK         0.0600 
    169 H169       -0.4583  -17.0340  -38.5036 H         1 UNK         0.3000 
    170 H170        0.8516  -15.0968  -38.7407 H         1 UNK         0.0600 
    171 H171        2.9385  -14.9440  -40.0503 H         1 UNK         0.0600 
    172 H172        2.0370  -14.7214  -41.5414 H         1 UNK         0.0600 
    173 H173        1.9750  -13.4920  -40.2807 H         1 UNK         0.0600 
    174 H174       -0.4484  -14.6024  -41.3724 H         1 UNK         0.3000 
    175 H175       -3.6653  -14.3420  -40.0102 H         1 UNK         0.0600 
    176 H176       -1.9679  -11.8470  -40.5540 H         1 UNK         0.0600 
    177 H177       -3.7285  -11.9365  -40.6268 H         1 UNK         0.0600 
    178 H178       -2.9003  -12.1527  -39.0936 H         1 UNK         0.0600 
    179 H179       -2.4361  -13.3428  -42.4399 H         1 UNK         0.3000 
    180 H180       -2.4435  -16.3861  -44.1822 H         1 UNK         0.0600 
    181 H181       -4.0140  -15.3671  -45.7733 H         1 UNK         0.0600 
    182 H182       -4.4859  -14.1465  -44.5896 H         1 UNK         0.0600 
    183 H183       -4.8828  -15.8426  -44.3274 H         1 UNK         0.0600 
    184 H184       -2.0629  -13.9411  -45.3518 H         1 UNK         0.3000 
    185 H185        0.0194  -12.3819  -44.7041 H         1 UNK         0.0600 
    186 H186        2.3041  -14.4225  -44.6041 H         1 UNK         0.0600 
    187 H187        2.4798  -12.7297  -45.0655 H         1 UNK         0.0600 
    188 H188        1.9778  -13.1492  -43.4368 H         1 UNK         0.0600 
    189 H189       -0.0776  -12.7657  -46.8860 H         1 UNK         0.3000 
    190 H190        0.7602  -19.9900  -45.1084 H         1 UNK         0.3000 
    191 H191       -0.9753  -17.7032  -45.3237 H         1 UNK         0.0600 
    192 H192       -1.4858  -18.3195  -42.8668 H         1 UNK         0.0600 
    193 H193        0.1772  -17.9481  -43.2428 H         1 UNK         0.0600 
    194 H194       -0.3246  -19.6287  -43.0360 H         1 UNK         0.0600 
    195 H195       -1.5067  -21.2230  -45.0226 H         1 UNK         0.3000 
    196 H196       -4.3428  -21.1660  -44.8859 H         1 UNK         0.0600 
    197 H197       -2.4880  -23.3580  -45.9538 H         1 UNK         0.0600 
    198 H198       -2.9432  -23.1378  -44.2649 H         1 UNK         0.0600 
    199 H199       -4.1602  -23.5742  -45.4561 H         1 UNK         0.0600 
    200 H200       -2.1287  -21.2027  -47.7009 H         1 UNK         0.3000 
    201 H201       -4.1226  -21.5664  -49.6893 H         1 UNK         0.0600 
    202 H202       -1.2923  -20.4142  -49.8067 H         1 UNK         0.0600 
    203 H203       -2.2817  -20.7015  -51.2347 H         1 UNK         0.0600 
    204 H204       -1.8020  -22.0450  -50.2126 H         1 UNK         0.0600 
    205 H205       -2.9621  -18.6620  -48.0836 H         1 UNK         0.3000 
    206 H206       -3.6619  -16.5436  -48.0096 H         1 UNK         0.0600 
    207 H207       -5.4309  -17.8551  -46.8433 H         1 UNK         0.0600 
    208 H208       -6.0836  -16.3791  -47.5300 H         1 UNK         0.0600 
    209 H209       -6.3751  -17.9220  -48.3290 H         1 UNK         0.0600 
    210 H210       -2.7802  -16.9226  -50.5779 H         1 UNK         0.3000 
    211 H211       -2.6138  -16.0189  -52.5769 H         1 UNK         0.0600 
    212 H212       -3.6650  -13.8576  -53.1320 H         1 UNK         0.0600 
    213 H213       -2.9762  -13.8439  -51.5246 H         1 UNK         0.0600 
    214 H214       -4.7241  -13.9798  -51.7372 H         1 UNK         0.0600 
    215 H215       -4.9510  -18.0555  -51.9280 H         1 UNK         0.3000 
    216 H216       -6.2873  -17.9265  -54.5941 H         1 UNK         0.0600 
    217 H217       -6.8908  -19.6853  -52.1624 H         1 UNK         0.0600 
    218 H218       -7.8272  -19.5791  -53.6461 H         1 UNK         0.0600 
    219 H219       -7.7448  -18.1968  -52.5648 H         1 UNK         0.0600 
    220 H220       -3.5683  -18.3464  -54.6492 H         1 UNK         0.3000 
    221 H221       -2.5135  -20.8713  -54.2889 H         1 UNK         0.0600 
    222 H222       -1.2169  -18.7601  -54.7382 H         1 UNK         0.0600 
    223 H223       -1.7215  -18.8144  -56.4219 H         1 UNK         0.0600 
    224 H224       -0.6928  -20.0836  -55.7692 H         1 UNK         0.0600 
    225 H225       -4.3334  -19.7190  -57.1037 H         1 UNK         0.3000 
    226 H226       -3.7381  -21.8216  -58.9145 H         1 UNK         0.0600 
    227 H227       -6.2053  -20.0109  -58.7082 H         1 UNK         0.0600 
    228 H228       -4.7295  -19.6549  -59.6074 H         1 UNK         0.0600 
    229 H229       -5.7673  -20.9789  -60.1108 H         1 UNK         0.0600 
    230 H230       -5.9118  -21.7308  -56.1586 H         1 UNK         0.3000 
    231 H231       -7.1874  -24.3259  -56.9195 H         1 UNK         0.0600 
    232 H232       -7.9374  -22.2593  -54.7830 H         1 UNK         0.0600 
    233 H233       -8.7898  -23.7655  -55.1032 H         1 UNK         0.0600 
    234 H234       -8.7587  -22.5015  -56.3233 H         1 UNK         0.0600 
    235 H235       -5.4058  -22.6148  -54.3056 H         1 UNK         0.3000 
    236 H236       -5.3704  -24.8449  -52.5332 H         1 UNK         0.0600 
    237 H237       -5.2876  -22.4959  -51.7668 H         1 UNK         0.0600 
    238 H238       -3.8777  -23.3778  -51.1899 H         1 UNK         0.0600 
    239 H239       -3.7238  -22.2651  -52.5454 H         1 UNK         0.0600 
    240 H240       -2.8892  -23.5653  -54.7956 H         1 UNK         0.3000 
    241 H241       -1.0191  -25.7604  -54.0230 H         1 UNK         0.0600 
    242 H242       -2.2001  -25.4688  -57.9793 H         1 UNK         0.3800 
    243 H243       -2.5207  -24.1236  -56.9029 H         1 UNK         0.3800 
    244 H244       -0.3557  -23.1631  -55.4768 H         1 UNK         0.0800 
    245 H245        0.7742  -24.3939  -54.9700 H         1 UNK         0.0800 
    246 H246        1.1182  -21.4461  -54.5228 H         1 UNK         0.0800 
    247 H247        2.2826  -22.4456  -53.6873 H         1 UNK         0.0800 
@<TRIPOS>BOND
     1    1    2 1    
     2    1  127 1    
     3    1  128 1    
     4    1  129 1    
     5    2    3 2    
     6    2    4 am   BACKBONE|DICT|INTERRES
     7    4    5 1    
     8    4  130 1    
     9    5    6 1    
    10    5   65 1    
    11    5  131 1    
    12    6    7 1    
    13    6  132 1    
    14    6  133 1    
    15    7    8 1    
    16    8    9 1    
    17    8  134 1    
    18    8  135 1    
    19    9   10 ar   
    20    9   14 ar   
    21   10   11 ar   
    22   10  136 1    
    23   11   12 ar   
    24   11  126 1    
    25   12   13 ar   
    26   12  137 1    
    27   13   14 ar   
    28   13   15 1    
    29   14  138 1    
    30   15   16 1    
    31   15  139 1    
    32   15  140 1    
    33   16   17 1    
    34   17   18 1    
    35   17  141 1    
    36   17  142 1    
    37   18   19 1    
    38   18   67 1    
    39   18  143 1    
    40   19   20 am   BACKBONE|DICT|INTERRES
    41   19  144 1    
    42   20   21 2    
    43   20   22 1    
    44   22   23 1    
    45   22   24 1    
    46   22  145 1    
    47   23  146 1    
    48   23  147 1    
    49   23  148 1    
    50   24   25 am   BACKBONE|DICT|INTERRES
    51   24  149 1    
    52   25   26 2    
    53   25   27 1    
    54   27   28 1    
    55   27   29 1    
    56   27  150 1    
    57   28  151 1    
    58   28  152 1    
    59   28  153 1    
    60   29   30 am   BACKBONE|DICT|INTERRES
    61   29  154 1    
    62   30   31 2    
    63   30   32 1    
    64   32   33 1    
    65   32   34 1    
    66   32  155 1    
    67   33  156 1    
    68   33  157 1    
    69   33  158 1    
    70   34   35 am   BACKBONE|DICT|INTERRES
    71   34  159 1    
    72   35   36 2    
    73   35   37 1    
    74   37   38 1    
    75   37   39 1    
    76   37  160 1    
    77   38  161 1    
    78   38  162 1    
    79   38  163 1    
    80   39   40 am   BACKBONE|DICT|INTERRES
    81   39  164 1    
    82   40   41 2    
    83   40   42 1    
    84   42   43 1    
    85   42   44 1    
    86   42  165 1    
    87   43  166 1    
    88   43  167 1    
    89   43  168 1    
    90   44   45 am   BACKBONE|DICT|INTERRES
    91   44  169 1    
    92   45   46 2    
    93   45   47 1    
    94   47   48 1    
    95   47   49 1    
    96   47  170 1    
    97   48  171 1    
    98   48  172 1    
    99   48  173 1    
   100   49   50 am   BACKBONE|DICT|INTERRES
   101   49  174 1    
   102   50   51 2    
   103   50   52 1    
   104   52   53 1    
   105   52   54 1    
   106   52  175 1    
   107   53  176 1    
   108   53  177 1    
   109   53  178 1    
   110   54   55 am   BACKBONE|DICT|INTERRES
   111   54  179 1    
   112   55   56 2    
   113   55   57 1    
   114   57   58 1    
   115   57   59 1    
   116   57  180 1    
   117   58  181 1    
   118   58  182 1    
   119   58  183 1    
   120   59   60 am   BACKBONE|DICT|INTERRES
   121   59  184 1    
   122   60   61 2    
   123   60   62 1    
   124   62   63 1    
   125   62   64 1    
   126   62  185 1    
   127   63  186 1    
   128   63  187 1    
   129   63  188 1    
   130   64   65 am   BACKBONE|DICT|INTERRES
   131   64  189 1    
   132   65   66 2    
   133   67   68 2    
   134   67   69 am   BACKBONE|DICT|INTERRES
   135   69   70 1    
   136   69  190 1    
   137   70   71 1    
   138   70   72 1    
   139   70  191 1    
   140   71  192 1    
   141   71  193 1    
   142   71  194 1    
   143   72   73 2    
   144   72   74 am   BACKBONE|DICT|INTERRES
   145   74   75 1    
   146   74  195 1    
   147   75   76 1    
   148   75   77 1    
   149   75  196 1    
   150   76  197 1    
   151   76  198 1    
   152   76  199 1    
   153   77   78 2    
   154   77   79 am   BACKBONE|DICT|INTERRES
   155   79   80 1    
   156   79  200 1    
   157   80   81 1    
   158   80   82 1    
   159   80  201 1    
   160   81  202 1    
   161   81  203 1    
   162   81  204 1    
   163   82   83 2    
   164   82   84 am   BACKBONE|DICT|INTERRES
   165   84   85 1    
   166   84  205 1    
   167   85   86 1    
   168   85   87 1    
   169   85  206 1    
   170   86  207 1    
   171   86  208 1    
   172   86  209 1    
   173   87   88 2    
   174   87   89 am   BACKBONE|DICT|INTERRES
   175   89   90 1    
   176   89  210 1    
   177   90   91 1    
   178   90   92 1    
   179   90  211 1    
   180   91  212 1    
   181   91  213 1    
   182   91  214 1    
   183   92   93 2    
   184   92   94 am   BACKBONE|DICT|INTERRES
   185   94   95 1    
   186   94  215 1    
   187   95   96 1    
   188   95   97 1    
   189   95  216 1    
   190   96  217 1    
   191   96  218 1    
   192   96  219 1    
   193   97   98 2    
   194   97   99 am   BACKBONE|DICT|INTERRES
   195   99  100 1    
   196   99  220 1    
   197  100  101 1    
   198  100  102 1    
   199  100  221 1    
   200  101  222 1    
   201  101  223 1    
   202  101  224 1    
   203  102  103 2    
   204  102  104 am   BACKBONE|DICT|INTERRES
   205  104  105 1    
   206  104  225 1    
   207  105  106 1    
   208  105  107 1    
   209  105  226 1    
   210  106  227 1    
   211  106  228 1    
   212  106  229 1    
   213  107  108 2    
   214  107  109 am   BACKBONE|DICT|INTERRES
   215  109  110 1    
   216  109  230 1    
   217  110  111 1    
   218  110  112 1    
   219  110  231 1    
   220  111  232 1    
   221  111  233 1    
   222  111  234 1    
   223  112  113 2    
   224  112  114 am   BACKBONE|DICT|INTERRES
   225  114  115 1    
   226  114  235 1    
   227  115  116 1    
   228  115  117 1    
   229  115  236 1    
   230  116  237 1    
   231  116  238 1    
   232  116  239 1    
   233  117  118 2    
   234  117  119 am   BACKBONE|DICT|INTERRES
   235  119  120 1    
   236  119  240 1    
   237  120  121 1    
   238  120  124 1    
   239  120  241 1    
   240  121  122 am   BACKBONE|DICT|INTERRES
   241  121  123 2    
   242  122  242 1    
   243  122  243 1    
   244  124  125 1    
   245  124  244 1    
   246  124  245 1    
   247  125  126 1    
   248  126  246 1    
   249  126  247 1    
@<TRIPOS>SUBSTRUCTURE
     1 UNK         1 GROUP             0       ****    0 ROOT    
