@<TRIPOS>MOLECULE
3R540
247   249    1
SMALL
USER_CHARGES


@<TRIPOS>ATOM
      1 CA         -1.5538  -13.9015  -51.0343 C.3       0 UNK        -0.1800 
      2 C          -0.2530  -13.5769  -50.3170 C.2       0 UNK         0.5000 
      3 O           0.0389  -12.4057  -50.0758 O.2       0 UNK        -0.5000 
      4 N           0.5312  -14.6082  -49.9741 N.am      1 UNK        -0.5000 
      5 CA          1.8364  -14.4742  -49.3128 C.3       1 UNK         0.1400 
      6 C6          2.7642  -15.6896  -49.6027 C.3       23 UNK        -0.0398 
      7 S7          2.4633  -17.2053  -48.6175 S.3       23 UNK        -0.2404 
      8 C8          1.7624  -18.3621  -49.8399 C.3       23 UNK        -0.0205 
      9 C9          0.3582  -17.9774  -50.2841 C.ar      23 UNK        -0.0193 
     10 C10         0.0350  -17.9342  -51.6434 C.ar      23 UNK        -0.1150 
     11 C11        -1.2542  -17.5838  -52.0551 C.ar      23 UNK        -0.0193 
     12 C12        -2.2221  -17.2782  -51.0955 C.ar      23 UNK        -0.1150 
     13 C13        -1.9093  -17.3050  -49.7341 C.ar      23 UNK        -0.0193 
     14 C14        -0.6208  -17.6665  -49.3365 C.ar      23 UNK        -0.1150 
     15 C15        -2.9438  -16.8849  -48.7021 C.3       23 UNK        -0.0205 
     16 S16        -3.7471  -18.3073  -47.9070 S.3       23 UNK        -0.2404 
     17 C17        -2.5071  -18.8182  -46.6644 C.3       23 UNK        -0.0398 
     18 CA         -1.8899  -20.2029  -46.9793 C.3       11 UNK         0.1400 
     19 N          -0.6270  -20.4464  -46.2767 N.am      11 UNK        -0.5000 
     20 C           0.1459  -21.5286  -46.4537 C.2       10 UNK         0.5000 
     21 O          -0.0833  -22.3933  -47.2987 O.2       10 UNK        -0.5000 
     22 CA          1.3370  -21.7174  -45.4944 C.3       10 UNK         0.1400 
     23 CB          2.5926  -21.0212  -46.0388 C.3       10 UNK        -0.1800 
     24 N           1.0475  -21.2617  -44.1309 N.am      10 UNK        -0.5000 
     25 C           0.1185  -21.8139  -43.3345 C.2       9 UNK         0.5000 
     26 O          -0.5372  -22.8072  -43.6454 O.2       9 UNK        -0.5000 
     27 CA         -0.1856  -21.1024  -42.0020 C.3       9 UNK         0.1400 
     28 CB          0.8128  -21.5084  -40.9086 C.3       9 UNK        -0.1800 
     29 N          -0.2097  -19.6464  -42.1470 N.am      9 UNK        -0.5000 
     30 C          -1.1046  -18.9827  -42.8932 C.2       8 UNK         0.5000 
     31 O          -2.0601  -19.5264  -43.4477 O.2       8 UNK        -0.5000 
     32 CA         -0.8482  -17.4802  -43.1196 C.3       8 UNK         0.1400 
     33 CB         -1.4097  -16.6361  -41.9674 C.3       8 UNK        -0.1800 
     34 N           0.5757  -17.1897  -43.3027 N.am      8 UNK        -0.5000 
     35 C           1.2994  -17.5996  -44.3534 C.2       7 UNK         0.5000 
     36 O           0.7995  -18.1452  -45.3345 O.2       7 UNK        -0.5000 
     37 CA          2.8291  -17.4285  -44.2762 C.3       7 UNK         0.1400 
     38 CB          3.2968  -16.1099  -44.8966 C.3       7 UNK        -0.1800 
     39 N           3.3220  -17.5075  -42.9051 N.am      7 UNK        -0.5000 
     40 C           3.5067  -18.6530  -42.2393 C.2       6 UNK         0.5000 
     41 O           3.3094  -19.7639  -42.7308 O.2       6 UNK        -0.5000 
     42 CA          3.9495  -18.5281  -40.7692 C.3       6 UNK         0.1400 
     43 CB          5.4797  -18.4426  -40.6718 C.3       6 UNK        -0.1800 
     44 N           3.3559  -17.3670  -40.1000 N.am      6 UNK        -0.5000 
     45 C           2.0496  -17.2470  -39.8263 C.2       5 UNK         0.5000 
     46 O           1.2207  -18.1205  -40.0803 O.2       5 UNK        -0.5000 
     47 CA          1.5829  -15.9124  -39.2132 C.3       5 UNK         0.1400 
     48 CB          1.7131  -15.9504  -37.6834 C.3       5 UNK        -0.1800 
     49 N           2.2845  -14.7317  -39.7312 N.am      5 UNK        -0.5000 
     50 C           2.3033  -14.3479  -41.0144 C.2       4 UNK         0.5000 
     51 O           1.7918  -14.9971  -41.9302 O.2       4 UNK        -0.5000 
     52 CA          3.0429  -13.0411  -41.3326 C.3       4 UNK         0.1400 
     53 CB          4.5667  -13.2482  -41.2908 C.3       4 UNK        -0.1800 
     54 N           2.6549  -12.5928  -42.6662 N.am      4 UNK        -0.5000 
     55 C           2.5438  -11.3235  -43.0746 C.2       3 UNK         0.5000 
     56 O           2.7780  -10.3553  -42.3499 O.2       3 UNK        -0.5000 
     57 CA          2.1146  -11.0837  -44.5383 C.3       3 UNK         0.1400 
     58 CB          3.2858  -10.5139  -45.3544 C.3       3 UNK        -0.1800 
     59 N           1.6400  -12.2989  -45.2029 N.am      3 UNK        -0.5000 
     60 C           0.4036  -12.7992  -45.1305 C.2       2 UNK         0.5000 
     61 O          -0.5171  -12.2338  -44.5386 O.2       2 UNK        -0.5000 
     62 CA          0.1739  -14.1713  -45.8071 C.3       2 UNK         0.1400 
     63 CB         -1.2654  -14.6850  -45.6315 C.3       2 UNK        -0.1800 
     64 N           0.5224  -14.2513  -47.2305 N.am      2 UNK        -0.5000 
     65 C           1.7321  -14.1421  -47.8038 C.2       1 UNK         0.5000 
     66 O           2.7536  -13.8222  -47.1948 O.2       1 UNK        -0.5000 
     67 C          -2.9085  -21.3300  -46.7173 C.2       11 UNK         0.5000 
     68 O          -3.5006  -21.8467  -47.6626 O.2       11 UNK        -0.5000 
     69 N          -3.0742  -21.7138  -45.4459 N.am      12 UNK        -0.5000 
     70 CA         -3.9548  -22.8072  -45.0409 C.3       12 UNK         0.1400 
     71 CB         -4.1268  -22.7852  -43.5145 C.3       12 UNK        -0.1800 
     72 C          -3.4559  -24.1830  -45.5232 C.2       12 UNK         0.5000 
     73 O          -4.2548  -24.9749  -46.0233 O.2       12 UNK        -0.5000 
     74 N          -2.1528  -24.4419  -45.3574 N.am      13 UNK        -0.5000 
     75 CA         -1.5280  -25.7330  -45.6341 C.3       13 UNK         0.1400 
     76 CB         -0.2003  -25.8303  -44.8654 C.3       13 UNK        -0.1800 
     77 C          -1.3064  -26.0114  -47.1308 C.2       13 UNK         0.5000 
     78 O          -1.6987  -27.0772  -47.6078 O.2       13 UNK        -0.5000 
     79 N          -0.6445  -25.0825  -47.8322 N.am      14 UNK        -0.5000 
     80 CA         -0.1429  -25.2872  -49.1914 C.3       14 UNK         0.1400 
     81 CB          1.2814  -24.7183  -49.3042 C.3       14 UNK        -0.1800 
     82 C          -1.0598  -24.6587  -50.2481 C.2       14 UNK         0.5000 
     83 O          -1.3331  -25.3030  -51.2614 O.2       14 UNK        -0.5000 
     84 N          -1.5260  -23.4248  -50.0044 N.am      15 UNK        -0.5000 
     85 CA         -2.4068  -22.7033  -50.9323 C.3       15 UNK         0.1400 
     86 CB         -2.2310  -21.1856  -50.7533 C.3       15 UNK        -0.1800 
     87 C          -3.8882  -23.1076  -50.7929 C.2       15 UNK         0.5000 
     88 O          -4.7000  -22.6820  -51.6131 O.2       15 UNK        -0.5000 
     89 N          -4.2197  -23.8894  -49.7531 N.am      16 UNK        -0.5000 
     90 CA         -5.5551  -24.3790  -49.3942 C.3       16 UNK         0.1400 
     91 CB         -6.0169  -25.4561  -50.3962 C.3       16 UNK        -0.1800 
     92 C          -6.5781  -23.2383  -49.2005 C.2       16 UNK         0.5000 
     93 O          -7.7038  -23.3214  -49.6935 O.2       16 UNK        -0.5000 
     94 N          -6.1393  -22.1841  -48.4975 N.am      17 UNK        -0.5000 
     95 CA         -6.8307  -20.9143  -48.2609 C.3       17 UNK         0.1400 
     96 CB         -8.1340  -21.1184  -47.4601 C.3       17 UNK        -0.1800 
     97 C          -7.0180  -20.1067  -49.5623 C.2       17 UNK         0.5000 
     98 O          -8.0981  -19.5675  -49.8106 O.2       17 UNK        -0.5000 
     99 N          -5.9391  -20.0394  -50.3570 N.am      18 UNK        -0.5000 
    100 CA        -5.8081  -19.3268  -51.6328 C.3       18 UNK         0.1400 
    101 CB        -5.9524  -17.8048  -51.4209 C.3       18 UNK        -0.1800 
    102 C         -6.7496  -19.8716  -52.7279 C.2       18 UNK         0.5000 
    103 O         -7.3616  -19.0936  -53.4633 O.2       18 UNK        -0.5000 
    104 N         -6.8568  -21.2021  -52.8136 N.am      19 UNK        -0.5000 
    105 CA        -7.6331  -21.9024  -53.8311 C.3       19 UNK         0.1400 
    106 CB        -8.1765  -23.2100  -53.2372 C.3       19 UNK        -0.1800 
    107 C         -6.7460  -22.1880  -55.0527 C.2       19 UNK         0.5000 
    108 O         -5.6127  -22.6437  -54.8871 O.2       19 UNK        -0.5000 
    109 N         -7.2927  -21.9449  -56.2525 N.am      20 UNK        -0.5000 
    110 CA        -6.6473  -22.1133  -57.5601 C.3       20 UNK         0.1400 
    111 CB        -6.4519  -23.6144  -57.8756 C.3       20 UNK        -0.1800 
    112 C         -5.3614  -21.2632  -57.6912 C.2       20 UNK         0.5000 
    113 O         -5.3567  -20.1078  -57.2596 O.2       20 UNK        -0.5000 
    114 N         -4.3099  -21.8252  -58.2992 N.am      21 UNK        -0.5000 
    115 CA        -2.9862  -21.2142  -58.3925 C.3       21 UNK         0.1400 
    116 CB        -2.2343  -21.8317  -59.5821 C.3       21 UNK        -0.1800 
    117 C         -2.1995  -21.4243  -57.0865 C.2       21 UNK         0.5000 
    118 O         -2.2836  -22.4967  -56.4831 O.2       21 UNK        -0.5000 
    119 N         -1.4162  -20.4156  -56.7025 N.am      22 UNK        -0.5000 
    120 CA        -0.5569  -20.4047  -55.5135 C.3       22 UNK         0.1400 
    121 C          0.5964  -19.3783  -55.6680 C.2       22 UNK         0.5000 
    122 N          1.6357  -19.4762  -54.8499 N.am      22 UNK        -0.7600 
    123 O          0.5598  -18.4881  -56.5159 O.2       22 UNK        -0.5000 
    124 C124       -1.3462  -20.2383  -54.1813 C.3       23 UNK        -0.0398 
    125 S125       -2.5663  -18.8744  -54.1552 S.3       23 UNK        -0.2404 
    126 C126       -1.5898  -17.4680  -53.5343 C.3       23 UNK        -0.0205 
    127 H127       -1.3868  -14.6356  -51.8218 H         1 UNK         0.0600 
    128 H128       -1.9725  -13.0071  -51.4959 H         1 UNK         0.0600 
    129 H129       -2.2874  -14.2973  -50.3326 H         1 UNK         0.0600 
    130 H130        0.2392  -15.5544  -50.1831 H         1 UNK         0.3000 
    131 H131        2.3282  -13.6094  -49.7639 H         1 UNK         0.0600 
    132 H132        2.7361  -15.9343  -50.6654 H         1 UNK         0.0800 
    133 H133        3.7969  -15.3955  -49.4083 H         1 UNK         0.0800 
    134 H134        1.7191  -19.3555  -49.3913 H         1 UNK         0.0800 
    135 H135        2.4396  -18.4366  -50.6921 H         1 UNK         0.0800 
    136 H136        0.7892  -18.1618  -52.3834 H         1 UNK         0.1150 
    137 H137       -3.2096  -16.9835  -51.4172 H         1 UNK         0.1150 
    138 H138       -0.3625  -17.6853  -48.2880 H         1 UNK         0.1150 
    139 H139       -2.4866  -16.2425  -47.9506 H         1 UNK         0.0800 
    140 H140       -3.7152  -16.2772  -49.1767 H         1 UNK         0.0800 
    141 H141       -2.9960  -18.8135  -45.6905 H         1 UNK         0.0800 
    142 H142       -1.7266  -18.0627  -46.5940 H         1 UNK         0.0800 
    143 H143       -1.6348  -20.2193  -48.0387 H         1 UNK         0.0600 
    144 H144       -0.3133  -19.7314  -45.6286 H         1 UNK         0.3000 
    145 H145        1.5489  -22.7870  -45.4403 H         1 UNK         0.0600 
    146 H146        3.4287  -21.1061  -45.3444 H         1 UNK         0.0600 
    147 H147        2.9038  -21.4740  -46.9809 H         1 UNK         0.0600 
    148 H148        2.4208  -19.9639  -46.2351 H         1 UNK         0.0600 
    149 H149        1.5912  -20.4826  -43.7797 H         1 UNK         0.3000 
    150 H150       -1.1798  -21.4194  -41.6798 H         1 UNK         0.0600 
    151 H151        0.7981  -22.5876  -40.7514 H         1 UNK         0.0600 
    152 H152        0.5672  -21.0370  -39.9567 H         1 UNK         0.0600 
    153 H153        1.8341  -21.2301  -41.1643 H         1 UNK         0.0600 
    154 H154        0.5040  -19.1206  -41.6528 H         1 UNK         0.3000 
    155 H155       -1.3716  -17.1926  -44.0327 H         1 UNK         0.0600 
    156 H156       -0.9768  -16.9198  -41.0091 H         1 UNK         0.0600 
    157 H157       -2.4900  -16.7619  -41.8867 H         1 UNK         0.0600 
    158 H158       -1.2148  -15.5747  -42.1228 H         1 UNK         0.0600 
    159 H159        1.0381  -16.6600  -42.5707 H         1 UNK         0.3000 
    160 H160        3.2787  -18.2365  -44.8560 H         1 UNK         0.0600 
    161 H161        2.9142  -15.2417  -44.3623 H         1 UNK         0.0600 
    162 H162        2.9649  -16.0471  -45.9304 H         1 UNK         0.0600 
    163 H163        4.3847  -16.0425  -44.9053 H         1 UNK         0.0600 
    164 H164        3.4450  -16.6333  -42.4153 H         1 UNK         0.3000 
    165 H165        3.6227  -19.4294  -40.2462 H         1 UNK         0.0600 
    166 H166        5.8083  -18.4274  -39.6324 H         1 UNK         0.0600 
    167 H167        5.9494  -19.3048  -41.1474 H         1 UNK         0.0600 
    168 H168        5.8663  -17.5471  -41.1600 H         1 UNK         0.0600 
    169 H169        3.9742  -16.6065  -39.8589 H         1 UNK         0.3000 
    170 H170        0.5257  -15.7949  -39.4579 H         1 UNK         0.0600 
    171 H171        1.1822  -16.8077  -37.2670 H         1 UNK         0.0600 
    172 H172        2.7549  -16.0250  -37.3690 H         1 UNK         0.0600 
    173 H173        1.2878  -15.0556  -37.2286 H         1 UNK         0.0600 
    174 H174        2.7425  -14.1504  -39.0439 H         1 UNK         0.3000 
    175 H175        2.7497  -12.2962  -40.5899 H         1 UNK         0.0600 
    176 H176        4.8899  -13.9986  -42.0136 H         1 UNK         0.0600 
    177 H177        5.0953  -12.3213  -41.5142 H         1 UNK         0.0600 
    178 H178        4.8952  -13.5767  -40.3041 H         1 UNK         0.0600 
    179 H179        2.3701  -13.3345  -43.2904 H         1 UNK         0.3000 
    180 H180        1.3121  -10.3433  -44.5290 H         1 UNK         0.0600 
    181 H181        4.1221  -11.2129  -45.3979 H         1 UNK         0.0600 
    182 H182        3.6548   -9.5851  -44.9173 H         1 UNK         0.0600 
    183 H183        2.9815  -10.2919  -46.3775 H         1 UNK         0.0600 
    184 H184        2.3133  -12.8028  -45.7778 H         1 UNK         0.3000 
    185 H185        0.8183  -14.8709  -45.2792 H         1 UNK         0.0600 
    186 H186       -1.5659  -14.6710  -44.5831 H         1 UNK         0.0600 
    187 H187       -1.9809  -14.0795  -46.1888 H         1 UNK         0.0600 
    188 H188       -1.3530  -15.7156  -45.9722 H         1 UNK         0.0600 
    189 H189       -0.2406  -14.4788  -47.8494 H         1 UNK         0.3000 
    190 H190       -2.5610  -21.2336  -44.7155 H         1 UNK         0.3000 
    191 H191       -4.9351  -22.6342  -45.4906 H         1 UNK         0.0600 
    192 H192       -3.1784  -22.9327  -42.9972 H         1 UNK         0.0600 
    193 H193       -4.8055  -23.5737  -43.1872 H         1 UNK         0.0600 
    194 H194       -4.5446  -21.8356  -43.1796 H         1 UNK         0.0600 
    195 H195       -1.5726  -23.7466  -44.8939 H         1 UNK         0.3000 
    196 H196       -2.1855  -26.5156  -45.2492 H         1 UNK         0.0600 
    197 H197        0.2833  -26.7926  -45.0379 H         1 UNK         0.0600 
    198 H198       -0.3603  -25.7347  -43.7913 H         1 UNK         0.0600 
    199 H199        0.5000  -25.0511  -45.1677 H         1 UNK         0.0600 
    200 H200       -0.4139  -24.1902  -47.4012 H         1 UNK         0.3000 
    201 H201       -0.0786  -26.3564  -49.4051 H         1 UNK         0.0600 
    202 H202        1.9462  -25.1739  -48.5703 H         1 UNK         0.0600 
    203 H203        1.3058  -23.6390  -49.1529 H         1 UNK         0.0600 
    204 H204        1.7014  -24.9175  -50.2908 H         1 UNK         0.0600 
    205 H205       -1.2620  -22.9549  -49.1466 H         1 UNK         0.3000 
    206 H206       -2.1043  -22.9422  -51.9542 H         1 UNK         0.0600 
    207 H207       -1.1805  -20.9007  -50.6917 H         1 UNK         0.0600 
    208 H208       -2.6614  -20.6492  -51.5981 H         1 UNK         0.0600 
    209 H209       -2.7386  -20.8151  -49.8667 H         1 UNK         0.0600 
    210 H210       -3.4805  -24.1229  -49.1060 H         1 UNK         0.3000 
    211 H211       -5.4569  -24.8614  -48.4215 H         1 UNK         0.0600 
    212 H212       -6.1157  -25.0548  -51.4038 H         1 UNK         0.0600 
    213 H213       -6.9830  -25.8732  -50.1101 H         1 UNK         0.0600 
    214 H214       -5.3069  -26.2821  -50.4363 H         1 UNK         0.0600 
    215 H215       -5.1709  -22.2060  -48.1782 H         1 UNK         0.3000 
    216 H216       -6.1602  -20.3234  -47.6353 H         1 UNK         0.0600 
    217 H217       -8.5592  -20.1596  -47.1618 H         1 UNK         0.0600 
    218 H218       -7.9516  -21.6895  -46.5499 H         1 UNK         0.0600 
    219 H219       -8.8933  -21.6429  -48.0404 H         1 UNK         0.0600 
    220 H220       -5.1234  -20.5604  -50.0705 H         1 UNK         0.3000 
    221 H221       -4.7921  -19.5144  -51.9814 H         1 UNK         0.0600 
    222 H222       -6.9825  -17.5213  -51.2032 H         1 UNK         0.0600 
    223 H223       -5.3353  -17.4607  -50.5926 H         1 UNK         0.0600 
    224 H224       -5.6435  -17.2576  -52.3122 H         1 UNK         0.0600 
    225 H225       -6.2324  -21.7782  -52.2530 H         1 UNK         0.3000 
    226 H226       -8.4851  -21.2896  -54.1334 H         1 UNK         0.0600 
    227 H227       -8.7924  -23.0189  -52.3581 H         1 UNK         0.0600 
    228 H228       -8.7945  -23.7412  -53.9620 H         1 UNK         0.0600 
    229 H229       -7.3692  -23.8791  -52.9406 H         1 UNK         0.0600 
    230 H230       -8.2205  -21.5458  -56.2812 H         1 UNK         0.3000 
    231 H231       -7.3456  -21.7128  -58.2962 H         1 UNK         0.0600 
    232 H232       -7.3845  -24.1640  -57.7470 H         1 UNK         0.0600 
    233 H233       -5.7062  -24.0750  -57.2262 H         1 UNK         0.0600 
    234 H234       -6.1365  -23.7661  -58.9084 H         1 UNK         0.0600 
    235 H235       -4.3764  -22.7922  -58.5808 H         1 UNK         0.3000 
    236 H236       -3.0976  -20.1430  -58.5754 H         1 UNK         0.0600 
    237 H237       -1.2469  -21.3823  -59.6949 H         1 UNK         0.0600 
    238 H238       -2.0933  -22.9061  -59.4566 H         1 UNK         0.0600 
    239 H239       -2.7729  -21.6703  -60.5161 H         1 UNK         0.0600 
    240 H240       -1.3561  -19.5739  -57.2606 H         1 UNK         0.3000 
    241 H241       -0.0621  -21.3776  -55.4809 H         1 UNK         0.0600 
    242 H242        2.3923  -18.8169  -54.9467 H         1 UNK         0.3800 
    243 H243        1.7090  -20.2125  -54.1658 H         1 UNK         0.3800 
    244 H244       -1.9065  -21.1557  -53.9965 H         1 UNK         0.0800 
    245 H245       -0.6709  -20.1463  -53.3304 H         1 UNK         0.0800 
    246 H246       -2.1658  -16.5555  -53.6943 H         1 UNK         0.0800 
    247 H247       -0.6831  -17.3502  -54.1274 H         1 UNK         0.0800 
@<TRIPOS>BOND
     1    1    2 1    
     2    1  127 1    
     3    1  128 1    
     4    1  129 1    
     5    2    3 2    
     6    2    4 am   BACKBONE|DICT|INTERRES
     7    4    5 1    
     8    4  130 1    
     9    5    6 1    
    10    5   65 1    
    11    5  131 1    
    12    6    7 1    
    13    6  132 1    
    14    6  133 1    
    15    7    8 1    
    16    8    9 1    
    17    8  134 1    
    18    8  135 1    
    19    9   10 ar   
    20    9   14 ar   
    21   10   11 ar   
    22   10  136 1    
    23   11   12 ar   
    24   11  126 1    
    25   12   13 ar   
    26   12  137 1    
    27   13   14 ar   
    28   13   15 1    
    29   14  138 1    
    30   15   16 1    
    31   15  139 1    
    32   15  140 1    
    33   16   17 1    
    34   17   18 1    
    35   17  141 1    
    36   17  142 1    
    37   18   19 1    
    38   18   67 1    
    39   18  143 1    
    40   19   20 am   BACKBONE|DICT|INTERRES
    41   19  144 1    
    42   20   21 2    
    43   20   22 1    
    44   22   23 1    
    45   22   24 1    
    46   22  145 1    
    47   23  146 1    
    48   23  147 1    
    49   23  148 1    
    50   24   25 am   BACKBONE|DICT|INTERRES
    51   24  149 1    
    52   25   26 2    
    53   25   27 1    
    54   27   28 1    
    55   27   29 1    
    56   27  150 1    
    57   28  151 1    
    58   28  152 1    
    59   28  153 1    
    60   29   30 am   BACKBONE|DICT|INTERRES
    61   29  154 1    
    62   30   31 2    
    63   30   32 1    
    64   32   33 1    
    65   32   34 1    
    66   32  155 1    
    67   33  156 1    
    68   33  157 1    
    69   33  158 1    
    70   34   35 am   BACKBONE|DICT|INTERRES
    71   34  159 1    
    72   35   36 2    
    73   35   37 1    
    74   37   38 1    
    75   37   39 1    
    76   37  160 1    
    77   38  161 1    
    78   38  162 1    
    79   38  163 1    
    80   39   40 am   BACKBONE|DICT|INTERRES
    81   39  164 1    
    82   40   41 2    
    83   40   42 1    
    84   42   43 1    
    85   42   44 1    
    86   42  165 1    
    87   43  166 1    
    88   43  167 1    
    89   43  168 1    
    90   44   45 am   BACKBONE|DICT|INTERRES
    91   44  169 1    
    92   45   46 2    
    93   45   47 1    
    94   47   48 1    
    95   47   49 1    
    96   47  170 1    
    97   48  171 1    
    98   48  172 1    
    99   48  173 1    
   100   49   50 am   BACKBONE|DICT|INTERRES
   101   49  174 1    
   102   50   51 2    
   103   50   52 1    
   104   52   53 1    
   105   52   54 1    
   106   52  175 1    
   107   53  176 1    
   108   53  177 1    
   109   53  178 1    
   110   54   55 am   BACKBONE|DICT|INTERRES
   111   54  179 1    
   112   55   56 2    
   113   55   57 1    
   114   57   58 1    
   115   57   59 1    
   116   57  180 1    
   117   58  181 1    
   118   58  182 1    
   119   58  183 1    
   120   59   60 am   BACKBONE|DICT|INTERRES
   121   59  184 1    
   122   60   61 2    
   123   60   62 1    
   124   62   63 1    
   125   62   64 1    
   126   62  185 1    
   127   63  186 1    
   128   63  187 1    
   129   63  188 1    
   130   64   65 am   BACKBONE|DICT|INTERRES
   131   64  189 1    
   132   65   66 2    
   133   67   68 2    
   134   67   69 am   BACKBONE|DICT|INTERRES
   135   69   70 1    
   136   69  190 1    
   137   70   71 1    
   138   70   72 1    
   139   70  191 1    
   140   71  192 1    
   141   71  193 1    
   142   71  194 1    
   143   72   73 2    
   144   72   74 am   BACKBONE|DICT|INTERRES
   145   74   75 1    
   146   74  195 1    
   147   75   76 1    
   148   75   77 1    
   149   75  196 1    
   150   76  197 1    
   151   76  198 1    
   152   76  199 1    
   153   77   78 2    
   154   77   79 am   BACKBONE|DICT|INTERRES
   155   79   80 1    
   156   79  200 1    
   157   80   81 1    
   158   80   82 1    
   159   80  201 1    
   160   81  202 1    
   161   81  203 1    
   162   81  204 1    
   163   82   83 2    
   164   82   84 am   BACKBONE|DICT|INTERRES
   165   84   85 1    
   166   84  205 1    
   167   85   86 1    
   168   85   87 1    
   169   85  206 1    
   170   86  207 1    
   171   86  208 1    
   172   86  209 1    
   173   87   88 2    
   174   87   89 am   BACKBONE|DICT|INTERRES
   175   89   90 1    
   176   89  210 1    
   177   90   91 1    
   178   90   92 1    
   179   90  211 1    
   180   91  212 1    
   181   91  213 1    
   182   91  214 1    
   183   92   93 2    
   184   92   94 am   BACKBONE|DICT|INTERRES
   185   94   95 1    
   186   94  215 1    
   187   95   96 1    
   188   95   97 1    
   189   95  216 1    
   190   96  217 1    
   191   96  218 1    
   192   96  219 1    
   193   97   98 2    
   194   97   99 am   BACKBONE|DICT|INTERRES
   195   99  100 1    
   196   99  220 1    
   197  100  101 1    
   198  100  102 1    
   199  100  221 1    
   200  101  222 1    
   201  101  223 1    
   202  101  224 1    
   203  102  103 2    
   204  102  104 am   BACKBONE|DICT|INTERRES
   205  104  105 1    
   206  104  225 1    
   207  105  106 1    
   208  105  107 1    
   209  105  226 1    
   210  106  227 1    
   211  106  228 1    
   212  106  229 1    
   213  107  108 2    
   214  107  109 am   BACKBONE|DICT|INTERRES
   215  109  110 1    
   216  109  230 1    
   217  110  111 1    
   218  110  112 1    
   219  110  231 1    
   220  111  232 1    
   221  111  233 1    
   222  111  234 1    
   223  112  113 2    
   224  112  114 am   BACKBONE|DICT|INTERRES
   225  114  115 1    
   226  114  235 1    
   227  115  116 1    
   228  115  117 1    
   229  115  236 1    
   230  116  237 1    
   231  116  238 1    
   232  116  239 1    
   233  117  118 2    
   234  117  119 am   BACKBONE|DICT|INTERRES
   235  119  120 1    
   236  119  240 1    
   237  120  121 1    
   238  120  124 1    
   239  120  241 1    
   240  121  122 am   BACKBONE|DICT|INTERRES
   241  121  123 2    
   242  122  242 1    
   243  122  243 1    
   244  124  125 1    
   245  124  244 1    
   246  124  245 1    
   247  125  126 1    
   248  126  246 1    
   249  126  247 1    
@<TRIPOS>SUBSTRUCTURE
     1 UNK         1 GROUP             0       ****    0 ROOT    
