@<TRIPOS>MOLECULE
3R540
247   249    1
SMALL
USER_CHARGES


@<TRIPOS>ATOM
      1 CA         -4.7951  -10.2976  -47.5779 C.3       0 UNK        -0.1800 
      2 C          -3.5702  -11.1969  -47.6594 C.2       0 UNK         0.5000 
      3 O          -2.4528  -10.7380  -47.4183 O.2       0 UNK        -0.5000 
      4 N          -3.7710  -12.4798  -47.9845 N.am      1 UNK        -0.5000 
      5 CA         -2.7306  -13.5060  -48.1365 C.3       1 UNK         0.1400 
      6 C6         -3.1843  -14.6422  -49.0894 C.3       23 UNK        -0.0398 
      7 S7         -3.5352  -14.0613  -50.7856 S.3       23 UNK        -0.2404 
      8 C8         -1.8767  -13.6381  -51.4198 C.3       23 UNK        -0.0205 
      9 C9         -0.9671  -14.8518  -51.5453 C.ar      23 UNK        -0.0193 
     10 C10        -0.9725  -15.6114  -52.7168 C.ar      23 UNK        -0.1150 
     11 C11        -0.1313  -16.7193  -52.8518 C.ar      23 UNK        -0.0193 
     12 C12         0.7128  -17.0760  -51.7941 C.ar      23 UNK        -0.1150 
     13 C13         0.7319  -16.3197  -50.6168 C.ar      23 UNK        -0.0193 
     14 C14        -0.1005  -15.2015  -50.5058 C.ar      23 UNK        -0.1150 
     15 C15         1.6720  -16.6850  -49.4738 C.3       23 UNK        -0.0205 
     16 S16         1.1617  -18.1884  -48.5780 S.3       23 UNK        -0.2404 
     17 C17        -0.4447  -17.6983  -47.8612 C.3       23 UNK        -0.0398 
     18 CA         -1.3986  -18.9086  -47.7425 C.3       11 UNK         0.1400 
     19 N          -0.9372  -19.8764  -46.7424 N.am      11 UNK        -0.5000 
     20 C          -1.3918  -21.1290  -46.6087 C.2       10 UNK         0.5000 
     21 O          -2.3700  -21.5597  -47.2160 O.2       10 UNK        -0.5000 
     22 CA         -0.6305  -22.0535  -45.6455 C.3       10 UNK         0.1400 
     23 CB          0.7083  -22.4897  -46.2575 C.3       10 UNK        -0.1800 
     24 N          -0.3734  -21.3828  -44.3753 N.am      10 UNK        -0.5000 
     25 C          -0.9204  -21.7284  -43.2026 C.2       9 UNK         0.5000 
     26 O          -1.6298  -22.7226  -43.0431 O.2       9 UNK        -0.5000 
     27 CA         -0.6505  -20.8020  -41.9964 C.3       9 UNK         0.1400 
     28 CB          0.5106  -21.3491  -41.1520 C.3       9 UNK        -0.1800 
     29 N          -0.3578  -19.4097  -42.3443 N.am      9 UNK        -0.5000 
     30 C          -1.1262  -18.6069  -43.0942 C.2       8 UNK         0.5000 
     31 O          -2.2046  -18.9388  -43.5824 O.2       8 UNK        -0.5000 
     32 CA         -0.5586  -17.2148  -43.4076 C.3       8 UNK         0.1400 
     33 CB         -0.9051  -16.2554  -42.2592 C.3       8 UNK        -0.1800 
     34 N           0.8900  -17.1959  -43.6385 N.am      8 UNK        -0.5000 
     35 C           1.5808  -17.9732  -44.4881 C.2       7 UNK         0.5000 
     36 O           1.0856  -18.8865  -45.1467 O.2       7 UNK        -0.5000 
     37 CA          3.0902  -17.7122  -44.5816 C.3       7 UNK         0.1400 
     38 CB          3.3818  -16.4120  -45.3490 C.3       7 UNK        -0.1800 
     39 N           3.6818  -17.6525  -43.2476 N.am      7 UNK        -0.5000 
     40 C           3.9866  -18.7324  -42.5136 C.2       6 UNK         0.5000 
     41 O           3.8964  -19.8891  -42.9256 O.2       6 UNK        -0.5000 
     42 CA          4.4559  -18.4819  -41.0679 C.3       6 UNK         0.1400 
     43 CB          5.9855  -18.3504  -41.0133 C.3       6 UNK        -0.1800 
     44 N           3.8514  -17.2930  -40.4653 N.am      6 UNK        -0.5000 
     45 C           2.5516  -17.1661  -40.1636 C.2       5 UNK         0.5000 
     46 O           1.7137  -18.0509  -40.3436 O.2       5 UNK        -0.5000 
     47 CA          2.1127  -15.7955  -39.6113 C.3       5 UNK         0.1400 
     48 CB          2.3077  -15.7409  -38.0889 C.3       5 UNK        -0.1800 
     49 N           2.8027  -14.6569  -40.2317 N.am      5 UNK        -0.5000 
     50 C           2.7592  -14.3646  -41.5375 C.2       4 UNK         0.5000 
     51 O           2.1884  -15.0673  -42.3757 O.2       4 UNK        -0.5000 
     52 CA          3.4928  -13.1029  -42.0036 C.3       4 UNK         0.1400 
     53 CB          4.9705  -13.4052  -42.3022 C.3       4 UNK        -0.1800 
     54 N           2.8253  -12.6497  -43.2160 N.am      4 UNK        -0.5000 
     55 C           2.7367  -11.3920  -43.6561 C.2       3 UNK         0.5000 
     56 O           3.3149  -10.4395  -43.1312 O.2       3 UNK        -0.5000 
     57 CA          1.8340  -11.1558  -44.8853 C.3       3 UNK         0.1400 
     58 CB          2.6726  -11.1526  -46.1728 C.3       3 UNK        -0.1800 
     59 N           0.7511  -12.1372  -45.0282 N.am      3 UNK        -0.5000 
     60 C          -0.2815  -12.2741  -44.1836 C.2       2 UNK         0.5000 
     61 O          -0.4389  -11.5778  -43.1799 O.2       2 UNK        -0.5000 
     62 CA         -1.3170  -13.3468  -44.5586 C.3       2 UNK         0.1400 
     63 CB         -2.5239  -13.4000  -43.6005 C.3       2 UNK        -0.1800 
     64 N          -1.7798  -13.1088  -45.9197 N.am      2 UNK        -0.5000 
     65 C          -2.2436  -14.0319  -46.7667 C.2       1 UNK         0.5000 
     66 O          -2.2986  -15.2325  -46.4985 O.2       1 UNK        -0.5000 
     67 C          -2.8613  -18.4585  -47.5568 C.2       11 UNK         0.5000 
     68 O          -3.5051  -18.1248  -48.5522 O.2       11 UNK        -0.5000 
     69 N          -3.3977  -18.5118  -46.3278 N.am      12 UNK        -0.5000 
     70 CA         -4.8155  -18.2427  -46.0613 C.3       12 UNK         0.1400 
     71 CB         -5.0250  -18.0037  -44.5590 C.3       12 UNK        -0.1800 
     72 C          -5.7500  -19.3620  -46.5701 C.2       12 UNK         0.5000 
     73 O          -6.9556  -19.1357  -46.6779 O.2       12 UNK        -0.5000 
     74 N          -5.1841  -20.5352  -46.8832 N.am      13 UNK        -0.5000 
     75 CA         -5.8686  -21.7035  -47.4280 C.3       13 UNK         0.1400 
     76 CB         -5.8363  -22.8303  -46.3812 C.3       13 UNK        -0.1800 
     77 C          -5.2548  -22.1169  -48.7806 C.2       13 UNK         0.5000 
     78 O          -5.3332  -23.2868  -49.1622 O.2       13 UNK        -0.5000 
     79 N          -4.6764  -21.1536  -49.5166 N.am      14 UNK        -0.5000 
     80 CA         -4.1037  -21.3610  -50.8510 C.3       14 UNK         0.1400 
     81 CB         -3.3893  -20.0866  -51.3190 C.3       14 UNK        -0.1800 
     82 C          -5.1433  -21.8144  -51.8939 C.2       14 UNK         0.5000 
     83 O          -4.8050  -22.5928  -52.7844 O.2       14 UNK        -0.5000 
     84 N          -6.4013  -21.3833  -51.7217 N.am      15 UNK        -0.5000 
     85 CA         -7.5581  -21.8174  -52.5108 C.3       15 UNK         0.1400 
     86 CB         -8.7533  -20.9106  -52.1805 C.3       15 UNK        -0.1800 
     87 C          -7.9304  -23.3000  -52.2938 C.2       15 UNK         0.5000 
     88 O          -8.5249  -23.9091  -53.1831 O.2       15 UNK        -0.5000 
     89 N          -7.5527  -23.8582  -51.1349 N.am      16 UNK        -0.5000 
     90 CA         -7.6763  -25.2776  -50.7942 C.3       16 UNK         0.1400 
     91 CB         -8.0645  -25.3964  -49.3103 C.3       16 UNK        -0.1800 
     92 C          -6.3763  -26.0555  -51.0950 C.2       16 UNK         0.5000 
     93 O          -6.2831  -27.2328  -50.7462 O.2       16 UNK        -0.5000 
     94 N          -5.3995  -25.3862  -51.7271 N.am      17 UNK        -0.5000 
     95 CA         -4.0770  -25.8730  -52.1195 C.3       17 UNK         0.1400 
     96 CB         -4.1811  -27.0203  -53.1453 C.3       17 UNK        -0.1800 
     97 C          -3.1499  -26.2059  -50.9332 C.2       17 UNK         0.5000 
     98 O          -2.2171  -26.9924  -51.1012 O.2       17 UNK        -0.5000 
     99 N          -3.3621  -25.5701  -49.7691 N.am      18 UNK        -0.5000 
    100 CA        -2.5096  -25.7390  -48.5835 C.3       18 UNK         0.1400 
    101 CB        -3.1791  -25.0842  -47.3704 C.3       18 UNK        -0.1800 
    102 C         -1.0863  -25.1780  -48.7811 C.2       18 UNK         0.5000 
    103 O         -0.1324  -25.7167  -48.2211 O.2       18 UNK        -0.5000 
    104 N         -0.9714  -24.1384  -49.6181 N.am      19 UNK        -0.5000 
    105 CA         0.2850  -23.5433  -50.0819 C.3       19 UNK         0.1400 
    106 CB         0.0706  -22.0257  -50.2360 C.3       19 UNK        -0.1800 
    107 C          0.7854  -24.1780  -51.3993 C.2       19 UNK         0.5000 
    108 O          1.6149  -23.5741  -52.0784 O.2       19 UNK        -0.5000 
    109 N          0.2396  -25.3507  -51.7647 N.am      20 UNK        -0.5000 
    110 CA         0.4072  -26.0763  -53.0342 C.3       20 UNK         0.1400 
    111 CB         1.8854  -26.4286  -53.3023 C.3       20 UNK        -0.1800 
    112 C         -0.2708  -25.3791  -54.2359 C.2       20 UNK         0.5000 
    113 O         -0.0228  -25.7652  -55.3791 O.2       20 UNK        -0.5000 
    114 N         -1.1343  -24.3958  -53.9359 N.am      21 UNK        -0.5000 
    115 CA        -1.8642  -23.4853  -54.8235 C.3       21 UNK         0.1400 
    116 CB        -2.7331  -24.2524  -55.8396 C.3       21 UNK        -0.1800 
    117 C         -0.9541  -22.4498  -55.5139 C.2       21 UNK         0.5000 
    118 O          0.2398  -22.6813  -55.7150 O.2       21 UNK        -0.5000 
    119 N         -1.5497  -21.3044  -55.8609 N.am      22 UNK        -0.5000 
    120 CA        -0.8652  -20.1712  -56.5077 C.3       22 UNK         0.1400 
    121 C         -0.6636  -20.3301  -58.0447 C.2       22 UNK         0.5000 
    122 N         -1.2115  -21.3523  -58.6908 N.am      22 UNK        -0.7600 
    123 O          0.0122  -19.5126  -58.6635 O.2       22 UNK        -0.5000 
    124 C124       -1.5550  -18.8237  -56.1762 C.3       23 UNK        -0.0398 
    125 S125       -1.6289  -18.4780  -54.3838 S.3       23 UNK        -0.2404 
    126 C126       -0.1153  -17.4924  -54.1614 C.3       23 UNK        -0.0205 
    127 H127       -4.8928   -9.8875  -46.5727 H         1 UNK         0.0600 
    128 H128       -5.7115  -10.8382  -47.8159 H         1 UNK         0.0600 
    129 H129       -4.6979   -9.4680  -48.2781 H         1 UNK         0.0600 
    130 H130       -4.7146  -12.7974  -48.1547 H         1 UNK         0.3000 
    131 H131       -1.8555  -13.0333  -48.5837 H         1 UNK         0.0600 
    132 H132       -4.0850  -15.1214  -48.7019 H         1 UNK         0.0800 
    133 H133       -2.4415  -15.4347  -49.1489 H         1 UNK         0.0800 
    134 H134       -1.9948  -13.1734  -52.3998 H         1 UNK         0.0800 
    135 H135       -1.4136  -12.8767  -50.7922 H         1 UNK         0.0800 
    136 H136       -1.6292  -15.3371  -53.5307 H         1 UNK         0.1150 
    137 H137        1.3650  -17.9329  -51.8887 H         1 UNK         0.1150 
    138 H138       -0.0792  -14.6059  -49.6044 H         1 UNK         0.1150 
    139 H139        2.6740  -16.8419  -49.8753 H         1 UNK         0.0800 
    140 H140        1.7569  -15.8614  -48.7632 H         1 UNK         0.0800 
    141 H141       -0.8860  -16.9349  -48.4979 H         1 UNK         0.0800 
    142 H142       -0.2841  -17.2273  -46.8905 H         1 UNK         0.0800 
    143 H143       -1.3782  -19.4284  -48.7017 H         1 UNK         0.0600 
    144 H144       -0.1290  -19.5812  -46.1969 H         1 UNK         0.3000 
    145 H145       -1.2406  -22.9472  -45.4987 H         1 UNK         0.0600 
    146 H146        1.2418  -23.1683  -45.5920 H         1 UNK         0.0600 
    147 H147        0.5481  -23.0177  -47.1954 H         1 UNK         0.0600 
    148 H148        1.3602  -21.6390  -46.4618 H         1 UNK         0.0600 
    149 H149        0.1783  -20.5326  -44.4190 H         1 UNK         0.3000 
    150 H150       -1.5528  -20.7997  -41.3820 H         1 UNK         0.0600 
    151 H151        0.3264  -22.3814  -40.8515 H         1 UNK         0.0600 
    152 H152        0.6456  -20.7652  -40.2412 H         1 UNK         0.0600 
    153 H153        1.4511  -21.3287  -41.7046 H         1 UNK         0.0600 
    154 H154        0.4998  -19.0243  -41.9669 H         1 UNK         0.3000 
    155 H155       -1.0366  -16.8544  -44.3208 H         1 UNK         0.0600 
    156 H156       -0.5396  -16.6295  -41.3031 H         1 UNK         0.0600 
    157 H157       -0.4741  -15.2674  -42.4103 H         1 UNK         0.0600 
    158 H158       -1.9851  -16.1334  -42.1690 H         1 UNK         0.0600 
    159 H159        1.4018  -16.4742  -43.1345 H         1 UNK         0.3000 
    160 H160        3.5420  -18.5364  -45.1382 H         1 UNK         0.0600 
    161 H161        2.9537  -15.5377  -44.8594 H         1 UNK         0.0600 
    162 H162        2.9668  -16.4571  -46.3568 H         1 UNK         0.0600 
    163 H163        4.4547  -16.2468  -45.4473 H         1 UNK         0.0600 
    164 H164        3.7284  -16.7422  -42.8125 H         1 UNK         0.3000 
    165 H165        4.1645  -19.3491  -40.4712 H         1 UNK         0.0600 
    166 H166        6.3365  -18.2496  -39.9861 H         1 UNK         0.0600 
    167 H167        6.4684  -19.2328  -41.4352 H         1 UNK         0.0600 
    168 H168        6.3359  -17.4838  -41.5755 H         1 UNK         0.0600 
    169 H169        4.4638  -16.5112  -40.2852 H         1 UNK         0.3000 
    170 H170        1.0469  -15.6847  -39.8177 H         1 UNK         0.0600 
    171 H171        1.7885  -16.5657  -37.5988 H         1 UNK         0.0600 
    172 H172        3.3613  -15.8067  -37.8143 H         1 UNK         0.0600 
    173 H173        1.9088  -14.8156  -37.6728 H         1 UNK         0.0600 
    174 H174        3.3028  -14.0404  -39.6072 H         1 UNK         0.3000 
    175 H175        3.4132  -12.3388  -41.2275 H         1 UNK         0.0600 
    176 H176        5.0765  -14.1723  -43.0707 H         1 UNK         0.0600 
    177 H177        5.4928  -12.5129  -42.6477 H         1 UNK         0.0600 
    178 H178        5.4874  -13.7583  -41.4092 H         1 UNK         0.0600 
    179 H179        2.2822  -13.3704  -43.6731 H         1 UNK         0.3000 
    180 H180        1.3793  -10.1695  -44.7714 H         1 UNK         0.0600 
    181 H181        3.1353  -12.1237  -46.3539 H         1 UNK         0.0600 
    182 H182        3.4728  -10.4134  -46.1162 H         1 UNK         0.0600 
    183 H183        2.0625  -10.9026  -47.0411 H         1 UNK         0.0600 
    184 H184        0.7918  -12.7352  -45.8406 H         1 UNK         0.3000 
    185 H185       -0.7969  -14.3053  -44.5239 H         1 UNK         0.0600 
    186 H186       -2.2047  -13.5264  -42.5656 H         1 UNK         0.0600 
    187 H187       -3.1144  -12.4847  -43.6519 H         1 UNK         0.0600 
    188 H188       -3.1808  -14.2363  -43.8406 H         1 UNK         0.0600 
    189 H189       -1.7812  -12.1401  -46.2305 H         1 UNK         0.3000 
    190 H190       -2.8315  -18.7964  -45.5351 H         1 UNK         0.3000 
    191 H191       -5.0903  -17.3242  -46.5846 H         1 UNK         0.0600 
    192 H192       -4.8260  -18.9046  -43.9777 H         1 UNK         0.0600 
    193 H193       -6.0525  -17.7026  -44.3517 H         1 UNK         0.0600 
    194 H194       -4.3736  -17.2108  -44.1902 H         1 UNK         0.0600 
    195 H195       -4.1773  -20.6324  -46.7984 H         1 UNK         0.3000 
    196 H196       -6.9143  -21.4715  -47.6373 H         1 UNK         0.0600 
    197 H197       -6.2828  -23.7490  -46.7625 H         1 UNK         0.0600 
    198 H198       -6.3971  -22.5468  -45.4907 H         1 UNK         0.0600 
    199 H199       -4.8178  -23.0574  -46.0676 H         1 UNK         0.0600 
    200 H200       -4.6282  -20.2160  -49.1409 H         1 UNK         0.3000 
    201 H201       -3.3588  -22.1547  -50.7706 H         1 UNK         0.0600 
    202 H202       -2.5598  -19.8330  -50.6609 H         1 UNK         0.0600 
    203 H203       -4.0650  -19.2311  -51.3522 H         1 UNK         0.0600 
    204 H204       -2.9745  -20.2187  -52.3186 H         1 UNK         0.0600 
    205 H205       -6.5861  -20.7424  -50.9642 H         1 UNK         0.3000 
    206 H206       -7.3127  -21.6918  -53.5675 H         1 UNK         0.0600 
    207 H207       -8.5296  -19.8666  -52.4010 H         1 UNK         0.0600 
    208 H208       -9.6278  -21.1857  -52.7718 H         1 UNK         0.0600 
    209 H209       -9.0331  -20.9804  -51.1286 H         1 UNK         0.0600 
    210 H210       -7.0252  -23.3021  -50.4739 H         1 UNK         0.3000 
    211 H211       -8.4709  -25.7341  -51.3875 H         1 UNK         0.0600 
    212 H212       -7.2747  -25.0300  -48.6548 H         1 UNK         0.0600 
    213 H213       -8.2580  -26.4345  -49.0381 H         1 UNK         0.0600 
    214 H214       -8.9709  -24.8313  -49.0926 H         1 UNK         0.0600 
    215 H215       -5.5785  -24.4202  -51.9710 H         1 UNK         0.3000 
    216 H216       -3.6026  -25.0352  -52.6299 H         1 UNK         0.0600 
    217 H217       -3.2049  -27.2524  -53.5729 H         1 UNK         0.0600 
    218 H218       -4.8382  -26.7513  -53.9723 H         1 UNK         0.0600 
    219 H219       -4.5653  -27.9353  -52.6938 H         1 UNK         0.0600 
    220 H220       -4.1450  -24.9298  -49.6824 H         1 UNK         0.3000 
    221 H221       -2.4200  -26.8089  -48.3837 H         1 UNK         0.0600 
    222 H222       -3.2506  -24.0060  -47.4995 H         1 UNK         0.0600 
    223 H223       -4.1848  -25.4737  -47.2118 H         1 UNK         0.0600 
    224 H224       -2.6075  -25.2671  -46.4597 H         1 UNK         0.0600 
    225 H225       -1.8209  -23.7582  -50.0058 H         1 UNK         0.3000 
    226 H226        1.0685  -23.7044  -49.3397 H         1 UNK         0.0600 
    227 H227       -0.2840  -21.5813  -49.3075 H         1 UNK         0.0600 
    228 H228        1.0008  -21.5183  -50.4949 H         1 UNK         0.0600 
    229 H229       -0.6564  -21.7963  -51.0157 H         1 UNK         0.0600 
    230 H230       -0.4263  -25.7786  -51.1321 H         1 UNK         0.3000 
    231 H231       -0.1265  -27.0188  -52.9047 H         1 UNK         0.0600 
    232 H232        1.9731  -27.1310  -54.1319 H         1 UNK         0.0600 
    233 H233        2.3445  -26.8976  -52.4321 H         1 UNK         0.0600 
    234 H234        2.4742  -25.5488  -53.5624 H         1 UNK         0.0600 
    235 H235       -1.1987  -24.1660  -52.9571 H         1 UNK         0.3000 
    236 H236       -2.5367  -22.9291  -54.1694 H         1 UNK         0.0600 
    237 H237       -2.1303  -24.7709  -56.5854 H         1 UNK         0.0600 
    238 H238       -3.3628  -24.9902  -55.3431 H         1 UNK         0.0600 
    239 H239       -3.3958  -23.5727  -56.3760 H         1 UNK         0.0600 
    240 H240       -2.5321  -21.1750  -55.6675 H         1 UNK         0.3000 
    241 H241        0.1438  -20.1154  -56.0942 H         1 UNK         0.0600 
    242 H242       -1.0684  -21.4455  -59.6845 H         1 UNK         0.3800 
    243 H243       -1.7612  -22.0366  -58.1973 H         1 UNK         0.3800 
    244 H244       -1.0499  -17.9949  -56.6750 H         1 UNK         0.0800 
    245 H245       -2.5758  -18.8217  -56.5615 H         1 UNK         0.0800 
    246 H246        0.7522  -18.1520  -54.2132 H         1 UNK         0.0800 
    247 H247       -0.0116  -16.7800  -54.9810 H         1 UNK         0.0800 
@<TRIPOS>BOND
     1    1    2 1    
     2    1  127 1    
     3    1  128 1    
     4    1  129 1    
     5    2    3 2    
     6    2    4 am   BACKBONE|DICT|INTERRES
     7    4    5 1    
     8    4  130 1    
     9    5    6 1    
    10    5   65 1    
    11    5  131 1    
    12    6    7 1    
    13    6  132 1    
    14    6  133 1    
    15    7    8 1    
    16    8    9 1    
    17    8  134 1    
    18    8  135 1    
    19    9   10 ar   
    20    9   14 ar   
    21   10   11 ar   
    22   10  136 1    
    23   11   12 ar   
    24   11  126 1    
    25   12   13 ar   
    26   12  137 1    
    27   13   14 ar   
    28   13   15 1    
    29   14  138 1    
    30   15   16 1    
    31   15  139 1    
    32   15  140 1    
    33   16   17 1    
    34   17   18 1    
    35   17  141 1    
    36   17  142 1    
    37   18   19 1    
    38   18   67 1    
    39   18  143 1    
    40   19   20 am   BACKBONE|DICT|INTERRES
    41   19  144 1    
    42   20   21 2    
    43   20   22 1    
    44   22   23 1    
    45   22   24 1    
    46   22  145 1    
    47   23  146 1    
    48   23  147 1    
    49   23  148 1    
    50   24   25 am   BACKBONE|DICT|INTERRES
    51   24  149 1    
    52   25   26 2    
    53   25   27 1    
    54   27   28 1    
    55   27   29 1    
    56   27  150 1    
    57   28  151 1    
    58   28  152 1    
    59   28  153 1    
    60   29   30 am   BACKBONE|DICT|INTERRES
    61   29  154 1    
    62   30   31 2    
    63   30   32 1    
    64   32   33 1    
    65   32   34 1    
    66   32  155 1    
    67   33  156 1    
    68   33  157 1    
    69   33  158 1    
    70   34   35 am   BACKBONE|DICT|INTERRES
    71   34  159 1    
    72   35   36 2    
    73   35   37 1    
    74   37   38 1    
    75   37   39 1    
    76   37  160 1    
    77   38  161 1    
    78   38  162 1    
    79   38  163 1    
    80   39   40 am   BACKBONE|DICT|INTERRES
    81   39  164 1    
    82   40   41 2    
    83   40   42 1    
    84   42   43 1    
    85   42   44 1    
    86   42  165 1    
    87   43  166 1    
    88   43  167 1    
    89   43  168 1    
    90   44   45 am   BACKBONE|DICT|INTERRES
    91   44  169 1    
    92   45   46 2    
    93   45   47 1    
    94   47   48 1    
    95   47   49 1    
    96   47  170 1    
    97   48  171 1    
    98   48  172 1    
    99   48  173 1    
   100   49   50 am   BACKBONE|DICT|INTERRES
   101   49  174 1    
   102   50   51 2    
   103   50   52 1    
   104   52   53 1    
   105   52   54 1    
   106   52  175 1    
   107   53  176 1    
   108   53  177 1    
   109   53  178 1    
   110   54   55 am   BACKBONE|DICT|INTERRES
   111   54  179 1    
   112   55   56 2    
   113   55   57 1    
   114   57   58 1    
   115   57   59 1    
   116   57  180 1    
   117   58  181 1    
   118   58  182 1    
   119   58  183 1    
   120   59   60 am   BACKBONE|DICT|INTERRES
   121   59  184 1    
   122   60   61 2    
   123   60   62 1    
   124   62   63 1    
   125   62   64 1    
   126   62  185 1    
   127   63  186 1    
   128   63  187 1    
   129   63  188 1    
   130   64   65 am   BACKBONE|DICT|INTERRES
   131   64  189 1    
   132   65   66 2    
   133   67   68 2    
   134   67   69 am   BACKBONE|DICT|INTERRES
   135   69   70 1    
   136   69  190 1    
   137   70   71 1    
   138   70   72 1    
   139   70  191 1    
   140   71  192 1    
   141   71  193 1    
   142   71  194 1    
   143   72   73 2    
   144   72   74 am   BACKBONE|DICT|INTERRES
   145   74   75 1    
   146   74  195 1    
   147   75   76 1    
   148   75   77 1    
   149   75  196 1    
   150   76  197 1    
   151   76  198 1    
   152   76  199 1    
   153   77   78 2    
   154   77   79 am   BACKBONE|DICT|INTERRES
   155   79   80 1    
   156   79  200 1    
   157   80   81 1    
   158   80   82 1    
   159   80  201 1    
   160   81  202 1    
   161   81  203 1    
   162   81  204 1    
   163   82   83 2    
   164   82   84 am   BACKBONE|DICT|INTERRES
   165   84   85 1    
   166   84  205 1    
   167   85   86 1    
   168   85   87 1    
   169   85  206 1    
   170   86  207 1    
   171   86  208 1    
   172   86  209 1    
   173   87   88 2    
   174   87   89 am   BACKBONE|DICT|INTERRES
   175   89   90 1    
   176   89  210 1    
   177   90   91 1    
   178   90   92 1    
   179   90  211 1    
   180   91  212 1    
   181   91  213 1    
   182   91  214 1    
   183   92   93 2    
   184   92   94 am   BACKBONE|DICT|INTERRES
   185   94   95 1    
   186   94  215 1    
   187   95   96 1    
   188   95   97 1    
   189   95  216 1    
   190   96  217 1    
   191   96  218 1    
   192   96  219 1    
   193   97   98 2    
   194   97   99 am   BACKBONE|DICT|INTERRES
   195   99  100 1    
   196   99  220 1    
   197  100  101 1    
   198  100  102 1    
   199  100  221 1    
   200  101  222 1    
   201  101  223 1    
   202  101  224 1    
   203  102  103 2    
   204  102  104 am   BACKBONE|DICT|INTERRES
   205  104  105 1    
   206  104  225 1    
   207  105  106 1    
   208  105  107 1    
   209  105  226 1    
   210  106  227 1    
   211  106  228 1    
   212  106  229 1    
   213  107  108 2    
   214  107  109 am   BACKBONE|DICT|INTERRES
   215  109  110 1    
   216  109  230 1    
   217  110  111 1    
   218  110  112 1    
   219  110  231 1    
   220  111  232 1    
   221  111  233 1    
   222  111  234 1    
   223  112  113 2    
   224  112  114 am   BACKBONE|DICT|INTERRES
   225  114  115 1    
   226  114  235 1    
   227  115  116 1    
   228  115  117 1    
   229  115  236 1    
   230  116  237 1    
   231  116  238 1    
   232  116  239 1    
   233  117  118 2    
   234  117  119 am   BACKBONE|DICT|INTERRES
   235  119  120 1    
   236  119  240 1    
   237  120  121 1    
   238  120  124 1    
   239  120  241 1    
   240  121  122 am   BACKBONE|DICT|INTERRES
   241  121  123 2    
   242  122  242 1    
   243  122  243 1    
   244  124  125 1    
   245  124  244 1    
   246  124  245 1    
   247  125  126 1    
   248  126  246 1    
   249  126  247 1    
@<TRIPOS>SUBSTRUCTURE
     1 UNK         1 GROUP             0       ****    0 ROOT    
