@<TRIPOS>MOLECULE
3R540
247   249    1
SMALL
USER_CHARGES


@<TRIPOS>ATOM
      1 CA         -0.9762  -16.1582  -48.0319 C.3       0 UNK        -0.1800 
      2 C           0.0821  -15.1440  -48.4413 C.2       0 UNK         0.5000 
      3 O           1.0577  -14.9385  -47.7193 O.2       0 UNK        -0.5000 
      4 N          -0.1202  -14.4998  -49.5980 N.am      1 UNK        -0.5000 
      5 CA          0.7330  -13.4424  -50.1579 C.3       1 UNK         0.1400 
      6 C6          2.1193  -13.9639  -50.6397 C.3       23 UNK        -0.0398 
      7 S7          1.9731  -15.0459  -52.1048 S.3       23 UNK        -0.2404 
      8 C8          2.9707  -16.5034  -51.6591 C.3       23 UNK        -0.0205 
      9 C9          2.1030  -17.6760  -51.2273 C.ar      23 UNK        -0.0193 
     10 C10         1.6034  -18.5699  -52.1813 C.ar      23 UNK        -0.1150 
     11 C11         0.8159  -19.6588  -51.7928 C.ar      23 UNK        -0.0193 
     12 C12         0.5270  -19.8441  -50.4392 C.ar      23 UNK        -0.1150 
     13 C13         1.0413  -18.9756  -49.4748 C.ar      23 UNK        -0.0193 
     14 C14         1.8258  -17.8895  -49.8745 C.ar      23 UNK        -0.1150 
     15 C15         0.7531  -19.2172  -48.0032 C.3       23 UNK        -0.0205 
     16 S16         1.6409  -20.6780  -47.3712 S.3       23 UNK        -0.2404 
     17 C17         0.3174  -21.9347  -47.3508 C.3       23 UNK        -0.0398 
     18 CA          0.6353  -23.1368  -46.4280 C.3       11 UNK         0.1400 
     19 N           0.8991  -22.7537  -45.0319 N.am      11 UNK        -0.5000 
     20 C           1.2930  -23.5953  -44.0610 C.2       10 UNK         0.5000 
     21 O           1.4731  -24.8016  -44.2340 O.2       10 UNK        -0.5000 
     22 CA          1.4862  -23.0035  -42.6550 C.3       10 UNK         0.1400 
     23 CB          2.8568  -22.3192  -42.5321 C.3       10 UNK        -0.1800 
     24 N           0.4275  -22.0471  -42.3362 N.am      10 UNK        -0.5000 
     25 C          -0.7339  -22.3667  -41.7483 C.2       9 UNK         0.5000 
     26 O          -1.0010  -23.4965  -41.3379 O.2       9 UNK        -0.5000 
     27 CA         -1.7856  -21.2462  -41.5957 C.3       9 UNK         0.1400 
     28 CB         -1.6569  -20.5754  -40.2199 C.3       9 UNK        -0.1800 
     29 N          -1.7152  -20.2134  -42.6303 N.am      9 UNK        -0.5000 
     30 C          -1.8944  -20.4249  -43.9415 C.2       8 UNK         0.5000 
     31 O          -2.1841  -21.5163  -44.4300 O.2       8 UNK        -0.5000 
     32 CA         -1.6307  -19.2302  -44.8750 C.3       8 UNK         0.1400 
     33 CB         -2.9047  -18.3957  -45.0511 C.3       8 UNK        -0.1800 
     34 N          -0.5201  -18.3694  -44.4510 N.am      8 UNK        -0.5000 
     35 C           0.7295  -18.7935  -44.2022 C.2       7 UNK         0.5000 
     36 O           1.0657  -19.9752  -44.2392 O.2       7 UNK        -0.5000 
     37 CA          1.7744  -17.7420  -43.8152 C.3       7 UNK         0.1400 
     38 CB          2.3416  -17.0541  -45.0607 C.3       7 UNK        -0.1800 
     39 N           1.2122  -16.7508  -42.9021 N.am      7 UNK        -0.5000 
     40 C           1.2457  -16.8696  -41.5678 C.2       6 UNK         0.5000 
     41 O           1.8273  -17.7781  -40.9736 O.2       6 UNK        -0.5000 
     42 CA          0.4865  -15.8071  -40.7526 C.3       6 UNK         0.1400 
     43 CB          1.4068  -14.6223  -40.4230 C.3       6 UNK        -0.1800 
     44 N          -0.7159  -15.3141  -41.4244 N.am      6 UNK        -0.5000 
     45 C          -1.8005  -16.0567  -41.6902 C.2       5 UNK         0.5000 
     46 O          -1.9047  -17.2509  -41.4054 O.2       5 UNK        -0.5000 
     47 CA         -2.9540  -15.3523  -42.4297 C.3       5 UNK         0.1400 
     48 CB         -3.9194  -14.7121  -41.4211 C.3       5 UNK        -0.1800 
     49 N          -2.5317  -14.3352  -43.3971 N.am      5 UNK        -0.5000 
     50 C          -1.6714  -14.5084  -44.4109 C.2       4 UNK         0.5000 
     51 O          -1.0662  -15.5623  -44.6200 O.2       4 UNK        -0.5000 
     52 CA         -1.4332  -13.3053  -45.3482 C.3       4 UNK         0.1400 
     53 CB         -2.2224  -12.0319  -44.9698 C.3       4 UNK        -0.1800 
     54 N          -0.0115  -12.9914  -45.4876 N.am      4 UNK        -0.5000 
     55 C           0.8577  -12.6963  -44.5101 C.2       3 UNK         0.5000 
     56 O           0.5672  -12.6741  -43.3130 O.2       3 UNK        -0.5000 
     57 CA          2.2967  -12.3535  -44.9422 C.3       3 UNK         0.1400 
     58 CB          3.2164  -13.5701  -44.7867 C.3       3 UNK        -0.1800 
     59 N           2.3815  -11.8800  -46.3249 N.am      3 UNK        -0.5000 
     60 C           2.0469  -10.6477  -46.7300 C.2       2 UNK         0.5000 
     61 O           1.6792   -9.7536  -45.9671 O.2       2 UNK        -0.5000 
     62 CA          2.1339  -10.3650  -48.2433 C.3       2 UNK         0.1400 
     63 CB          3.4846   -9.7206  -48.5915 C.3       2 UNK        -0.1800 
     64 N           1.9439  -11.5549  -49.0803 N.am      2 UNK        -0.5000 
     65 C           0.7858  -12.2199  -49.2040 C.2       1 UNK         0.5000 
     66 O          -0.2387  -11.8898  -48.6012 O.2       1 UNK        -0.5000 
     67 C          -0.4801  -24.1951  -46.5487 C.2       11 UNK         0.5000 
     68 O          -0.3795  -25.0687  -47.4108 O.2       11 UNK        -0.5000 
     69 N          -1.4752  -24.1294  -45.6475 N.am      12 UNK        -0.5000 
     70 CA         -2.6288  -25.0283  -45.5089 C.3       12 UNK         0.1400 
     71 CB         -3.3864  -24.6581  -44.2236 C.3       12 UNK        -0.1800 
     72 C          -2.3106  -26.5384  -45.5080 C.2       12 UNK         0.5000 
     73 O          -3.1818  -27.3397  -45.8483 O.2       12 UNK        -0.5000 
     74 N          -1.0791  -26.9043  -45.1297 N.am      13 UNK        -0.5000 
     75 CA         -0.5721  -28.2736  -45.1479 C.3       13 UNK         0.1400 
     76 CB          0.7133  -28.3277  -44.3076 C.3       13 UNK        -0.1800 
     77 C          -0.3098  -28.8305  -46.5639 C.2       13 UNK         0.5000 
     78 O          -0.2381  -30.0524  -46.7065 O.2       13 UNK        -0.5000 
     79 N          -0.1442  -27.9577  -47.5700 N.am      14 UNK        -0.5000 
     80 CA          0.2598  -28.3391  -48.9275 C.3       14 UNK         0.1400 
     81 CB          1.7567  -28.0311  -49.1004 C.3       14 UNK        -0.1800 
     82 C          -0.5563  -27.6615  -50.0432 C.2       14 UNK         0.5000 
     83 O          -0.6436  -28.2246  -51.1357 O.2       14 UNK        -0.5000 
     84 N          -1.1210  -26.4778  -49.7853 N.am      15 UNK        -0.5000 
     85 CA         -1.8282  -25.6518  -50.7634 C.3       15 UNK         0.1400 
     86 CB         -0.8010  -24.7528  -51.4815 C.3       15 UNK        -0.1800 
     87 C          -2.9014  -24.8121  -50.0543 C.2       15 UNK         0.5000 
     88 O          -3.0173  -24.8698  -48.8300 O.2       15 UNK        -0.5000 
     89 N          -3.6557  -24.0195  -50.8231 N.am      16 UNK        -0.5000 
     90 CA         -4.4424  -22.9086  -50.2816 C.3       16 UNK         0.1400 
     91 CB         -5.6962  -22.6962  -51.1474 C.3       16 UNK        -0.1800 
     92 C          -3.5700  -21.6378  -50.2291 C.2       16 UNK         0.5000 
     93 O          -2.4115  -21.6602  -50.6515 O.2       16 UNK        -0.5000 
     94 N          -4.1443  -20.5363  -49.7355 N.am      17 UNK        -0.5000 
     95 CA         -3.5341  -19.2088  -49.8031 C.3       17 UNK         0.1400 
     96 CB         -4.2646  -18.2813  -48.8198 C.3       17 UNK        -0.1800 
     97 C          -3.6100  -18.6327  -51.2296 C.2       17 UNK         0.5000 
     98 O          -4.4824  -19.0236  -52.0109 O.2       17 UNK        -0.5000 
     99 N          -2.7455  -17.6537  -51.5250 N.am      18 UNK        -0.5000 
    100 CA        -2.7074  -16.9304  -52.8023 C.3       18 UNK         0.1400 
    101 CB        -1.4933  -15.9941  -52.8148 C.3       18 UNK        -0.1800 
    102 C         -4.0009  -16.1542  -53.1241 C.2       18 UNK         0.5000 
    103 O         -4.3149  -15.9618  -54.2983 O.2       18 UNK        -0.5000 
    104 N         -4.7646  -15.7860  -52.0848 N.am      19 UNK        -0.5000 
    105 CA        -6.1080  -15.2072  -52.1835 C.3       19 UNK         0.1400 
    106 CB        -6.5537  -14.7536  -50.7849 C.3       19 UNK        -0.1800 
    107 C         -7.1515  -16.1681  -52.7956 C.2       19 UNK         0.5000 
    108 O         -8.1432  -15.7033  -53.3578 O.2       19 UNK        -0.5000 
    109 N         -6.8964  -17.4800  -52.6997 N.am      20 UNK        -0.5000 
    110 CA        -7.6741  -18.5561  -53.3149 C.3       20 UNK         0.1400 
    111 CB        -7.9446  -19.6289  -52.2455 C.3       20 UNK        -0.1800 
    112 C         -6.9376  -19.1449  -54.5381 C.2       20 UNK         0.5000 
    113 O         -7.2279  -20.2729  -54.9410 O.2       20 UNK        -0.5000 
    114 N         -5.9724  -18.3900  -55.0894 N.am      21 UNK        -0.5000 
    115 CA        -5.0973  -18.7337  -56.2169 C.3       21 UNK         0.1400 
    116 CB        -5.9119  -18.8479  -57.5223 C.3       21 UNK        -0.1800 
    117 C         -4.2080  -19.9692  -55.9567 C.2       21 UNK         0.5000 
    118 O         -3.8029  -20.6411  -56.9065 O.2       21 UNK        -0.5000 
    119 N         -3.9302  -20.2492  -54.6759 N.am      22 UNK        -0.5000 
    120 CA        -3.1624  -21.3987  -54.1696 C.3       22 UNK         0.1400 
    121 C         -3.8624  -22.7827  -54.3242 C.2       22 UNK         0.5000 
    122 N         -5.1063  -22.8587  -54.7826 N.am      22 UNK        -0.7600 
    123 O         -3.2967  -23.8051  -53.9472 O.2       22 UNK        -0.5000 
    124 C124       -1.6820  -21.4097  -54.6425 C.3       23 UNK        -0.0398 
    125 S125       -0.7838  -19.9304  -54.0571 S.3       23 UNK        -0.2404 
    126 C126        0.3179  -20.6716  -52.8143 C.3       23 UNK        -0.0205 
    127 H127       -0.6942  -16.6530  -47.1029 H         1 UNK         0.0600 
    128 H128       -1.0958  -16.9196  -48.8014 H         1 UNK         0.0600 
    129 H129       -1.9359  -15.6669  -47.8738 H         1 UNK         0.0600 
    130 H130       -0.9620  -14.6846  -50.1207 H         1 UNK         0.3000 
    131 H131        0.2041  -13.0727  -51.0378 H         1 UNK         0.0600 
    132 H132        2.7658  -13.1439  -50.9533 H         1 UNK         0.0800 
    133 H133        2.6430  -14.4776  -49.8328 H         1 UNK         0.0800 
    134 H134        3.5608  -16.7944  -52.5294 H         1 UNK         0.0800 
    135 H135        3.6946  -16.2538  -50.8824 H         1 UNK         0.0800 
    136 H136        1.8301  -18.4217  -53.2278 H         1 UNK         0.1150 
    137 H137       -0.0748  -20.6856  -50.1293 H         1 UNK         0.1150 
    138 H138        2.2256  -17.2114  -49.1334 H         1 UNK         0.1150 
    139 H139        1.0523  -18.3505  -47.4144 H         1 UNK         0.0800 
    140 H140       -0.3221  -19.3209  -47.8635 H         1 UNK         0.0800 
    141 H141       -0.6202  -21.4704  -47.0444 H         1 UNK         0.0800 
    142 H142        0.1682  -22.2759  -48.3770 H         1 UNK         0.0800 
    143 H143        1.5500  -23.6037  -46.7996 H         1 UNK         0.0600 
    144 H144        0.8349  -21.7622  -44.8163 H         1 UNK         0.3000 
    145 H145        1.4631  -23.8270  -41.9381 H         1 UNK         0.0600 
    146 H146        3.0050  -21.9125  -41.5316 H         1 UNK         0.0600 
    147 H147        2.9729  -21.5029  -43.2452 H         1 UNK         0.0600 
    148 H148        3.6627  -23.0303  -42.7172 H         1 UNK         0.0600 
    149 H149        0.5478  -21.1122  -42.7105 H         1 UNK         0.3000 
    150 H150       -2.7708  -21.7125  -41.6603 H         1 UNK         0.0600 
    151 H151       -1.7229  -21.3103  -39.4165 H         1 UNK         0.0600 
    152 H152       -2.4526  -19.8473  -40.0604 H         1 UNK         0.0600 
    153 H153       -0.7033  -20.0558  -40.1152 H         1 UNK         0.0600 
    154 H154       -1.4998  -19.2735  -42.3187 H         1 UNK         0.3000 
    155 H155       -1.3647  -19.6365  -45.8491 H         1 UNK         0.0600 
    156 H156       -3.7132  -19.0046  -45.4567 H         1 UNK         0.0600 
    157 H157       -2.7479  -17.5610  -45.7344 H         1 UNK         0.0600 
    158 H158       -3.2492  -17.9986  -44.0985 H         1 UNK         0.0600 
    159 H159       -0.7117  -17.3708  -44.4182 H         1 UNK         0.3000 
    160 H160        2.6015  -18.2672  -43.3323 H         1 UNK         0.0600 
    161 H161        1.6017  -16.4156  -45.5443 H         1 UNK         0.0600 
    162 H162        2.6827  -17.7863  -45.7933 H         1 UNK         0.0600 
    163 H163        3.2065  -16.4476  -44.7982 H         1 UNK         0.0600 
    164 H164        0.6590  -16.0098  -43.3144 H         1 UNK         0.3000 
    165 H165        0.1770  -16.2704  -39.8134 H         1 UNK         0.0600 
    166 H166        0.8965  -13.8849  -39.8034 H         1 UNK         0.0600 
    167 H167        2.2881  -14.9549  -39.8730 H         1 UNK         0.0600 
    168 H168        1.7554  -14.1197  -41.3258 H         1 UNK         0.0600 
    169 H169       -0.7001  -14.3525  -41.7366 H         1 UNK         0.3000 
    170 H170       -3.5078  -16.1112  -42.9805 H         1 UNK         0.0600 
    171 H171       -3.4416  -13.9063  -40.8624 H         1 UNK         0.0600 
    172 H172       -4.7974  -14.3012  -41.9198 H         1 UNK         0.0600 
    173 H173       -4.2739  -15.4479  -40.6978 H         1 UNK         0.0600 
    174 H174       -2.9573  -13.4256  -43.2945 H         1 UNK         0.3000 
    175 H175       -1.7735  -13.6199  -46.3351 H         1 UNK         0.0600 
    176 H176       -1.9461  -11.6530  -43.9851 H         1 UNK         0.0600 
    177 H177       -2.0350  -11.2353  -45.6905 H         1 UNK         0.0600 
    178 H178       -3.2977  -12.2141  -44.9729 H         1 UNK         0.0600 
    179 H179        0.3478  -13.0352  -46.4320 H         1 UNK         0.3000 
    180 H180        2.6573  -11.5681  -44.2744 H         1 UNK         0.0600 
    181 H181        4.2635  -13.2869  -44.8943 H         1 UNK         0.0600 
    182 H182        2.9958  -14.3204  -45.5450 H         1 UNK         0.0600 
    183 H183        3.1025  -14.0360  -43.8066 H         1 UNK         0.0600 
    184 H184        2.6585  -12.5579  -47.0201 H         1 UNK         0.3000 
    185 H185        1.3445   -9.6508  -48.4872 H         1 UNK         0.0600 
    186 H186        3.5279   -9.4372  -49.6434 H         1 UNK         0.0600 
    187 H187        3.6478   -8.8147  -48.0061 H         1 UNK         0.0600 
    188 H188        4.3171  -10.3958  -48.3897 H         1 UNK         0.0600 
    189 H189        2.7512  -11.8648  -49.6005 H         1 UNK         0.3000 
    190 H190       -1.4780  -23.3319  -45.0198 H         1 UNK         0.3000 
    191 H191       -3.2959  -24.8382  -46.3482 H         1 UNK         0.0600 
    192 H192       -3.7773  -23.6421  -44.2735 H         1 UNK         0.0600 
    193 H193       -2.7436  -24.7286  -43.3452 H         1 UNK         0.0600 
    194 H194       -4.2386  -25.3196  -44.0623 H         1 UNK         0.0600 
    195 H195       -0.4192  -26.1813  -44.8736 H         1 UNK         0.3000 
    196 H196       -1.3151  -28.9191  -44.6748 H         1 UNK         0.0600 
    197 H197        0.5300  -28.0020  -43.2834 H         1 UNK         0.0600 
    198 H198        1.4931  -27.6904  -44.7270 H         1 UNK         0.0600 
    199 H199        1.1087  -29.3431  -44.2594 H         1 UNK         0.0600 
    200 H200       -0.2296  -26.9628  -47.3803 H         1 UNK         0.3000 
    201 H201        0.1209  -29.4124  -49.0722 H         1 UNK         0.0600 
    202 H202        2.3595  -28.5924  -48.3862 H         1 UNK         0.0600 
    203 H203        1.9652  -26.9703  -48.9549 H         1 UNK         0.0600 
    204 H204        2.1017  -28.3014  -50.0993 H         1 UNK         0.0600 
    205 H205       -1.0406  -26.0543  -48.8635 H         1 UNK         0.3000 
    206 H206       -2.3362  -26.2857  -51.4932 H         1 UNK         0.0600 
    207 H207       -0.2928  -24.0908  -50.7788 H         1 UNK         0.0600 
    208 H208       -0.0419  -25.3465  -51.9907 H         1 UNK         0.0600 
    209 H209       -1.2734  -24.1236  -52.2353 H         1 UNK         0.0600 
    210 H210       -3.4813  -23.9990  -51.8217 H         1 UNK         0.3000 
    211 H211       -4.7703  -23.1406  -49.2662 H         1 UNK         0.0600 
    212 H212       -5.4711  -22.1721  -52.0748 H         1 UNK         0.0600 
    213 H213       -6.4352  -22.0978  -50.6144 H         1 UNK         0.0600 
    214 H214       -6.1743  -23.6425  -51.4009 H         1 UNK         0.0600 
    215 H215       -5.1081  -20.5734  -49.4393 H         1 UNK         0.3000 
    216 H216       -2.4852  -19.2824  -49.5074 H         1 UNK         0.0600 
    217 H217       -3.8080  -17.2915  -48.7937 H         1 UNK         0.0600 
    218 H218       -4.2295  -18.6788  -47.8062 H         1 UNK         0.0600 
    219 H219       -5.3135  -18.1518  -49.0909 H         1 UNK         0.0600 
    220 H220       -2.0395  -17.4024  -50.8507 H         1 UNK         0.3000 
    221 H221       -2.5762  -17.6672  -53.5961 H         1 UNK         0.0600 
    222 H222       -1.5655  -15.2261  -52.0453 H         1 UNK         0.0600 
    223 H223       -0.5711  -16.5520  -52.6536 H         1 UNK         0.0600 
    224 H224       -1.3995  -15.4876  -53.7762 H         1 UNK         0.0600 
    225 H225       -4.4273  -15.9804  -51.1545 H         1 UNK         0.3000 
    226 H226       -6.0505  -14.3288  -52.8297 H         1 UNK         0.0600 
    227 H227       -5.8659  -14.0161  -50.3708 H         1 UNK         0.0600 
    228 H228       -7.5409  -14.2909  -50.8201 H         1 UNK         0.0600 
    229 H229       -6.6086  -15.5916  -50.0886 H         1 UNK         0.0600 
    230 H230       -6.0361  -17.7811  -52.2541 H         1 UNK         0.3000 
    231 H231       -8.6348  -18.1792  -53.6704 H         1 UNK         0.0600 
    232 H232       -8.5660  -20.4341  -52.6390 H         1 UNK         0.0600 
    233 H233       -8.4682  -19.2064  -51.3879 H         1 UNK         0.0600 
    234 H234       -7.0172  -20.0736  -51.8850 H         1 UNK         0.0600 
    235 H235       -5.7875  -17.4843  -54.6755 H         1 UNK         0.3000 
    236 H236       -4.4109  -17.8939  -56.3324 H         1 UNK         0.0600 
    237 H237       -6.5737  -19.7143  -57.5129 H         1 UNK         0.0600 
    238 H238       -6.5231  -17.9601  -57.6844 H         1 UNK         0.0600 
    239 H239       -5.2550  -18.9487  -58.3870 H         1 UNK         0.0600 
    240 H240       -4.3205  -19.6556  -53.9526 H         1 UNK         0.3000 
    241 H241       -3.1418  -21.2467  -53.0933 H         1 UNK         0.0600 
    242 H242       -5.6146  -22.0246  -55.0421 H         1 UNK         0.3800 
    243 H243       -5.5524  -23.7589  -54.8554 H         1 UNK         0.3800 
    244 H244       -1.6187  -21.4525  -55.7299 H         1 UNK         0.0800 
    245 H245       -1.1659  -22.3019  -54.2851 H         1 UNK         0.0800 
    246 H246       -0.2096  -21.4808  -52.3064 H         1 UNK         0.0800 
    247 H247        1.1717  -21.1274  -53.3172 H         1 UNK         0.0800 
@<TRIPOS>BOND
     1    1    2 1    
     2    1  127 1    
     3    1  128 1    
     4    1  129 1    
     5    2    3 2    
     6    2    4 am   BACKBONE|DICT|INTERRES
     7    4    5 1    
     8    4  130 1    
     9    5    6 1    
    10    5   65 1    
    11    5  131 1    
    12    6    7 1    
    13    6  132 1    
    14    6  133 1    
    15    7    8 1    
    16    8    9 1    
    17    8  134 1    
    18    8  135 1    
    19    9   10 ar   
    20    9   14 ar   
    21   10   11 ar   
    22   10  136 1    
    23   11   12 ar   
    24   11  126 1    
    25   12   13 ar   
    26   12  137 1    
    27   13   14 ar   
    28   13   15 1    
    29   14  138 1    
    30   15   16 1    
    31   15  139 1    
    32   15  140 1    
    33   16   17 1    
    34   17   18 1    
    35   17  141 1    
    36   17  142 1    
    37   18   19 1    
    38   18   67 1    
    39   18  143 1    
    40   19   20 am   BACKBONE|DICT|INTERRES
    41   19  144 1    
    42   20   21 2    
    43   20   22 1    
    44   22   23 1    
    45   22   24 1    
    46   22  145 1    
    47   23  146 1    
    48   23  147 1    
    49   23  148 1    
    50   24   25 am   BACKBONE|DICT|INTERRES
    51   24  149 1    
    52   25   26 2    
    53   25   27 1    
    54   27   28 1    
    55   27   29 1    
    56   27  150 1    
    57   28  151 1    
    58   28  152 1    
    59   28  153 1    
    60   29   30 am   BACKBONE|DICT|INTERRES
    61   29  154 1    
    62   30   31 2    
    63   30   32 1    
    64   32   33 1    
    65   32   34 1    
    66   32  155 1    
    67   33  156 1    
    68   33  157 1    
    69   33  158 1    
    70   34   35 am   BACKBONE|DICT|INTERRES
    71   34  159 1    
    72   35   36 2    
    73   35   37 1    
    74   37   38 1    
    75   37   39 1    
    76   37  160 1    
    77   38  161 1    
    78   38  162 1    
    79   38  163 1    
    80   39   40 am   BACKBONE|DICT|INTERRES
    81   39  164 1    
    82   40   41 2    
    83   40   42 1    
    84   42   43 1    
    85   42   44 1    
    86   42  165 1    
    87   43  166 1    
    88   43  167 1    
    89   43  168 1    
    90   44   45 am   BACKBONE|DICT|INTERRES
    91   44  169 1    
    92   45   46 2    
    93   45   47 1    
    94   47   48 1    
    95   47   49 1    
    96   47  170 1    
    97   48  171 1    
    98   48  172 1    
    99   48  173 1    
   100   49   50 am   BACKBONE|DICT|INTERRES
   101   49  174 1    
   102   50   51 2    
   103   50   52 1    
   104   52   53 1    
   105   52   54 1    
   106   52  175 1    
   107   53  176 1    
   108   53  177 1    
   109   53  178 1    
   110   54   55 am   BACKBONE|DICT|INTERRES
   111   54  179 1    
   112   55   56 2    
   113   55   57 1    
   114   57   58 1    
   115   57   59 1    
   116   57  180 1    
   117   58  181 1    
   118   58  182 1    
   119   58  183 1    
   120   59   60 am   BACKBONE|DICT|INTERRES
   121   59  184 1    
   122   60   61 2    
   123   60   62 1    
   124   62   63 1    
   125   62   64 1    
   126   62  185 1    
   127   63  186 1    
   128   63  187 1    
   129   63  188 1    
   130   64   65 am   BACKBONE|DICT|INTERRES
   131   64  189 1    
   132   65   66 2    
   133   67   68 2    
   134   67   69 am   BACKBONE|DICT|INTERRES
   135   69   70 1    
   136   69  190 1    
   137   70   71 1    
   138   70   72 1    
   139   70  191 1    
   140   71  192 1    
   141   71  193 1    
   142   71  194 1    
   143   72   73 2    
   144   72   74 am   BACKBONE|DICT|INTERRES
   145   74   75 1    
   146   74  195 1    
   147   75   76 1    
   148   75   77 1    
   149   75  196 1    
   150   76  197 1    
   151   76  198 1    
   152   76  199 1    
   153   77   78 2    
   154   77   79 am   BACKBONE|DICT|INTERRES
   155   79   80 1    
   156   79  200 1    
   157   80   81 1    
   158   80   82 1    
   159   80  201 1    
   160   81  202 1    
   161   81  203 1    
   162   81  204 1    
   163   82   83 2    
   164   82   84 am   BACKBONE|DICT|INTERRES
   165   84   85 1    
   166   84  205 1    
   167   85   86 1    
   168   85   87 1    
   169   85  206 1    
   170   86  207 1    
   171   86  208 1    
   172   86  209 1    
   173   87   88 2    
   174   87   89 am   BACKBONE|DICT|INTERRES
   175   89   90 1    
   176   89  210 1    
   177   90   91 1    
   178   90   92 1    
   179   90  211 1    
   180   91  212 1    
   181   91  213 1    
   182   91  214 1    
   183   92   93 2    
   184   92   94 am   BACKBONE|DICT|INTERRES
   185   94   95 1    
   186   94  215 1    
   187   95   96 1    
   188   95   97 1    
   189   95  216 1    
   190   96  217 1    
   191   96  218 1    
   192   96  219 1    
   193   97   98 2    
   194   97   99 am   BACKBONE|DICT|INTERRES
   195   99  100 1    
   196   99  220 1    
   197  100  101 1    
   198  100  102 1    
   199  100  221 1    
   200  101  222 1    
   201  101  223 1    
   202  101  224 1    
   203  102  103 2    
   204  102  104 am   BACKBONE|DICT|INTERRES
   205  104  105 1    
   206  104  225 1    
   207  105  106 1    
   208  105  107 1    
   209  105  226 1    
   210  106  227 1    
   211  106  228 1    
   212  106  229 1    
   213  107  108 2    
   214  107  109 am   BACKBONE|DICT|INTERRES
   215  109  110 1    
   216  109  230 1    
   217  110  111 1    
   218  110  112 1    
   219  110  231 1    
   220  111  232 1    
   221  111  233 1    
   222  111  234 1    
   223  112  113 2    
   224  112  114 am   BACKBONE|DICT|INTERRES
   225  114  115 1    
   226  114  235 1    
   227  115  116 1    
   228  115  117 1    
   229  115  236 1    
   230  116  237 1    
   231  116  238 1    
   232  116  239 1    
   233  117  118 2    
   234  117  119 am   BACKBONE|DICT|INTERRES
   235  119  120 1    
   236  119  240 1    
   237  120  121 1    
   238  120  124 1    
   239  120  241 1    
   240  121  122 am   BACKBONE|DICT|INTERRES
   241  121  123 2    
   242  122  242 1    
   243  122  243 1    
   244  124  125 1    
   245  124  244 1    
   246  124  245 1    
   247  125  126 1    
   248  126  246 1    
   249  126  247 1    
@<TRIPOS>SUBSTRUCTURE
     1 UNK         1 GROUP             0       ****    0 ROOT    
