@<TRIPOS>MOLECULE
3R540
247   249    1
SMALL
USER_CHARGES


@<TRIPOS>ATOM
      1 CA         -1.3642  -10.0830  -44.3416 C.3       0 UNK        -0.1800 
      2 C          -1.8045  -11.5432  -44.4273 C.2       0 UNK         0.5000 
      3 O          -2.2212  -12.1058  -43.4174 O.2       0 UNK        -0.5000 
      4 N          -1.7597  -12.1953  -45.5987 N.am      1 UNK        -0.5000 
      5 CA         -1.2393  -11.6939  -46.8771 C.3       1 UNK         0.1400 
      6 C6         -1.6812  -12.6103  -48.0463 C.3       23 UNK        -0.0398 
      7 S7         -1.5732  -11.8189  -49.6891 S.3       23 UNK        -0.2404 
      8 C8          0.0580  -12.3647  -50.2990 C.3       23 UNK        -0.0205 
      9 C9          0.1402  -13.8705  -50.5007 C.ar      23 UNK        -0.0193 
     10 C10        -0.4757  -14.4603  -51.6054 C.ar      23 UNK        -0.1150 
     11 C11        -0.3842  -15.8375  -51.8147 C.ar      23 UNK        -0.0193 
     12 C12         0.3356  -16.6263  -50.9128 C.ar      23 UNK        -0.1150 
     13 C13         0.9452  -16.0549  -49.7858 C.ar      23 UNK        -0.0193 
     14 C14         0.8463  -14.6719  -49.5980 C.ar      23 UNK        -0.1150 
     15 C15         1.7328  -16.8689  -48.7528 C.3       23 UNK        -0.0205 
     16 S16         1.6087  -18.6872  -48.8821 S.3       23 UNK        -0.2404 
     17 C17        -0.1333  -18.9618  -48.4187 C.3       23 UNK        -0.0398 
     18 CA         -0.3770  -20.4029  -47.9132 C.3       11 UNK         0.1400 
     19 N           0.2180  -20.6469  -46.5957 N.am      11 UNK        -0.5000 
     20 C           0.4026  -21.8653  -46.0690 C.2       10 UNK         0.5000 
     21 O           0.1721  -22.9121  -46.6740 O.2       10 UNK        -0.5000 
     22 CA          0.8956  -21.9342  -44.6112 C.3       10 UNK         0.1400 
     23 CB          2.4295  -21.8840  -44.5524 C.3       10 UNK        -0.1800 
     24 N           0.3290  -20.8867  -43.7577 N.am      10 UNK        -0.5000 
     25 C          -0.9770  -20.7619  -43.4795 C.2       9 UNK         0.5000 
     26 O          -1.8378  -21.5334  -43.8966 O.2       9 UNK        -0.5000 
     27 CA         -1.4092  -19.5508  -42.6357 C.3       9 UNK         0.1400 
     28 CB         -1.1824  -19.8191  -41.1408 C.3       9 UNK        -0.1800 
     29 N          -0.7324  -18.3160  -43.0283 N.am      9 UNK        -0.5000 
     30 C          -0.8355  -17.7355  -44.2326 C.2       8 UNK         0.5000 
     31 O          -1.5506  -18.1603  -45.1409 O.2       8 UNK        -0.5000 
     32 CA          0.0656  -16.5117  -44.4832 C.3       8 UNK         0.1400 
     33 CB         -0.5064  -15.2527  -43.8148 C.3       8 UNK        -0.1800 
     34 N           1.4360  -16.7356  -44.0212 N.am      8 UNK        -0.5000 
     35 C           2.2522  -17.6784  -44.5148 C.2       7 UNK         0.5000 
     36 O           1.9511  -18.4218  -45.4477 O.2       7 UNK        -0.5000 
     37 CA          3.6064  -17.8581  -43.8091 C.3       7 UNK         0.1400 
     38 CB          4.6393  -16.8394  -44.3134 C.3       7 UNK        -0.1800 
     39 N           3.4785  -17.7571  -42.3552 N.am      7 UNK        -0.5000 
     40 C           2.8840  -18.6820  -41.5879 C.2       6 UNK         0.5000 
     41 O           2.4157  -19.7325  -42.0242 O.2       6 UNK        -0.5000 
     42 CA          2.7544  -18.3607  -40.0880 C.3       6 UNK         0.1400 
     43 CB          4.0458  -18.7278  -39.3420 C.3       6 UNK        -0.1800 
     44 N           2.4333  -16.9551  -39.8390 N.am      6 UNK        -0.5000 
     45 C           1.2871  -16.3616  -40.2014 C.2       5 UNK         0.5000 
     46 O           0.3574  -16.9497  -40.7507 O.2       5 UNK        -0.5000 
     47 CA          1.1832  -14.8458  -39.9541 C.3       5 UNK         0.1400 
     48 CB          0.6073  -14.5648  -38.5584 C.3       5 UNK        -0.1800 
     49 N           2.4647  -14.1507  -40.1016 N.am      5 UNK        -0.5000 
     50 C           3.1569  -14.0752  -41.2450 C.2       4 UNK         0.5000 
     51 O           2.7997  -14.6049  -42.3013 O.2       4 UNK        -0.5000 
     52 CA          4.4968  -13.3339  -41.1838 C.3       4 UNK         0.1400 
     53 CB          5.6549  -14.3344  -41.0416 C.3       4 UNK        -0.1800 
     54 N           4.6628  -12.5805  -42.4201 N.am      4 UNK        -0.5000 
     55 C           4.9206  -11.2700  -42.5034 C.2       3 UNK         0.5000 
     56 O           5.1507  -10.5553  -41.5266 O.2       3 UNK        -0.5000 
     57 CA          4.9233  -10.6387  -43.9122 C.3       3 UNK         0.1400 
     58 CB          6.3639  -10.3745  -44.3779 C.3       3 UNK        -0.1800 
     59 N           4.2385  -11.4391  -44.9326 N.am      3 UNK        -0.5000 
     60 C           2.9196  -11.6670  -44.9737 C.2       2 UNK         0.5000 
     61 O           2.1235  -11.2300  -44.1396 O.2       2 UNK        -0.5000 
     62 CA          2.4339  -12.5689  -46.1240 C.3       2 UNK         0.1400 
     63 CB          2.8673  -14.0235  -45.8892 C.3       2 UNK        -0.1800 
     64 N           0.9806  -12.5360  -46.2736 N.am      2 UNK        -0.5000 
     65 C           0.2956  -11.5367  -46.8435 C.2       1 UNK         0.5000 
     66 O           0.8198  -10.5297  -47.3211 O.2       1 UNK        -0.5000 
     67 C          -1.8837  -20.7349  -47.9368 C.2       11 UNK         0.5000 
     68 O          -2.3603  -21.2758  -48.9339 O.2       11 UNK        -0.5000 
     69 N          -2.6061  -20.4000  -46.8584 N.am      12 UNK        -0.5000 
     70 CA         -4.0476  -20.6254  -46.7252 C.3       12 UNK         0.1400 
     71 CB         -4.5880  -19.7367  -45.5949 C.3       12 UNK        -0.1800 
     72 C          -4.4287  -22.0983  -46.4761 C.2       12 UNK         0.5000 
     73 O          -5.5266  -22.5078  -46.8609 O.2       12 UNK        -0.5000 
     74 N          -3.5339  -22.8540  -45.8248 N.am      13 UNK        -0.5000 
     75 CA         -3.7020  -24.2515  -45.4210 C.3       13 UNK         0.1400 
     76 CB         -2.4110  -24.7370  -44.7427 C.3       13 UNK        -0.1800 
     77 C          -4.0797  -25.2040  -46.5705 C.2       13 UNK         0.5000 
     78 O          -3.6857  -24.9835  -47.7183 O.2       13 UNK        -0.5000 
     79 N          -4.8303  -26.2584  -46.2189 N.am      14 UNK        -0.5000 
     80 CA         -5.3345  -27.3159  -47.1031 C.3       14 UNK         0.1400 
     81 CB         -4.1737  -28.1997  -47.6072 C.3       14 UNK        -0.1800 
     82 C          -6.2150  -26.7695  -48.2462 C.2       14 UNK         0.5000 
     83 O          -6.0959  -27.2250  -49.3833 O.2       14 UNK        -0.5000 
     84 N          -7.0628  -25.7807  -47.9206 N.am      15 UNK        -0.5000 
     85 CA         -7.9424  -25.0397  -48.8321 C.3       15 UNK         0.1400 
     86 CB         -9.0635  -25.9523  -49.3733 C.3       15 UNK        -0.1800 
     87 C          -7.1432  -24.3395  -49.9491 C.2       15 UNK         0.5000 
     88 O          -7.3633  -24.6038  -51.1326 O.2       15 UNK        -0.5000 
     89 N          -6.1913  -23.4916  -49.5344 N.am      16 UNK        -0.5000 
     90 CA         -5.2359  -22.7651  -50.3749 C.3       16 UNK         0.1400 
     91 CB         -5.9536  -21.6882  -51.2157 C.3       16 UNK        -0.1800 
     92 C          -4.3631  -23.7137  -51.2211 C.2       16 UNK         0.5000 
     93 O          -4.2681  -23.5426  -52.4384 O.2       16 UNK        -0.5000 
     94 N          -3.7812  -24.7223  -50.5546 N.am      17 UNK        -0.5000 
     95 CA         -2.9514  -25.7942  -51.1127 C.3       17 UNK         0.1400 
     96 CB         -1.5815  -25.2360  -51.5489 C.3       17 UNK        -0.1800 
     97 C          -3.6723  -26.5886  -52.2232 C.2       17 UNK         0.5000 
     98 O          -3.1240  -26.7740  -53.3107 O.2       17 UNK        -0.5000 
     99 N          -4.9044  -27.0230  -51.9207 N.am      18 UNK        -0.5000 
    100 CA        -5.8550  -27.7014  -52.8050 C.3       18 UNK         0.1400 
    101 CB        -5.3427  -29.1040  -53.1943 C.3       18 UNK        -0.1800 
    102 C         -6.2473  -26.8298  -54.0158 C.2       18 UNK         0.5000 
    103 O         -6.2191  -27.3004  -55.1549 O.2       18 UNK        -0.5000 
    104 N         -6.6038  -25.5687  -53.7291 N.am      19 UNK        -0.5000 
    105 CA        -6.9905  -24.5123  -54.6668 C.3       19 UNK         0.1400 
    106 CB        -8.3647  -24.8240  -55.2948 C.3       19 UNK        -0.1800 
    107 C         -5.8962  -24.2124  -55.7123 C.2       19 UNK         0.5000 
    108 O         -6.1635  -24.2215  -56.9159 O.2       19 UNK        -0.5000 
    109 N         -4.6735  -23.9522  -55.2289 N.am      20 UNK        -0.5000 
    110 CA        -3.5032  -23.6348  -56.0522 C.3       20 UNK         0.1400 
    111 CB        -2.2347  -23.7460  -55.1936 C.3       20 UNK        -0.1800 
    112 C         -3.5726  -22.2449  -56.7133 C.2       20 UNK         0.5000 
    113 O         -2.8660  -22.0116  -57.6954 O.2       20 UNK        -0.5000 
    114 N         -4.3962  -21.3434  -56.1531 N.am      21 UNK        -0.5000 
    115 CA        -4.6803  -19.9816  -56.6282 C.3       21 UNK         0.1400 
    116 CB        -5.5055  -20.0354  -57.9305 C.3       21 UNK        -0.1800 
    117 C         -3.4201  -19.0965  -56.7557 C.2       21 UNK         0.5000 
    118 O         -3.3431  -18.2481  -57.6461 O.2       21 UNK        -0.5000 
    119 N         -2.4493  -19.3273  -55.8614 N.am      22 UNK        -0.5000 
    120 CA        -1.1133  -18.7091  -55.8453 C.3       22 UNK         0.1400 
    121 C         -0.1540  -19.1928  -56.9789 C.2       22 UNK         0.5000 
    122 N         -0.4792  -20.2367  -57.7338 N.am      22 UNK        -0.7600 
    123 O          0.9233  -18.6332  -57.1639 O.2       22 UNK        -0.5000 
    124 C124       -1.1732  -17.1571  -55.7089 C.3       23 UNK        -0.0398 
    125 S125       -0.0025  -16.5068  -54.4704 S.3       23 UNK        -0.2404 
    126 C126       -1.0809  -16.4710  -53.0067 C.3       23 UNK        -0.0205 
    127 H127       -0.2829   -9.9964  -44.4404 H         1 UNK         0.0600 
    128 H128       -1.6425   -9.6593  -43.3765 H         1 UNK         0.0600 
    129 H129       -1.8391   -9.4779  -45.1131 H         1 UNK         0.0600 
    130 H130       -2.1023  -13.1443  -45.6180 H         1 UNK         0.3000 
    131 H131       -1.6736  -10.7073  -47.0483 H         1 UNK         0.0600 
    132 H132       -1.1471  -13.5605  -48.0365 H         1 UNK         0.0800 
    133 H133       -2.7318  -12.8743  -47.9162 H         1 UNK         0.0800 
    134 H134        0.2527  -11.8694  -51.2513 H         1 UNK         0.0800 
    135 H135        0.8438  -12.0238  -49.6251 H         1 UNK         0.0800 
    136 H136       -1.0262  -13.8451  -52.3035 H         1 UNK         0.1150 
    137 H137        0.4105  -17.6864  -51.1025 H         1 UNK         0.1150 
    138 H138        1.3247  -14.2141  -48.7440 H         1 UNK         0.1150 
    139 H139        2.7858  -16.5973  -48.8360 H         1 UNK         0.0800 
    140 H140        1.4207  -16.5790  -47.7487 H         1 UNK         0.0800 
    141 H141       -0.7423  -18.7541  -49.3001 H         1 UNK         0.0800 
    142 H142       -0.4313  -18.2343  -47.6620 H         1 UNK         0.0800 
    143 H143        0.0980  -21.0867  -48.6206 H         1 UNK         0.0600 
    144 H144        0.5061  -19.8325  -46.0640 H         1 UNK         0.3000 
    145 H145        0.5754  -22.8958  -44.2044 H         1 UNK         0.0600 
    146 H146        2.7901  -22.0241  -43.5334 H         1 UNK         0.0600 
    147 H147        2.8694  -22.6732  -45.1634 H         1 UNK         0.0600 
    148 H148        2.8160  -20.9330  -44.9180 H         1 UNK         0.0600 
    149 H149        0.9874  -20.2423  -43.3317 H         1 UNK         0.3000 
    150 H150       -2.4795  -19.4035  -42.7929 H         1 UNK         0.0600 
    151 H151       -1.6925  -20.7300  -40.8253 H         1 UNK         0.0600 
    152 H152       -1.5692  -19.0023  -40.5313 H         1 UNK         0.0600 
    153 H153       -0.1240  -19.9373  -40.9083 H         1 UNK         0.0600 
    154 H154       -0.1573  -17.8716  -42.3172 H         1 UNK         0.3000 
    155 H155        0.1018  -16.3380  -45.5605 H         1 UNK         0.0600 
    156 H156       -1.4985  -15.0224  -44.2043 H         1 UNK         0.0600 
    157 H157        0.1263  -14.3829  -43.9904 H         1 UNK         0.0600 
    158 H158       -0.6032  -15.3759  -42.7365 H         1 UNK         0.0600 
    159 H159        1.7730  -16.1461  -43.2680 H         1 UNK         0.3000 
    160 H160        3.9754  -18.8567  -44.0524 H         1 UNK         0.0600 
    161 H161        4.3693  -15.8190  -44.0453 H         1 UNK         0.0600 
    162 H162        4.7304  -16.8808  -45.3996 H         1 UNK         0.0600 
    163 H163        5.6257  -17.0424  -43.8964 H         1 UNK         0.0600 
    164 H164        3.7855  -16.8952  -41.9300 H         1 UNK         0.3000 
    165 H165        1.9421  -18.9698  -39.6859 H         1 UNK         0.0600 
    166 H166        3.9369  -18.5774  -38.2678 H         1 UNK         0.0600 
    167 H167        4.3010  -19.7769  -39.4978 H         1 UNK         0.0600 
    168 H168        4.8927  -18.1299  -39.6811 H         1 UNK         0.0600 
    169 H169        3.1423  -16.3962  -39.3883 H         1 UNK         0.3000 
    170 H170        0.4943  -14.4372  -40.6962 H         1 UNK         0.0600 
    171 H171       -0.3587  -15.0551  -38.4294 H         1 UNK         0.0600 
    172 H172        1.2672  -14.9265  -37.7689 H         1 UNK         0.0600 
    173 H173        0.4510  -13.4971  -38.4038 H         1 UNK         0.0600 
    174 H174        2.8282  -13.6983  -39.2750 H         1 UNK         0.3000 
    175 H175        4.4917  -12.6677  -40.3186 H         1 UNK         0.0600 
    176 H176        5.6952  -15.0295  -41.8812 H         1 UNK         0.0600 
    177 H177        6.6137  -13.8181  -40.9912 H         1 UNK         0.0600 
    178 H178        5.5553  -14.9238  -40.1293 H         1 UNK         0.0600 
    179 H179        4.4114  -13.0784  -43.2622 H         1 UNK         0.3000 
    180 H180        4.4081   -9.6788  -43.8364 H         1 UNK         0.0600 
    181 H181        6.9270  -11.3021  -44.4887 H         1 UNK         0.0600 
    182 H182        6.8990   -9.7499  -43.6613 H         1 UNK         0.0600 
    183 H183        6.3808   -9.8533  -45.3353 H         1 UNK         0.0600 
    184 H184        4.8265  -11.8394  -45.6495 H         1 UNK         0.3000 
    185 H185        2.8880  -12.2161  -47.0527 H         1 UNK         0.0600 
    186 H186        3.9535  -14.1152  -45.8670 H         1 UNK         0.0600 
    187 H187        2.4868  -14.3982  -44.9408 H         1 UNK         0.0600 
    188 H188        2.5073  -14.6819  -46.6782 H         1 UNK         0.0600 
    189 H189        0.4666  -13.2838  -45.8350 H         1 UNK         0.3000 
    190 H190       -2.1500  -19.9097  -46.0964 H         1 UNK         0.3000 
    191 H191       -4.5290  -20.3165  -47.6555 H         1 UNK         0.0600 
    192 H192       -4.3875  -18.6832  -45.7911 H         1 UNK         0.0600 
    193 H193       -5.6678  -19.8491  -45.4904 H         1 UNK         0.0600 
    194 H194       -4.1363  -19.9898  -44.6352 H         1 UNK         0.0600 
    195 H195       -2.6944  -22.3967  -45.4859 H         1 UNK         0.3000 
    196 H196       -4.5075  -24.2717  -44.6845 H         1 UNK         0.0600 
    197 H197       -2.4932  -25.7805  -44.4360 H         1 UNK         0.0600 
    198 H198       -2.1905  -24.1577  -43.8466 H         1 UNK         0.0600 
    199 H199       -1.5546  -24.6595  -45.4133 H         1 UNK         0.0600 
    200 H200       -5.0972  -26.3493  -45.2483 H         1 UNK         0.3000 
    201 H201       -5.9860  -27.9451  -46.4952 H         1 UNK         0.0600 
    202 H202       -3.5909  -28.5953  -46.7755 H         1 UNK         0.0600 
    203 H203       -3.4953  -27.6477  -48.2575 H         1 UNK         0.0600 
    204 H204       -4.5479  -29.0530  -48.1741 H         1 UNK         0.0600 
    205 H205       -7.0574  -25.4582  -46.9633 H         1 UNK         0.3000 
    206 H206       -8.4135  -24.2506  -48.2440 H         1 UNK         0.0600 
    207 H207       -9.6281  -26.4072  -48.5596 H         1 UNK         0.0600 
    208 H208       -9.7687  -25.3827  -49.9795 H         1 UNK         0.0600 
    209 H209       -8.6720  -26.7550  -49.9990 H         1 UNK         0.0600 
    210 H210       -6.0656  -23.3546  -48.5349 H         1 UNK         0.3000 
    211 H211       -4.5634  -22.2524  -49.6904 H         1 UNK         0.0600 
    212 H212       -6.6309  -22.1269  -51.9488 H         1 UNK         0.0600 
    213 H213       -5.2330  -21.0775  -51.7608 H         1 UNK         0.0600 
    214 H214       -6.5334  -21.0172  -50.5823 H         1 UNK         0.0600 
    215 H215       -3.9096  -24.7665  -49.5449 H         1 UNK         0.3000 
    216 H216       -2.7737  -26.4992  -50.3000 H         1 UNK         0.0600 
    217 H217       -0.9259  -26.0338  -51.8993 H         1 UNK         0.0600 
    218 H218       -1.0774  -24.7433  -50.7174 H         1 UNK         0.0600 
    219 H219       -1.6776  -24.5107  -52.3562 H         1 UNK         0.0600 
    220 H220       -5.2600  -26.8525  -50.9817 H         1 UNK         0.3000 
    221 H221       -6.7661  -27.8368  -52.2201 H         1 UNK         0.0600 
    222 H222       -4.4523  -29.0538  -53.8214 H         1 UNK         0.0600 
    223 H223       -5.0980  -29.6923  -52.3099 H         1 UNK         0.0600 
    224 H224       -6.1023  -29.6548  -53.7501 H         1 UNK         0.0600 
    225 H225       -6.6243  -25.2905  -52.7505 H         1 UNK         0.3000 
    226 H226       -7.1012  -23.6051  -54.0711 H         1 UNK         0.0600 
    227 H227       -9.1200  -24.9861  -54.5258 H         1 UNK         0.0600 
    228 H228       -8.7069  -23.9952  -55.9156 H         1 UNK         0.0600 
    229 H229       -8.3316  -25.7131  -55.9251 H         1 UNK         0.0600 
    230 H230       -4.5317  -23.9488  -54.2195 H         1 UNK         0.3000 
    231 H231       -3.4385  -24.3746  -56.8526 H         1 UNK         0.0600 
    232 H232       -2.2569  -23.0532  -54.3516 H         1 UNK         0.0600 
    233 H233       -1.3417  -23.5240  -55.7793 H         1 UNK         0.0600 
    234 H234       -2.1173  -24.7540  -54.7974 H         1 UNK         0.0600 
    235 H235       -4.9015  -21.6352  -55.3286 H         1 UNK         0.3000 
    236 H236       -5.3012  -19.5126  -55.8637 H         1 UNK         0.0600 
    237 H237       -6.3945  -20.6543  -57.8080 H         1 UNK         0.0600 
    238 H238       -5.8423  -19.0406  -58.2244 H         1 UNK         0.0600 
    239 H239       -4.9255  -20.4434  -58.7590 H         1 UNK         0.0600 
    240 H240       -2.6027  -20.0545  -55.1781 H         1 UNK         0.3000 
    241 H241       -0.6638  -19.1087  -54.9357 H         1 UNK         0.0600 
    242 H242        0.1595  -20.5378  -58.4525 H         1 UNK         0.3800 
    243 H243       -1.3615  -20.7251  -57.6193 H         1 UNK         0.3800 
    244 H244       -0.9826  -16.6674  -56.6655 H         1 UNK         0.0800 
    245 H245       -2.1740  -16.8298  -55.4250 H         1 UNK         0.0800 
    246 H246       -1.9912  -15.9142  -53.2348 H         1 UNK         0.0800 
    247 H247       -1.3949  -17.4872  -52.7626 H         1 UNK         0.0800 
@<TRIPOS>BOND
     1    1    2 1    
     2    1  127 1    
     3    1  128 1    
     4    1  129 1    
     5    2    3 2    
     6    2    4 am   BACKBONE|DICT|INTERRES
     7    4    5 1    
     8    4  130 1    
     9    5    6 1    
    10    5   65 1    
    11    5  131 1    
    12    6    7 1    
    13    6  132 1    
    14    6  133 1    
    15    7    8 1    
    16    8    9 1    
    17    8  134 1    
    18    8  135 1    
    19    9   10 ar   
    20    9   14 ar   
    21   10   11 ar   
    22   10  136 1    
    23   11   12 ar   
    24   11  126 1    
    25   12   13 ar   
    26   12  137 1    
    27   13   14 ar   
    28   13   15 1    
    29   14  138 1    
    30   15   16 1    
    31   15  139 1    
    32   15  140 1    
    33   16   17 1    
    34   17   18 1    
    35   17  141 1    
    36   17  142 1    
    37   18   19 1    
    38   18   67 1    
    39   18  143 1    
    40   19   20 am   BACKBONE|DICT|INTERRES
    41   19  144 1    
    42   20   21 2    
    43   20   22 1    
    44   22   23 1    
    45   22   24 1    
    46   22  145 1    
    47   23  146 1    
    48   23  147 1    
    49   23  148 1    
    50   24   25 am   BACKBONE|DICT|INTERRES
    51   24  149 1    
    52   25   26 2    
    53   25   27 1    
    54   27   28 1    
    55   27   29 1    
    56   27  150 1    
    57   28  151 1    
    58   28  152 1    
    59   28  153 1    
    60   29   30 am   BACKBONE|DICT|INTERRES
    61   29  154 1    
    62   30   31 2    
    63   30   32 1    
    64   32   33 1    
    65   32   34 1    
    66   32  155 1    
    67   33  156 1    
    68   33  157 1    
    69   33  158 1    
    70   34   35 am   BACKBONE|DICT|INTERRES
    71   34  159 1    
    72   35   36 2    
    73   35   37 1    
    74   37   38 1    
    75   37   39 1    
    76   37  160 1    
    77   38  161 1    
    78   38  162 1    
    79   38  163 1    
    80   39   40 am   BACKBONE|DICT|INTERRES
    81   39  164 1    
    82   40   41 2    
    83   40   42 1    
    84   42   43 1    
    85   42   44 1    
    86   42  165 1    
    87   43  166 1    
    88   43  167 1    
    89   43  168 1    
    90   44   45 am   BACKBONE|DICT|INTERRES
    91   44  169 1    
    92   45   46 2    
    93   45   47 1    
    94   47   48 1    
    95   47   49 1    
    96   47  170 1    
    97   48  171 1    
    98   48  172 1    
    99   48  173 1    
   100   49   50 am   BACKBONE|DICT|INTERRES
   101   49  174 1    
   102   50   51 2    
   103   50   52 1    
   104   52   53 1    
   105   52   54 1    
   106   52  175 1    
   107   53  176 1    
   108   53  177 1    
   109   53  178 1    
   110   54   55 am   BACKBONE|DICT|INTERRES
   111   54  179 1    
   112   55   56 2    
   113   55   57 1    
   114   57   58 1    
   115   57   59 1    
   116   57  180 1    
   117   58  181 1    
   118   58  182 1    
   119   58  183 1    
   120   59   60 am   BACKBONE|DICT|INTERRES
   121   59  184 1    
   122   60   61 2    
   123   60   62 1    
   124   62   63 1    
   125   62   64 1    
   126   62  185 1    
   127   63  186 1    
   128   63  187 1    
   129   63  188 1    
   130   64   65 am   BACKBONE|DICT|INTERRES
   131   64  189 1    
   132   65   66 2    
   133   67   68 2    
   134   67   69 am   BACKBONE|DICT|INTERRES
   135   69   70 1    
   136   69  190 1    
   137   70   71 1    
   138   70   72 1    
   139   70  191 1    
   140   71  192 1    
   141   71  193 1    
   142   71  194 1    
   143   72   73 2    
   144   72   74 am   BACKBONE|DICT|INTERRES
   145   74   75 1    
   146   74  195 1    
   147   75   76 1    
   148   75   77 1    
   149   75  196 1    
   150   76  197 1    
   151   76  198 1    
   152   76  199 1    
   153   77   78 2    
   154   77   79 am   BACKBONE|DICT|INTERRES
   155   79   80 1    
   156   79  200 1    
   157   80   81 1    
   158   80   82 1    
   159   80  201 1    
   160   81  202 1    
   161   81  203 1    
   162   81  204 1    
   163   82   83 2    
   164   82   84 am   BACKBONE|DICT|INTERRES
   165   84   85 1    
   166   84  205 1    
   167   85   86 1    
   168   85   87 1    
   169   85  206 1    
   170   86  207 1    
   171   86  208 1    
   172   86  209 1    
   173   87   88 2    
   174   87   89 am   BACKBONE|DICT|INTERRES
   175   89   90 1    
   176   89  210 1    
   177   90   91 1    
   178   90   92 1    
   179   90  211 1    
   180   91  212 1    
   181   91  213 1    
   182   91  214 1    
   183   92   93 2    
   184   92   94 am   BACKBONE|DICT|INTERRES
   185   94   95 1    
   186   94  215 1    
   187   95   96 1    
   188   95   97 1    
   189   95  216 1    
   190   96  217 1    
   191   96  218 1    
   192   96  219 1    
   193   97   98 2    
   194   97   99 am   BACKBONE|DICT|INTERRES
   195   99  100 1    
   196   99  220 1    
   197  100  101 1    
   198  100  102 1    
   199  100  221 1    
   200  101  222 1    
   201  101  223 1    
   202  101  224 1    
   203  102  103 2    
   204  102  104 am   BACKBONE|DICT|INTERRES
   205  104  105 1    
   206  104  225 1    
   207  105  106 1    
   208  105  107 1    
   209  105  226 1    
   210  106  227 1    
   211  106  228 1    
   212  106  229 1    
   213  107  108 2    
   214  107  109 am   BACKBONE|DICT|INTERRES
   215  109  110 1    
   216  109  230 1    
   217  110  111 1    
   218  110  112 1    
   219  110  231 1    
   220  111  232 1    
   221  111  233 1    
   222  111  234 1    
   223  112  113 2    
   224  112  114 am   BACKBONE|DICT|INTERRES
   225  114  115 1    
   226  114  235 1    
   227  115  116 1    
   228  115  117 1    
   229  115  236 1    
   230  116  237 1    
   231  116  238 1    
   232  116  239 1    
   233  117  118 2    
   234  117  119 am   BACKBONE|DICT|INTERRES
   235  119  120 1    
   236  119  240 1    
   237  120  121 1    
   238  120  124 1    
   239  120  241 1    
   240  121  122 am   BACKBONE|DICT|INTERRES
   241  121  123 2    
   242  122  242 1    
   243  122  243 1    
   244  124  125 1    
   245  124  244 1    
   246  124  245 1    
   247  125  126 1    
   248  126  246 1    
   249  126  247 1    
@<TRIPOS>SUBSTRUCTURE
     1 UNK         1 GROUP             0       ****    0 ROOT    
