@<TRIPOS>MOLECULE
3R540
247   249    1
SMALL
USER_CHARGES


@<TRIPOS>ATOM
      1 CA          0.3413  -15.0460  -49.4008 C.3       0 UNK        -0.1800 
      2 C          -0.9565  -15.3950  -48.6882 C.2       0 UNK         0.5000 
      3 O          -1.0602  -16.4703  -48.0995 O.2       0 UNK        -0.5000 
      4 N          -1.9393  -14.4842  -48.7320 N.am      1 UNK        -0.5000 
      5 CA         -3.2532  -14.6172  -48.0833 C.3       1 UNK         0.1400 
      6 C6         -4.2349  -13.4763  -48.4750 C.3       23 UNK        -0.0398 
      7 S7         -4.2433  -13.0196  -50.2450 S.3       23 UNK        -0.2404 
      8 C8         -5.8370  -13.6812  -50.8257 C.3       23 UNK        -0.0205 
      9 C9         -5.7349  -15.1576  -51.1682 C.ar      23 UNK        -0.0193 
     10 C10        -5.0016  -15.5575  -52.2896 C.ar      23 UNK        -0.1150 
     11 C11        -4.8800  -16.9099  -52.6136 C.ar      23 UNK        -0.0193 
     12 C12        -5.5139  -17.8619  -51.8132 C.ar      23 UNK        -0.1150 
     13 C13        -6.2483  -17.4796  -50.6888 C.ar      23 UNK        -0.0193 
     14 C14        -6.3617  -16.1220  -50.3726 C.ar      23 UNK        -0.1150 
     15 C15        -6.8890  -18.5416  -49.8082 C.3       23 UNK        -0.0205 
     16 S16        -5.9892  -18.7033  -48.2355 S.3       23 UNK        -0.2404 
     17 C17        -6.3429  -20.4273  -47.7360 C.3       23 UNK        -0.0398 
     18 CA         -5.0364  -21.2268  -47.5018 C.3       11 UNK         0.1400 
     19 N          -4.1850  -20.5702  -46.5042 N.am      11 UNK        -0.5000 
     20 C          -2.8622  -20.7263  -46.4324 C.2       10 UNK         0.5000 
     21 O          -2.2227  -21.4614  -47.1821 O.2       10 UNK        -0.5000 
     22 CA         -2.1372  -19.9549  -45.3213 C.3       10 UNK         0.1400 
     23 CB         -2.5812  -18.4828  -45.2684 C.3       10 UNK        -0.1800 
     24 N          -2.2524  -20.5609  -43.9886 N.am      10 UNK        -0.5000 
     25 C          -2.0667  -21.8513  -43.6654 C.2       9 UNK         0.5000 
     26 O          -1.9370  -22.7637  -44.4850 O.2       9 UNK        -0.5000 
     27 CA         -1.9793  -22.1644  -42.1624 C.3       9 UNK         0.1400 
     28 CB         -1.5881  -23.6318  -41.8829 C.3       9 UNK        -0.1800 
     29 N          -1.0318  -21.2506  -41.5227 N.am      9 UNK        -0.5000 
     30 C          -0.9658  -21.0130  -40.2046 C.2       8 UNK         0.5000 
     31 O          -1.7166  -21.5362  -39.3799 O.2       8 UNK        -0.5000 
     32 CA          0.1088  -20.0204  -39.7103 C.3       8 UNK         0.1400 
     33 CB          1.3917  -20.7707  -39.3219 C.3       8 UNK        -0.1800 
     34 N           0.4452  -18.9796  -40.6818 N.am      8 UNK        -0.5000 
     35 C          -0.4083  -18.0594  -41.1478 C.2       7 UNK         0.5000 
     36 O          -1.5620  -17.9329  -40.7361 O.2       7 UNK        -0.5000 
     37 CA          0.0855  -17.1332  -42.2771 C.3       7 UNK         0.1400 
     38 CB          0.3578  -15.7281  -41.7209 C.3       7 UNK        -0.1800 
     39 N           1.2522  -17.5900  -43.0509 N.am      7 UNK        -0.5000 
     40 C           1.3810  -18.7685  -43.6865 C.2       6 UNK         0.5000 
     41 O           0.5866  -19.6978  -43.5577 O.2       6 UNK        -0.5000 
     42 CA          2.5799  -18.9642  -44.6370 C.3       6 UNK         0.1400 
     43 CB          2.1164  -18.8245  -46.0960 C.3       6 UNK        -0.1800 
     44 N           3.6825  -18.0319  -44.4185 N.am      6 UNK        -0.5000 
     45 C           4.4867  -17.9973  -43.3479 C.2       5 UNK         0.5000 
     46 O           4.4449  -18.8223  -42.4349 O.2       5 UNK        -0.5000 
     47 CA          5.4822  -16.8164  -43.2722 C.3       5 UNK         0.1400 
     48 CB          6.8868  -17.2716  -43.6965 C.3       5 UNK        -0.1800 
     49 N           5.0989  -15.6424  -44.0731 N.am      5 UNK        -0.5000 
     50 C           3.9559  -14.9574  -43.9292 C.2       4 UNK         0.5000 
     51 O           3.0916  -15.2663  -43.1076 O.2       4 UNK        -0.5000 
     52 CA          3.7099  -13.7957  -44.9131 C.3       4 UNK         0.1400 
     53 CB          3.4399  -14.3412  -46.3266 C.3       4 UNK        -0.1800 
     54 N           2.5628  -12.9786  -44.5186 N.am      4 UNK        -0.5000 
     55 C           2.4827  -12.1972  -43.4365 C.2       3 UNK         0.5000 
     56 O           3.4417  -11.9558  -42.7015 O.2       3 UNK        -0.5000 
     57 CA          1.1019  -11.5948  -43.0947 C.3       3 UNK         0.1400 
     58 CB          0.9493  -10.1859  -43.7002 C.3       3 UNK        -0.1800 
     59 N          -0.0632  -12.4416  -43.4122 N.am      3 UNK        -0.5000 
     60 C          -0.5363  -12.8082  -44.6119 C.2       2 UNK         0.5000 
     61 O           0.0124  -12.5181  -45.6798 O.2       2 UNK        -0.5000 
     62 CA         -1.8303  -13.6452  -44.6263 C.3       2 UNK         0.1400 
     63 CB         -2.9827  -12.9173  -43.9015 C.3       2 UNK        -0.1800 
     64 N          -2.1711  -13.8790  -46.0244 N.am      2 UNK        -0.5000 
     65 C          -3.1297  -14.6559  -46.5419 C.2       1 UNK         0.5000 
     66 O          -3.8954  -15.3514  -45.8749 O.2       1 UNK        -0.5000 
     67 C          -5.3318  -22.6969  -47.1224 C.2       11 UNK         0.5000 
     68 O          -5.8018  -23.4561  -47.9698 O.2       11 UNK        -0.5000 
     69 N          -5.0695  -23.0646  -45.8593 N.am      12 UNK        -0.5000 
     70 CA         -5.3652  -24.3724  -45.2820 C.3       12 UNK         0.1400 
     71 CB         -5.4485  -24.2394  -43.7529 C.3       12 UNK        -0.1800 
     72 C          -4.3535  -25.4629  -45.6745 C.2       12 UNK         0.5000 
     73 O          -4.7772  -26.5723  -46.0028 O.2       12 UNK        -0.5000 
     74 N          -3.0505  -25.1526  -45.6089 N.am      13 UNK        -0.5000 
     75 CA         -1.9762  -26.1352  -45.7883 C.3       13 UNK         0.1400 
     76 CB         -1.5360  -26.6731  -44.4168 C.3       13 UNK        -0.1800 
     77 C          -0.7700  -25.5858  -46.5637 C.2       13 UNK         0.5000 
     78 O          -0.1361  -26.3497  -47.2928 O.2       13 UNK        -0.5000 
     79 N          -0.4674  -24.2877  -46.4214 N.am      14 UNK        -0.5000 
     80 CA          0.6496  -23.6269  -47.1086 C.3       14 UNK         0.1400 
     81 CB          1.0731  -22.3934  -46.2979 C.3       14 UNK        -0.1800 
     82 C           0.3347  -23.2520  -48.5731 C.2       14 UNK         0.5000 
     83 O           1.2130  -22.7395  -49.2709 O.2       14 UNK        -0.5000 
     84 N          -0.9139  -23.4887  -49.0034 N.am      15 UNK        -0.5000 
     85 CA         -1.4721  -23.2365  -50.3342 C.3       15 UNK         0.1400 
     86 CB         -0.8524  -24.1992  -51.3665 C.3       15 UNK        -0.1800 
     87 C          -1.3762  -21.7571  -50.7563 C.2       15 UNK         0.5000 
     88 O          -1.1483  -21.4672  -51.9319 O.2       15 UNK        -0.5000 
     89 N          -1.5449  -20.8581  -49.7778 N.am      16 UNK        -0.5000 
     90 CA         -1.4132  -19.4029  -49.8587 C.3       16 UNK         0.1400 
     91 CB         -2.5531  -18.8033  -50.6965 C.3       16 UNK        -0.1800 
     92 C          -0.0076  -18.9760  -50.3213 C.2       16 UNK         0.5000 
     93 O           0.1299  -18.1922  -51.2606 O.2       16 UNK        -0.5000 
     94 N           1.0067  -19.5438  -49.6512 N.am      17 UNK        -0.5000 
     95 CA          2.4393  -19.3984  -49.9219 C.3       17 UNK         0.1400 
     96 CB          2.8996  -17.9357  -49.7359 C.3       17 UNK        -0.1800 
     97 C           2.8248  -19.9971  -51.2898 C.2       17 UNK         0.5000 
     98 O           3.4910  -19.3400  -52.0920 O.2       17 UNK        -0.5000 
     99 N           2.3912  -21.2473  -51.5151 N.am      18 UNK        -0.5000 
    100 CA         2.6206  -22.0593  -52.7156 C.3       18 UNK         0.1400 
    101 CB         4.1122  -22.4336  -52.8436 C.3       18 UNK        -0.1800 
    102 C          2.0383  -21.4345  -54.0034 C.2       18 UNK         0.5000 
    103 O          2.6665  -21.4916  -55.0620 O.2       18 UNK        -0.5000 
    104 N          0.8295  -20.8719  -53.8917 N.am      19 UNK        -0.5000 
    105 CA         0.0560  -20.2731  -54.9818 C.3       19 UNK         0.1400 
    106 CB        -0.4599  -18.9005  -54.5165 C.3       19 UNK        -0.1800 
    107 C         -1.1062  -21.1907  -55.4151 C.2       19 UNK         0.5000 
    108 O         -2.0753  -20.7102  -56.0063 O.2       19 UNK        -0.5000 
    109 N         -1.0198  -22.4873  -55.0716 N.am      20 UNK        -0.5000 
    110 CA        -2.0144  -23.5448  -55.3069 C.3       20 UNK         0.1400 
    111 CB        -2.1171  -23.8611  -56.8131 C.3       20 UNK        -0.1800 
    112 C         -3.3891  -23.2379  -54.6716 C.2       20 UNK         0.5000 
    113 O         -4.4228  -23.6587  -55.1961 O.2       20 UNK        -0.5000 
    114 N         -3.3734  -22.4532  -53.5814 N.am      21 UNK        -0.5000 
    115 CA        -4.5247  -21.8845  -52.8737 C.3       21 UNK         0.1400 
    116 CB        -5.2940  -22.9869  -52.1181 C.3       21 UNK        -0.1800 
    117 C         -5.4412  -21.0289  -53.7771 C.2       21 UNK         0.5000 
    118 O         -6.6232  -20.8759  -53.4668 O.2       21 UNK        -0.5000 
    119 N         -4.8834  -20.4871  -54.8722 N.am      22 UNK        -0.5000 
    120 CA        -5.5916  -19.7451  -55.9279 C.3       22 UNK         0.1400 
    121 C         -6.6470  -20.5979  -56.7040 C.2       22 UNK         0.5000 
    122 N         -6.5733  -21.9252  -56.6794 N.am      22 UNK        -0.7600 
    123 O         -7.5242  -20.0585  -57.3733 O.2       22 UNK        -0.5000 
    124 C124       -6.1226  -18.3646  -55.4326 C.3       23 UNK        -0.0398 
    125 S125       -4.8162  -17.0876  -55.3992 S.3       23 UNK        -0.2404 
    126 C126       -4.0129  -17.3430  -53.7861 C.3       23 UNK        -0.0205 
    127 H127        0.3610  -14.0009  -49.7160 H         1 UNK         0.0600 
    128 H128        0.4633  -15.6732  -50.2849 H         1 UNK         0.0600 
    129 H129        1.1921  -15.2173  -48.7389 H         1 UNK         0.0600 
    130 H130       -1.8064  -13.6344  -49.2617 H         1 UNK         0.3000 
    131 H131       -3.6835  -15.5667  -48.4105 H         1 UNK         0.0600 
    132 H132       -3.9896  -12.5597  -47.9341 H         1 UNK         0.0800 
    133 H133       -5.2471  -13.7379  -48.1623 H         1 UNK         0.0800 
    134 H134       -6.1360  -13.1336  -51.7207 H         1 UNK         0.0800 
    135 H135       -6.6164  -13.4972  -50.0848 H         1 UNK         0.0800 
    136 H136       -4.5065  -14.8146  -52.8994 H         1 UNK         0.1150 
    137 H137       -5.4078  -18.9090  -52.0433 H         1 UNK         0.1150 
    138 H138       -6.9223  -15.8220  -49.4984 H         1 UNK         0.1150 
    139 H139       -7.9289  -18.2808  -49.6077 H         1 UNK         0.0800 
    140 H140       -6.9032  -19.4993  -50.3307 H         1 UNK         0.0800 
    141 H141       -6.9567  -20.9135  -48.4961 H         1 UNK         0.0800 
    142 H142       -6.9475  -20.4018  -46.8278 H         1 UNK         0.0800 
    143 H143       -4.4962  -21.2545  -48.4513 H         1 UNK         0.0600 
    144 H144       -4.6431  -19.9333  -45.8687 H         1 UNK         0.3000 
    145 H145       -1.0808  -19.9575  -45.5873 H         1 UNK         0.0600 
    146 H146       -1.8800  -17.8847  -44.6916 H         1 UNK         0.0600 
    147 H147       -2.6168  -18.0441  -46.2672 H         1 UNK         0.0600 
    148 H148       -3.5684  -18.3637  -44.8211 H         1 UNK         0.0600 
    149 H149       -2.3495  -19.9078  -43.2254 H         1 UNK         0.3000 
    150 H150       -2.9737  -21.9870  -41.7482 H         1 UNK         0.0600 
    151 H151       -2.2967  -24.3212  -42.3424 H         1 UNK         0.0600 
    152 H152       -1.5812  -23.8520  -40.8158 H         1 UNK         0.0600 
    153 H153       -0.5978  -23.8617  -42.2777 H         1 UNK         0.0600 
    154 H154       -0.3960  -20.7626  -42.1497 H         1 UNK         0.3000 
    155 H155       -0.2839  -19.5288  -38.8180 H         1 UNK         0.0600 
    156 H156        1.8471  -21.2599  -40.1839 H         1 UNK         0.0600 
    157 H157        1.1843  -21.5412  -38.5782 H         1 UNK         0.0600 
    158 H158        2.1298  -20.0943  -38.8905 H         1 UNK         0.0600 
    159 H159        1.3672  -19.0191  -41.0917 H         1 UNK         0.3000 
    160 H160       -0.7409  -17.0445  -42.9807 H         1 UNK         0.0600 
    161 H161        1.2219  -15.7217  -41.0555 H         1 UNK         0.0600 
    162 H162       -0.4962  -15.3505  -41.1570 H         1 UNK         0.0600 
    163 H163        0.5486  -15.0208  -42.5260 H         1 UNK         0.0600 
    164 H164        1.9810  -16.8937  -43.1777 H         1 UNK         0.3000 
    165 H165        2.9528  -19.9795  -44.4869 H         1 UNK         0.0600 
    166 H166        2.9171  -19.0877  -46.7868 H         1 UNK         0.0600 
    167 H167        1.2740  -19.4807  -46.3118 H         1 UNK         0.0600 
    168 H168        1.7957  -17.8064  -46.3215 H         1 UNK         0.0600 
    169 H169        3.8027  -17.3108  -45.1132 H         1 UNK         0.3000 
    170 H170        5.5255  -16.5009  -42.2279 H         1 UNK         0.0600 
    171 H171        7.2179  -18.1247  -43.1028 H         1 UNK         0.0600 
    172 H172        6.9122  -17.5715  -44.7448 H         1 UNK         0.0600 
    173 H173        7.6195  -16.4768  -43.5555 H         1 UNK         0.0600 
    174 H174        5.7608  -15.3470  -44.7764 H         1 UNK         0.3000 
    175 H175        4.5991  -13.1627  -44.9325 H         1 UNK         0.0600 
    176 H176        2.5651  -14.9930  -46.3459 H         1 UNK         0.0600 
    177 H177        3.2646  -13.5305  -47.0342 H         1 UNK         0.0600 
    178 H178        4.2873  -14.9160  -46.7016 H         1 UNK         0.0600 
    179 H179        1.7205  -13.0700  -45.0773 H         1 UNK         0.3000 
    180 H180        1.0849  -11.4813  -42.0096 H         1 UNK         0.0600 
    181 H181        0.9859  -10.2030  -44.7897 H         1 UNK         0.0600 
    182 H182        1.7504   -9.5287  -43.3600 H         1 UNK         0.0600 
    183 H183        0.0057   -9.7284  -43.4025 H         1 UNK         0.0600 
    184 H184       -0.5712  -12.7589  -42.5988 H         1 UNK         0.3000 
    185 H185       -1.6305  -14.6051  -44.1459 H         1 UNK         0.0600 
    186 H186       -2.7483  -12.7443  -42.8506 H         1 UNK         0.0600 
    187 H187       -3.1917  -11.9478  -44.3564 H         1 UNK         0.0600 
    188 H188       -3.9033  -13.4998  -43.9233 H         1 UNK         0.0600 
    189 H189       -1.5537  -13.3840  -46.6583 H         1 UNK         0.3000 
    190 H190       -4.6499  -22.3819  -45.2466 H         1 UNK         0.3000 
    191 H191       -6.3470  -24.6897  -45.6407 H         1 UNK         0.0600 
    192 H192       -4.5108  -23.8847  -43.3256 H         1 UNK         0.0600 
    193 H193       -5.6777  -25.1997  -43.2889 H         1 UNK         0.0600 
    194 H194       -6.2346  -23.5430  -43.4604 H         1 UNK         0.0600 
    195 H195       -2.7738  -24.2197  -45.3151 H         1 UNK         0.3000 
    196 H196       -2.3462  -26.9784  -46.3755 H         1 UNK         0.0600 
    197 H197       -0.7724  -27.4443  -44.5265 H         1 UNK         0.0600 
    198 H198       -2.3724  -27.1183  -43.8777 H         1 UNK         0.0600 
    199 H199       -1.1159  -25.8831  -43.7944 H         1 UNK         0.0600 
    200 H200       -1.0127  -23.7051  -45.7905 H         1 UNK         0.3000 
    201 H201        1.5003  -24.3109  -47.1344 H         1 UNK         0.0600 
    202 H202        1.3467  -22.6645  -45.2780 H         1 UNK         0.0600 
    203 H203        0.2698  -21.6628  -46.2407 H         1 UNK         0.0600 
    204 H204        1.9378  -21.9036  -46.7471 H         1 UNK         0.0600 
    205 H205       -1.5627  -23.8421  -48.3151 H         1 UNK         0.3000 
    206 H206       -2.5366  -23.4622  -50.2662 H         1 UNK         0.0600 
    207 H207       -1.3414  -24.1089  -52.3353 H         1 UNK         0.0600 
    208 H208       -0.9605  -25.2361  -51.0485 H         1 UNK         0.0600 
    209 H209        0.2095  -24.0059  -51.5131 H         1 UNK         0.0600 
    210 H210       -1.7335  -21.2173  -48.8417 H         1 UNK         0.3000 
    211 H211       -1.5271  -19.0276  -48.8410 H         1 UNK         0.0600 
    212 H212       -2.5086  -17.7135  -50.6965 H         1 UNK         0.0600 
    213 H213       -3.5196  -19.0889  -50.2829 H         1 UNK         0.0600 
    214 H214       -2.5155  -19.1375  -51.7319 H         1 UNK         0.0600 
    215 H215        0.7707  -20.2265  -48.9457 H         1 UNK         0.3000 
    216 H216        2.9528  -20.0002  -49.1708 H         1 UNK         0.0600 
    217 H217        3.9868  -17.8641  -49.7741 H         1 UNK         0.0600 
    218 H218        2.5803  -17.5367  -48.7737 H         1 UNK         0.0600 
    219 H219        2.5047  -17.2817  -50.5134 H         1 UNK         0.0600 
    220 H220        1.8685  -21.7069  -50.7731 H         1 UNK         0.3000 
    221 H221        2.0701  -22.9871  -52.5599 H         1 UNK         0.0600 
    222 H222        4.7330  -21.5626  -53.0550 H         1 UNK         0.0600 
    223 H223        4.4821  -22.8952  -51.9280 H         1 UNK         0.0600 
    224 H224        4.2681  -23.1494  -53.6515 H         1 UNK         0.0600 
    225 H225        0.3485  -20.9128  -52.9966 H         1 UNK         0.3000 
    226 H226        0.6874  -20.1186  -55.8585 H         1 UNK         0.0600 
    227 H227       -1.1482  -18.9980  -53.6771 H         1 UNK         0.0600 
    228 H228        0.3619  -18.2587  -54.1983 H         1 UNK         0.0600 
    229 H229       -0.9869  -18.3800  -55.3172 H         1 UNK         0.0600 
    230 H230       -0.1947  -22.7682  -54.5628 H         1 UNK         0.3000 
    231 H231       -1.6411  -24.4390  -54.8063 H         1 UNK         0.0600 
    232 H232       -1.1370  -24.0772  -57.2381 H         1 UNK         0.0600 
    233 H233       -2.5498  -23.0311  -57.3726 H         1 UNK         0.0600 
    234 H234       -2.7448  -24.7356  -56.9886 H         1 UNK         0.0600 
    235 H235       -2.4689  -22.1330  -53.2480 H         1 UNK         0.3000 
    236 H236       -4.1163  -21.1993  -52.1301 H         1 UNK         0.0600 
    237 H237       -6.0516  -22.5573  -51.4615 H         1 UNK         0.0600 
    238 H238       -4.6274  -23.5805  -51.4935 H         1 UNK         0.0600 
    239 H239       -5.8016  -23.6657  -52.8039 H         1 UNK         0.0600 
    240 H240       -3.9060  -20.6751  -55.0694 H         1 UNK         0.3000 
    241 H241       -4.8352  -19.5474  -56.6883 H         1 UNK         0.0600 
    242 H242       -7.2500  -22.4662  -57.1938 H         1 UNK         0.3800 
    243 H243       -5.8536  -22.3998  -56.1467 H         1 UNK         0.3800 
    244 H244       -6.8898  -17.9751  -56.1026 H         1 UNK         0.0800 
    245 H245       -6.6044  -18.4382  -54.4580 H         1 UNK         0.0800 
    246 H246       -3.0846  -16.7699  -53.7682 H         1 UNK         0.0800 
    247 H247       -3.7141  -18.3854  -53.6854 H         1 UNK         0.0800 
@<TRIPOS>BOND
     1    1    2 1    
     2    1  127 1    
     3    1  128 1    
     4    1  129 1    
     5    2    3 2    
     6    2    4 am   BACKBONE|DICT|INTERRES
     7    4    5 1    
     8    4  130 1    
     9    5    6 1    
    10    5   65 1    
    11    5  131 1    
    12    6    7 1    
    13    6  132 1    
    14    6  133 1    
    15    7    8 1    
    16    8    9 1    
    17    8  134 1    
    18    8  135 1    
    19    9   10 ar   
    20    9   14 ar   
    21   10   11 ar   
    22   10  136 1    
    23   11   12 ar   
    24   11  126 1    
    25   12   13 ar   
    26   12  137 1    
    27   13   14 ar   
    28   13   15 1    
    29   14  138 1    
    30   15   16 1    
    31   15  139 1    
    32   15  140 1    
    33   16   17 1    
    34   17   18 1    
    35   17  141 1    
    36   17  142 1    
    37   18   19 1    
    38   18   67 1    
    39   18  143 1    
    40   19   20 am   BACKBONE|DICT|INTERRES
    41   19  144 1    
    42   20   21 2    
    43   20   22 1    
    44   22   23 1    
    45   22   24 1    
    46   22  145 1    
    47   23  146 1    
    48   23  147 1    
    49   23  148 1    
    50   24   25 am   BACKBONE|DICT|INTERRES
    51   24  149 1    
    52   25   26 2    
    53   25   27 1    
    54   27   28 1    
    55   27   29 1    
    56   27  150 1    
    57   28  151 1    
    58   28  152 1    
    59   28  153 1    
    60   29   30 am   BACKBONE|DICT|INTERRES
    61   29  154 1    
    62   30   31 2    
    63   30   32 1    
    64   32   33 1    
    65   32   34 1    
    66   32  155 1    
    67   33  156 1    
    68   33  157 1    
    69   33  158 1    
    70   34   35 am   BACKBONE|DICT|INTERRES
    71   34  159 1    
    72   35   36 2    
    73   35   37 1    
    74   37   38 1    
    75   37   39 1    
    76   37  160 1    
    77   38  161 1    
    78   38  162 1    
    79   38  163 1    
    80   39   40 am   BACKBONE|DICT|INTERRES
    81   39  164 1    
    82   40   41 2    
    83   40   42 1    
    84   42   43 1    
    85   42   44 1    
    86   42  165 1    
    87   43  166 1    
    88   43  167 1    
    89   43  168 1    
    90   44   45 am   BACKBONE|DICT|INTERRES
    91   44  169 1    
    92   45   46 2    
    93   45   47 1    
    94   47   48 1    
    95   47   49 1    
    96   47  170 1    
    97   48  171 1    
    98   48  172 1    
    99   48  173 1    
   100   49   50 am   BACKBONE|DICT|INTERRES
   101   49  174 1    
   102   50   51 2    
   103   50   52 1    
   104   52   53 1    
   105   52   54 1    
   106   52  175 1    
   107   53  176 1    
   108   53  177 1    
   109   53  178 1    
   110   54   55 am   BACKBONE|DICT|INTERRES
   111   54  179 1    
   112   55   56 2    
   113   55   57 1    
   114   57   58 1    
   115   57   59 1    
   116   57  180 1    
   117   58  181 1    
   118   58  182 1    
   119   58  183 1    
   120   59   60 am   BACKBONE|DICT|INTERRES
   121   59  184 1    
   122   60   61 2    
   123   60   62 1    
   124   62   63 1    
   125   62   64 1    
   126   62  185 1    
   127   63  186 1    
   128   63  187 1    
   129   63  188 1    
   130   64   65 am   BACKBONE|DICT|INTERRES
   131   64  189 1    
   132   65   66 2    
   133   67   68 2    
   134   67   69 am   BACKBONE|DICT|INTERRES
   135   69   70 1    
   136   69  190 1    
   137   70   71 1    
   138   70   72 1    
   139   70  191 1    
   140   71  192 1    
   141   71  193 1    
   142   71  194 1    
   143   72   73 2    
   144   72   74 am   BACKBONE|DICT|INTERRES
   145   74   75 1    
   146   74  195 1    
   147   75   76 1    
   148   75   77 1    
   149   75  196 1    
   150   76  197 1    
   151   76  198 1    
   152   76  199 1    
   153   77   78 2    
   154   77   79 am   BACKBONE|DICT|INTERRES
   155   79   80 1    
   156   79  200 1    
   157   80   81 1    
   158   80   82 1    
   159   80  201 1    
   160   81  202 1    
   161   81  203 1    
   162   81  204 1    
   163   82   83 2    
   164   82   84 am   BACKBONE|DICT|INTERRES
   165   84   85 1    
   166   84  205 1    
   167   85   86 1    
   168   85   87 1    
   169   85  206 1    
   170   86  207 1    
   171   86  208 1    
   172   86  209 1    
   173   87   88 2    
   174   87   89 am   BACKBONE|DICT|INTERRES
   175   89   90 1    
   176   89  210 1    
   177   90   91 1    
   178   90   92 1    
   179   90  211 1    
   180   91  212 1    
   181   91  213 1    
   182   91  214 1    
   183   92   93 2    
   184   92   94 am   BACKBONE|DICT|INTERRES
   185   94   95 1    
   186   94  215 1    
   187   95   96 1    
   188   95   97 1    
   189   95  216 1    
   190   96  217 1    
   191   96  218 1    
   192   96  219 1    
   193   97   98 2    
   194   97   99 am   BACKBONE|DICT|INTERRES
   195   99  100 1    
   196   99  220 1    
   197  100  101 1    
   198  100  102 1    
   199  100  221 1    
   200  101  222 1    
   201  101  223 1    
   202  101  224 1    
   203  102  103 2    
   204  102  104 am   BACKBONE|DICT|INTERRES
   205  104  105 1    
   206  104  225 1    
   207  105  106 1    
   208  105  107 1    
   209  105  226 1    
   210  106  227 1    
   211  106  228 1    
   212  106  229 1    
   213  107  108 2    
   214  107  109 am   BACKBONE|DICT|INTERRES
   215  109  110 1    
   216  109  230 1    
   217  110  111 1    
   218  110  112 1    
   219  110  231 1    
   220  111  232 1    
   221  111  233 1    
   222  111  234 1    
   223  112  113 2    
   224  112  114 am   BACKBONE|DICT|INTERRES
   225  114  115 1    
   226  114  235 1    
   227  115  116 1    
   228  115  117 1    
   229  115  236 1    
   230  116  237 1    
   231  116  238 1    
   232  116  239 1    
   233  117  118 2    
   234  117  119 am   BACKBONE|DICT|INTERRES
   235  119  120 1    
   236  119  240 1    
   237  120  121 1    
   238  120  124 1    
   239  120  241 1    
   240  121  122 am   BACKBONE|DICT|INTERRES
   241  121  123 2    
   242  122  242 1    
   243  122  243 1    
   244  124  125 1    
   245  124  244 1    
   246  124  245 1    
   247  125  126 1    
   248  126  246 1    
   249  126  247 1    
@<TRIPOS>SUBSTRUCTURE
     1 UNK         1 GROUP             0       ****    0 ROOT    
