@<TRIPOS>MOLECULE
3R540
247   249    1
SMALL
USER_CHARGES


@<TRIPOS>ATOM
      1 CA          4.5216  -14.3241  -47.4196 C.3       0 UNK        -0.1800 
      2 C           3.3345  -13.7900  -46.6331 C.2       0 UNK         0.5000 
      3 O           3.5071  -13.3255  -45.5077 O.2       0 UNK        -0.5000 
      4 N           2.1347  -13.8387  -47.2263 N.am      1 UNK        -0.5000 
      5 CA          0.8486  -13.4562  -46.6213 C.3       1 UNK         0.1400 
      6 C6         -0.3379  -13.6732  -47.5955 C.3       23 UNK        -0.0398 
      7 S7         -0.4466  -15.3707  -48.2572 S.3       23 UNK        -0.2404 
      8 C8          0.2612  -15.1380  -49.9182 C.3       23 UNK        -0.0205 
      9 C9          0.2605  -16.4208  -50.7370 C.ar      23 UNK        -0.0193 
     10 C10        -0.3593  -16.4488  -51.9903 C.ar      23 UNK        -0.1150 
     11 C11        -0.3174  -17.6008  -52.7805 C.ar      23 UNK        -0.0193 
     12 C12         0.3413  -18.7359  -52.3018 C.ar      23 UNK        -0.1150 
     13 C13         0.9595  -18.7246  -51.0478 C.ar      23 UNK        -0.0193 
     14 C14         0.9198  -17.5637  -50.2708 C.ar      23 UNK        -0.1150 
     15 C15         1.6939  -19.9616  -50.5570 C.3       23 UNK        -0.0205 
     16 S16         0.5354  -21.2222  -49.9458 S.3       23 UNK        -0.2404 
     17 C17         0.3266  -20.7648  -48.1873 C.3       23 UNK        -0.0398 
     18 CA          0.1484  -22.0286  -47.3095 C.3       11 UNK         0.1400 
     19 N           0.4717  -21.8081  -45.8975 N.am      11 UNK        -0.5000 
     20 C           0.5858  -22.7984  -44.9979 C.2       10 UNK         0.5000 
     21 O           0.4793  -23.9928  -45.2774 O.2       10 UNK        -0.5000 
     22 CA          0.7990  -22.3920  -43.5306 C.3       10 UNK         0.1400 
     23 CB          2.2621  -21.9994  -43.2790 C.3       10 UNK        -0.1800 
     24 N          -0.0924  -21.3091  -43.1152 N.am      10 UNK        -0.5000 
     25 C          -1.4305  -21.3963  -43.0902 C.2       9 UNK         0.5000 
     26 O          -2.0540  -22.4202  -43.3693 O.2       9 UNK        -0.5000 
     27 CA         -2.2067  -20.1144  -42.7396 C.3       9 UNK         0.1400 
     28 CB         -2.2379  -19.8914  -41.2205 C.3       9 UNK        -0.1800 
     29 N          -1.6667  -18.9254  -43.3985 N.am      9 UNK        -0.5000 
     30 C          -1.6072  -18.7413  -44.7254 C.2       8 UNK         0.5000 
     31 O          -2.0269  -19.5490  -45.5531 O.2       8 UNK        -0.5000 
     32 CA         -0.9048  -17.4616  -45.2073 C.3       8 UNK         0.1400 
     33 CB         -1.8140  -16.2349  -45.0256 C.3       8 UNK        -0.1800 
     34 N           0.3682  -17.2536  -44.5164 N.am      8 UNK        -0.5000 
     35 C           1.4249  -18.0734  -44.6227 C.2       7 UNK         0.5000 
     36 O           1.4614  -19.0523  -45.3694 O.2       7 UNK        -0.5000 
     37 CA          2.6190  -17.7826  -43.6970 C.3       7 UNK         0.1400 
     38 CB          3.5586  -16.7444  -44.3240 C.3       7 UNK        -0.1800 
     39 N           2.1888  -17.3230  -42.3757 N.am      7 UNK        -0.5000 
     40 C           1.6002  -18.1115  -41.4638 C.2       6 UNK         0.5000 
     41 O           1.3970  -19.3123  -41.6325 O.2       6 UNK        -0.5000 
     42 CA          1.1135  -17.4413  -40.1654 C.3       6 UNK         0.1400 
     43 CB          2.2481  -17.3799  -39.1323 C.3       6 UNK        -0.1800 
     44 N           0.5874  -16.0945  -40.3856 N.am      6 UNK        -0.5000 
     45 C          -0.4813  -15.8013  -41.1409 C.2       5 UNK         0.5000 
     46 O          -1.1874  -16.6546  -41.6760 O.2       5 UNK        -0.5000 
     47 CA         -0.7813  -14.3075  -41.3767 C.3       5 UNK         0.1400 
     48 CB         -1.8755  -13.8200  -40.4162 C.3       5 UNK        -0.1800 
     49 N           0.4065  -13.4605  -41.2285 N.am      5 UNK        -0.5000 
     50 C           1.4566  -13.4803  -42.0598 C.2       4 UNK         0.5000 
     51 O           1.5121  -14.1764  -43.0752 O.2       4 UNK        -0.5000 
     52 CA          2.6789  -12.6678  -41.6206 C.3       4 UNK         0.1400 
     53 CB          3.6912  -13.5788  -40.9009 C.3       4 UNK        -0.1800 
     54 N           3.3086  -12.0346  -42.7736 N.am      4 UNK        -0.5000 
     55 C           4.0869  -10.9464  -42.7012 C.2       3 UNK         0.5000 
     56 O           4.3641  -10.3737  -41.6461 O.2       3 UNK        -0.5000 
     57 CA          4.6343  -10.3835  -44.0219 C.3       3 UNK         0.1400 
     58 CB          5.8923  -11.1468  -44.4669 C.3       3 UNK        -0.1800 
     59 N           3.6264  -10.4278  -45.0789 N.am      3 UNK        -0.5000 
     60 C           2.6972   -9.4815  -45.2752 C.2       2 UNK         0.5000 
     61 O           2.6191   -8.4539  -44.6006 O.2       2 UNK        -0.5000 
     62 CA          1.6915   -9.7000  -46.4224 C.3       2 UNK         0.1400 
     63 CB          2.1196   -8.9074  -47.6673 C.3       2 UNK        -0.1800 
     64 N           1.5389  -11.1068  -46.7906 N.am      2 UNK        -0.5000 
     65 C           0.8195  -12.0022  -46.0999 C.2       1 UNK         0.5000 
     66 O           0.1598  -11.7230  -45.0986 O.2       1 UNK        -0.5000 
     67 C          -1.2518  -22.6521  -47.4794 C.2       11 UNK         0.5000 
     68 O          -1.3816  -23.6384  -48.2016 O.2       11 UNK        -0.5000 
     69 N          -2.2550  -22.1132  -46.7707 N.am      12 UNK        -0.5000 
     70 CA         -3.6315  -22.6097  -46.7791 C.3       12 UNK         0.1400 
     71 CB         -4.5322  -21.6769  -45.9575 C.3       12 UNK        -0.1800 
     72 C          -3.7642  -24.0652  -46.2973 C.2       12 UNK         0.5000 
     73 O          -4.5515  -24.8190  -46.8700 O.2       12 UNK        -0.5000 
     74 N          -2.9792  -24.4434  -45.2812 N.am      13 UNK        -0.5000 
     75 CA         -2.8824  -25.8143  -44.7869 C.3       13 UNK         0.1400 
     76 CB         -2.1551  -25.8199  -43.4335 C.3       13 UNK        -0.1800 
     77 C          -2.1845  -26.7525  -45.7895 C.2       13 UNK         0.5000 
     78 O          -2.6717  -27.8592  -46.0220 O.2       13 UNK        -0.5000 
     79 N          -1.0599  -26.2988  -46.3597 N.am      14 UNK        -0.5000 
     80 CA         -0.2239  -27.0760  -47.2744 C.3       14 UNK         0.1400 
     81 CB          1.1483  -26.3977  -47.4110 C.3       14 UNK        -0.1800 
     82 C          -0.8588  -27.2900  -48.6599 C.2       14 UNK         0.5000 
     83 O          -0.8502  -28.4142  -49.1632 O.2       14 UNK        -0.5000 
     84 N          -1.3766  -26.2114  -49.2596 N.am      15 UNK        -0.5000 
     85 CA         -1.8966  -26.1923  -50.6284 C.3       15 UNK         0.1400 
     86 CB         -1.5753  -24.8284  -51.2629 C.3       15 UNK        -0.1800 
     87 C          -3.4031  -26.5012  -50.7184 C.2       15 UNK         0.5000 
     88 O          -3.9098  -26.6214  -51.8344 O.2       15 UNK        -0.5000 
     89 N          -4.0793  -26.6338  -49.5654 N.am      16 UNK        -0.5000 
     90 CA         -5.5236  -26.8278  -49.3917 C.3       16 UNK         0.1400 
     91 CB         -5.9977  -28.1570  -50.0167 C.3       16 UNK        -0.1800 
     92 C          -6.3019  -25.5995  -49.9025 C.2       16 UNK         0.5000 
     93 O          -6.8732  -25.6270  -50.9943 O.2       16 UNK        -0.5000 
     94 N          -6.2587  -24.5349  -49.0917 N.am      17 UNK        -0.5000 
     95 CA         -6.6532  -23.1550  -49.3894 C.3       17 UNK         0.1400 
     96 CB         -8.1168  -23.0498  -49.8744 C.3       17 UNK        -0.1800 
     97 C          -5.6244  -22.4779  -50.3194 C.2       17 UNK         0.5000 
     98 O          -4.4608  -22.8828  -50.3309 O.2       17 UNK        -0.5000 
     99 N          -6.0382  -21.4238  -51.0344 N.am      18 UNK        -0.5000 
    100 CA        -5.1867  -20.6470  -51.9368 C.3       18 UNK         0.1400 
    101 CB        -5.9843  -19.4445  -52.4627 C.3       18 UNK        -0.1800 
    102 C         -4.6494  -21.5046  -53.0981 C.2       18 UNK         0.5000 
    103 O         -5.4442  -22.1212  -53.8127 O.2       18 UNK        -0.5000 
    104 N         -3.3199  -21.5257  -53.2597 N.am      19 UNK        -0.5000 
    105 CA        -2.5979  -22.3070  -54.2640 C.3       19 UNK         0.1400 
    106 CB        -1.0871  -22.1226  -54.0538 C.3       19 UNK        -0.1800 
    107 C         -3.0110  -21.9101  -55.6917 C.2       19 UNK         0.5000 
    108 O         -2.7736  -20.7724  -56.0975 O.2       19 UNK        -0.5000 
    109 N         -3.6724  -22.8380  -56.3974 N.am      20 UNK        -0.5000 
    110 CA        -4.2837  -22.6590  -57.7213 C.3       20 UNK         0.1400 
    111 CB        -3.1997  -22.4555  -58.8011 C.3       20 UNK        -0.1800 
    112 C         -5.3751  -21.5625  -57.7515 C.2       20 UNK         0.5000 
    113 O         -5.5929  -20.9451  -58.7954 O.2       20 UNK        -0.5000 
    114 N         -6.0403  -21.3478  -56.6041 N.am      21 UNK        -0.5000 
    115 CA        -7.0792  -20.3455  -56.3510 C.3       21 UNK         0.1400 
    116 CB        -8.3523  -20.6526  -57.1679 C.3       21 UNK        -0.1800 
    117 C         -6.5739  -18.8967  -56.5266 C.2       21 UNK         0.5000 
    118 O         -7.2778  -18.0629  -57.0993 O.2       21 UNK        -0.5000 
    119 N         -5.3593  -18.6217  -56.0294 N.am      22 UNK        -0.5000 
    120 CA        -4.6915  -17.3096  -56.1036 C.3       22 UNK         0.1400 
    121 C         -5.3465  -16.1444  -55.2972 C.2       22 UNK         0.5000 
    122 N         -6.3436  -16.3849  -54.4546 N.am      22 UNK        -0.7600 
    123 O         -4.9486  -14.9929  -55.4526 O.2       22 UNK        -0.5000 
    124 C124       -3.1693  -17.4240  -55.8280 C.3       23 UNK        -0.0398 
    125 S125       -2.7317  -17.8996  -54.1164 S.3       23 UNK        -0.2404 
    126 C126       -0.9399  -17.5949  -54.1683 C.3       23 UNK        -0.0205 
    127 H127        5.0006  -15.1326  -46.8676 H         1 UNK         0.0600 
    128 H128        5.2556  -13.5329  -47.5721 H         1 UNK         0.0600 
    129 H129        4.2234  -14.7075  -48.3956 H         1 UNK         0.0600 
    130 H130        2.0671  -14.2438  -48.1473 H         1 UNK         0.3000 
    131 H131        0.7076  -14.1068  -45.7560 H         1 UNK         0.0600 
    132 H132       -1.2812  -13.4667  -47.0862 H         1 UNK         0.0800 
    133 H133       -0.2894  -12.9670  -48.4265 H         1 UNK         0.0800 
    134 H134       -0.3018  -14.3579  -50.4334 H         1 UNK         0.0800 
    135 H135        1.2868  -14.7780  -49.8373 H         1 UNK         0.0800 
    136 H136       -0.8603  -15.5670  -52.3648 H         1 UNK         0.1150 
    137 H137        0.3872  -19.6281  -52.9085 H         1 UNK         0.1150 
    138 H138        1.4071  -17.5451  -49.3059 H         1 UNK         0.1150 
    139 H139        2.2643  -20.3876  -51.3837 H         1 UNK         0.0800 
    140 H140        2.4253  -19.7074  -49.7885 H         1 UNK         0.0800 
    141 H141       -0.5111  -20.0731  -48.0801 H         1 UNK         0.0800 
    142 H142        1.2129  -20.2182  -47.8638 H         1 UNK         0.0800 
    143 H143        0.8692  -22.7715  -47.6594 H         1 UNK         0.0600 
    144 H144        0.5993  -20.8461  -45.5984 H         1 UNK         0.3000 
    145 H145        0.5724  -23.2620  -42.9109 H         1 UNK         0.0600 
    146 H146        2.4408  -21.8023  -42.2220 H         1 UNK         0.0600 
    147 H147        2.9383  -22.8013  -43.5779 H         1 UNK         0.0600 
    148 H148        2.5428  -21.1075  -43.8388 H         1 UNK         0.0600 
    149 H149        0.3517  -20.4496  -42.8059 H         1 UNK         0.3000 
    150 H150       -3.2345  -20.2433  -43.0842 H         1 UNK         0.0600 
    151 H151       -2.6736  -20.7505  -40.7090 H         1 UNK         0.0600 
    152 H152       -2.8385  -19.0189  -40.9624 H         1 UNK         0.0600 
    153 H153       -1.2377  -19.7398  -40.8148 H         1 UNK         0.0600 
    154 H154       -1.3346  -18.1811  -42.7906 H         1 UNK         0.3000 
    155 H155       -0.6903  -17.5773  -46.2713 H         1 UNK         0.0600 
    156 H156       -2.1777  -16.1367  -44.0037 H         1 UNK         0.0600 
    157 H157       -1.2969  -15.3119  -45.2809 H         1 UNK         0.0600 
    158 H158       -2.6880  -16.3075  -45.6737 H         1 UNK         0.0600 
    159 H159        0.4209  -16.4790  -43.8705 H         1 UNK         0.3000 
    160 H160        3.1794  -18.7113  -43.5720 H         1 UNK         0.0600 
    161 H161        3.9119  -17.0759  -45.3011 H         1 UNK         0.0600 
    162 H162        4.4355  -16.5740  -43.6995 H         1 UNK         0.0600 
    163 H163        3.0574  -15.7879  -44.4640 H         1 UNK         0.0600 
    164 H164        2.2779  -16.3345  -42.1885 H         1 UNK         0.3000 
    165 H165        0.3081  -18.0539  -39.7554 H         1 UNK         0.0600 
    166 H166        1.8964  -16.9747  -38.1834 H         1 UNK         0.0600 
    167 H167        2.6463  -18.3755  -38.9315 H         1 UNK         0.0600 
    168 H168        3.0758  -16.7590  -39.4774 H         1 UNK         0.0600 
    169 H169        1.0993  -15.3330  -39.9672 H         1 UNK         0.3000 
    170 H170       -1.1498  -14.2032  -42.3996 H         1 UNK         0.0600 
    171 H171       -2.7820  -14.4176  -40.5224 H         1 UNK         0.0600 
    172 H172       -1.5580  -13.8874  -39.3749 H         1 UNK         0.0600 
    173 H173       -2.1457  -12.7837  -40.6197 H         1 UNK         0.0600 
    174 H174        0.4358  -12.8683  -40.4107 H         1 UNK         0.3000 
    175 H175        2.3423  -11.8913  -40.9301 H         1 UNK         0.0600 
    176 H176        4.0721  -14.3559  -41.5652 H         1 UNK         0.0600 
    177 H177        4.5442  -13.0107  -40.5298 H         1 UNK         0.0600 
    178 H178        3.2363  -14.0725  -40.0416 H         1 UNK         0.0600 
    179 H179        3.1310  -12.4767  -43.6722 H         1 UNK         0.3000 
    180 H180        4.9254   -9.3450  -43.8492 H         1 UNK         0.0600 
    181 H181        5.6970  -12.2088  -44.6150 H         1 UNK         0.0600 
    182 H182        6.6799  -11.0637  -43.7171 H         1 UNK         0.0600 
    183 H183        6.2880  -10.7452  -45.3998 H         1 UNK         0.0600 
    184 H184        3.5749  -11.2892  -45.6095 H         1 UNK         0.3000 
    185 H185        0.7240   -9.3164  -46.0914 H         1 UNK         0.0600 
    186 H186        2.2157   -7.8448  -47.4401 H         1 UNK         0.0600 
    187 H187        3.0816   -9.2490  -48.0515 H         1 UNK         0.0600 
    188 H188        1.3849   -9.0017  -48.4672 H         1 UNK         0.0600 
    189 H189        2.0531  -11.4238  -47.5997 H         1 UNK         0.3000 
    190 H190       -2.0769  -21.2810  -46.2124 H         1 UNK         0.3000 
    191 H191       -3.9726  -22.5789  -47.8126 H         1 UNK         0.0600 
    192 H192       -4.2191  -21.6327  -44.9145 H         1 UNK         0.0600 
    193 H193       -5.5683  -22.0171  -45.9754 H         1 UNK         0.0600 
    194 H194       -4.5161  -20.6622  -46.3556 H         1 UNK         0.0600 
    195 H195       -2.4083  -23.7444  -44.8156 H         1 UNK         0.3000 
    196 H196       -3.8950  -26.1905  -44.6265 H         1 UNK         0.0600 
    197 H197       -2.0783  -26.8320  -43.0346 H         1 UNK         0.0600 
    198 H198       -2.6901  -25.2191  -42.6978 H         1 UNK         0.0600 
    199 H199       -1.1437  -25.4204  -43.5164 H         1 UNK         0.0600 
    200 H200       -0.7104  -25.3822  -46.0965 H         1 UNK         0.3000 
    201 H201       -0.0648  -28.0606  -46.8294 H         1 UNK         0.0600 
    202 H202        1.6532  -26.3339  -46.4470 H         1 UNK         0.0600 
    203 H203        1.0591  -25.3857  -47.8081 H         1 UNK         0.0600 
    204 H204        1.7989  -26.9593  -48.0825 H         1 UNK         0.0600 
    205 H205       -1.3553  -25.3112  -48.7788 H         1 UNK         0.3000 
    206 H206       -1.3814  -26.9538  -51.2176 H         1 UNK         0.0600 
    207 H207       -0.5069  -24.6153  -51.2263 H         1 UNK         0.0600 
    208 H208       -1.8761  -24.8035  -52.3103 H         1 UNK         0.0600 
    209 H209       -2.0940  -24.0151  -50.7556 H         1 UNK         0.0600 
    210 H210       -3.5583  -26.4848  -48.7123 H         1 UNK         0.3000 
    211 H211       -5.6987  -26.9006  -48.3171 H         1 UNK         0.0600 
    212 H212       -5.8894  -28.1688  -51.1012 H         1 UNK         0.0600 
    213 H213       -7.0514  -28.3306  -49.7961 H         1 UNK         0.0600 
    214 H214       -5.4376  -29.0014  -49.6153 H         1 UNK         0.0600 
    215 H215       -5.7018  -24.6389  -48.2447 H         1 UNK         0.3000 
    216 H216       -6.5896  -22.6252  -48.4382 H         1 UNK         0.0600 
    217 H217       -8.2338  -23.3937  -50.9026 H         1 UNK         0.0600 
    218 H218       -8.4728  -22.0201  -49.8313 H         1 UNK         0.0600 
    219 H219       -8.7824  -23.6421  -49.2463 H         1 UNK         0.0600 
    220 H220       -7.0108  -21.1587  -50.9930 H         1 UNK         0.3000 
    221 H221       -4.3426  -20.2676  -51.3568 H         1 UNK         0.0600 
    222 H222       -6.3034  -18.7957  -51.6468 H         1 UNK         0.0600 
    223 H223       -6.8737  -19.7575  -53.0100 H         1 UNK         0.0600 
    224 H224       -5.3761  -18.8402  -53.1342 H         1 UNK         0.0600 
    225 H225       -2.7480  -20.9660  -52.6448 H         1 UNK         0.3000 
    226 H226       -2.8391  -23.3591  -54.1002 H         1 UNK         0.0600 
    227 H227       -0.7889  -22.3890  -53.0394 H         1 UNK         0.0600 
    228 H228       -0.5199  -22.7550  -54.7377 H         1 UNK         0.0600 
    229 H229       -0.7831  -21.0915  -54.2347 H         1 UNK         0.0600 
    230 H230       -3.8485  -23.7323  -55.9604 H         1 UNK         0.3000 
    231 H231       -4.7970  -23.5948  -57.9463 H         1 UNK         0.0600 
    232 H232       -2.6905  -21.4978  -58.6895 H         1 UNK         0.0600 
    233 H233       -3.6338  -22.4789  -59.8013 H         1 UNK         0.0600 
    234 H234       -2.4472  -23.2428  -58.7580 H         1 UNK         0.0600 
    235 H235       -5.7649  -21.8856  -55.7874 H         1 UNK         0.3000 
    236 H236       -7.3421  -20.4464  -55.2977 H         1 UNK         0.0600 
    237 H237       -9.1709  -19.9933  -56.8771 H         1 UNK         0.0600 
    238 H238       -8.1919  -20.5198  -58.2382 H         1 UNK         0.0600 
    239 H239       -8.6885  -21.6763  -57.0034 H         1 UNK         0.0600 
    240 H240       -4.8143  -19.3672  -55.6191 H         1 UNK         0.3000 
    241 H241       -4.7827  -16.9982  -57.1460 H         1 UNK         0.0600 
    242 H242       -6.6998  -17.3175  -54.3341 H         1 UNK         0.3800 
    243 H243       -6.7583  -15.6185  -53.9484 H         1 UNK         0.3800 
    244 H244       -2.7263  -18.1502  -56.5104 H         1 UNK         0.0800 
    245 H245       -2.6837  -16.4749  -56.0611 H         1 UNK         0.0800 
    246 H246       -0.7446  -16.6313  -54.6412 H         1 UNK         0.0800 
    247 H247       -0.4695  -18.3486  -54.8019 H         1 UNK         0.0800 
@<TRIPOS>BOND
     1    1    2 1    
     2    1  127 1    
     3    1  128 1    
     4    1  129 1    
     5    2    3 2    
     6    2    4 am   BACKBONE|DICT|INTERRES
     7    4    5 1    
     8    4  130 1    
     9    5    6 1    
    10    5   65 1    
    11    5  131 1    
    12    6    7 1    
    13    6  132 1    
    14    6  133 1    
    15    7    8 1    
    16    8    9 1    
    17    8  134 1    
    18    8  135 1    
    19    9   10 ar   
    20    9   14 ar   
    21   10   11 ar   
    22   10  136 1    
    23   11   12 ar   
    24   11  126 1    
    25   12   13 ar   
    26   12  137 1    
    27   13   14 ar   
    28   13   15 1    
    29   14  138 1    
    30   15   16 1    
    31   15  139 1    
    32   15  140 1    
    33   16   17 1    
    34   17   18 1    
    35   17  141 1    
    36   17  142 1    
    37   18   19 1    
    38   18   67 1    
    39   18  143 1    
    40   19   20 am   BACKBONE|DICT|INTERRES
    41   19  144 1    
    42   20   21 2    
    43   20   22 1    
    44   22   23 1    
    45   22   24 1    
    46   22  145 1    
    47   23  146 1    
    48   23  147 1    
    49   23  148 1    
    50   24   25 am   BACKBONE|DICT|INTERRES
    51   24  149 1    
    52   25   26 2    
    53   25   27 1    
    54   27   28 1    
    55   27   29 1    
    56   27  150 1    
    57   28  151 1    
    58   28  152 1    
    59   28  153 1    
    60   29   30 am   BACKBONE|DICT|INTERRES
    61   29  154 1    
    62   30   31 2    
    63   30   32 1    
    64   32   33 1    
    65   32   34 1    
    66   32  155 1    
    67   33  156 1    
    68   33  157 1    
    69   33  158 1    
    70   34   35 am   BACKBONE|DICT|INTERRES
    71   34  159 1    
    72   35   36 2    
    73   35   37 1    
    74   37   38 1    
    75   37   39 1    
    76   37  160 1    
    77   38  161 1    
    78   38  162 1    
    79   38  163 1    
    80   39   40 am   BACKBONE|DICT|INTERRES
    81   39  164 1    
    82   40   41 2    
    83   40   42 1    
    84   42   43 1    
    85   42   44 1    
    86   42  165 1    
    87   43  166 1    
    88   43  167 1    
    89   43  168 1    
    90   44   45 am   BACKBONE|DICT|INTERRES
    91   44  169 1    
    92   45   46 2    
    93   45   47 1    
    94   47   48 1    
    95   47   49 1    
    96   47  170 1    
    97   48  171 1    
    98   48  172 1    
    99   48  173 1    
   100   49   50 am   BACKBONE|DICT|INTERRES
   101   49  174 1    
   102   50   51 2    
   103   50   52 1    
   104   52   53 1    
   105   52   54 1    
   106   52  175 1    
   107   53  176 1    
   108   53  177 1    
   109   53  178 1    
   110   54   55 am   BACKBONE|DICT|INTERRES
   111   54  179 1    
   112   55   56 2    
   113   55   57 1    
   114   57   58 1    
   115   57   59 1    
   116   57  180 1    
   117   58  181 1    
   118   58  182 1    
   119   58  183 1    
   120   59   60 am   BACKBONE|DICT|INTERRES
   121   59  184 1    
   122   60   61 2    
   123   60   62 1    
   124   62   63 1    
   125   62   64 1    
   126   62  185 1    
   127   63  186 1    
   128   63  187 1    
   129   63  188 1    
   130   64   65 am   BACKBONE|DICT|INTERRES
   131   64  189 1    
   132   65   66 2    
   133   67   68 2    
   134   67   69 am   BACKBONE|DICT|INTERRES
   135   69   70 1    
   136   69  190 1    
   137   70   71 1    
   138   70   72 1    
   139   70  191 1    
   140   71  192 1    
   141   71  193 1    
   142   71  194 1    
   143   72   73 2    
   144   72   74 am   BACKBONE|DICT|INTERRES
   145   74   75 1    
   146   74  195 1    
   147   75   76 1    
   148   75   77 1    
   149   75  196 1    
   150   76  197 1    
   151   76  198 1    
   152   76  199 1    
   153   77   78 2    
   154   77   79 am   BACKBONE|DICT|INTERRES
   155   79   80 1    
   156   79  200 1    
   157   80   81 1    
   158   80   82 1    
   159   80  201 1    
   160   81  202 1    
   161   81  203 1    
   162   81  204 1    
   163   82   83 2    
   164   82   84 am   BACKBONE|DICT|INTERRES
   165   84   85 1    
   166   84  205 1    
   167   85   86 1    
   168   85   87 1    
   169   85  206 1    
   170   86  207 1    
   171   86  208 1    
   172   86  209 1    
   173   87   88 2    
   174   87   89 am   BACKBONE|DICT|INTERRES
   175   89   90 1    
   176   89  210 1    
   177   90   91 1    
   178   90   92 1    
   179   90  211 1    
   180   91  212 1    
   181   91  213 1    
   182   91  214 1    
   183   92   93 2    
   184   92   94 am   BACKBONE|DICT|INTERRES
   185   94   95 1    
   186   94  215 1    
   187   95   96 1    
   188   95   97 1    
   189   95  216 1    
   190   96  217 1    
   191   96  218 1    
   192   96  219 1    
   193   97   98 2    
   194   97   99 am   BACKBONE|DICT|INTERRES
   195   99  100 1    
   196   99  220 1    
   197  100  101 1    
   198  100  102 1    
   199  100  221 1    
   200  101  222 1    
   201  101  223 1    
   202  101  224 1    
   203  102  103 2    
   204  102  104 am   BACKBONE|DICT|INTERRES
   205  104  105 1    
   206  104  225 1    
   207  105  106 1    
   208  105  107 1    
   209  105  226 1    
   210  106  227 1    
   211  106  228 1    
   212  106  229 1    
   213  107  108 2    
   214  107  109 am   BACKBONE|DICT|INTERRES
   215  109  110 1    
   216  109  230 1    
   217  110  111 1    
   218  110  112 1    
   219  110  231 1    
   220  111  232 1    
   221  111  233 1    
   222  111  234 1    
   223  112  113 2    
   224  112  114 am   BACKBONE|DICT|INTERRES
   225  114  115 1    
   226  114  235 1    
   227  115  116 1    
   228  115  117 1    
   229  115  236 1    
   230  116  237 1    
   231  116  238 1    
   232  116  239 1    
   233  117  118 2    
   234  117  119 am   BACKBONE|DICT|INTERRES
   235  119  120 1    
   236  119  240 1    
   237  120  121 1    
   238  120  124 1    
   239  120  241 1    
   240  121  122 am   BACKBONE|DICT|INTERRES
   241  121  123 2    
   242  122  242 1    
   243  122  243 1    
   244  124  125 1    
   245  124  244 1    
   246  124  245 1    
   247  125  126 1    
   248  126  246 1    
   249  126  247 1    
@<TRIPOS>SUBSTRUCTURE
     1 UNK         1 GROUP             0       ****    0 ROOT    
