@<TRIPOS>MOLECULE
3R540
247   249    1
SMALL
USER_CHARGES


@<TRIPOS>ATOM
      1 CA          4.7491  -14.2278  -44.2339 C.3       0 UNK        -0.1800 
      2 C           3.5149  -14.1787  -45.1202 C.2       0 UNK         0.5000 
      3 O           2.5055  -14.8098  -44.7990 O.2       0 UNK        -0.5000 
      4 N           3.5998  -13.4479  -46.2365 N.am      1 UNK        -0.5000 
      5 CA          2.5231  -13.2346  -47.2053 C.3       1 UNK         0.1400 
      6 C6          3.1062  -12.8075  -48.5773 C.3       23 UNK        -0.0398 
      7 S7          1.8661  -12.6101  -49.9077 S.3       23 UNK        -0.2404 
      8 C8          2.1848  -14.0357  -50.9965 C.3       23 UNK        -0.0205 
      9 C9          1.2438  -15.1931  -50.6999 C.ar      23 UNK        -0.0193 
     10 C10        -0.0780  -15.1432  -51.1493 C.ar      23 UNK        -0.1150 
     11 C11        -0.9559  -16.1993  -50.8960 C.ar      23 UNK        -0.0193 
     12 C12        -0.5013  -17.3176  -50.1928 C.ar      23 UNK        -0.1150 
     13 C13         0.8253  -17.3913  -49.7498 C.ar      23 UNK        -0.0193 
     14 C14         1.6885  -16.3177  -49.9998 C.ar      23 UNK        -0.1150 
     15 C15         1.3401  -18.5843  -48.9504 C.3       23 UNK        -0.0205 
     16 S16         0.7939  -20.2213  -49.5417 S.3       23 UNK        -0.2404 
     17 C17        -0.7882  -20.4684  -48.6605 C.3       23 UNK        -0.0398 
     18 CA         -0.8245  -21.8016  -47.8732 C.3       11 UNK         0.1400 
     19 N           0.0060  -21.8012  -46.6620 N.am      11 UNK        -0.5000 
     20 C           0.2598  -22.8970  -45.9290 C.2       10 UNK         0.5000 
     21 O          -0.1083  -24.0272  -46.2469 O.2       10 UNK        -0.5000 
     22 CA          0.9903  -22.7005  -44.5895 C.3       10 UNK         0.1400 
     23 CB          2.5126  -22.6294  -44.7856 C.3       10 UNK        -0.1800 
     24 N           0.5148  -21.5157  -43.8749 N.am      10 UNK        -0.5000 
     25 C          -0.6793  -21.4298  -43.2717 C.2       9 UNK         0.5000 
     26 O          -1.4888  -22.3564  -43.2340 O.2       9 UNK        -0.5000 
     27 CA         -1.0495  -20.0758  -42.6331 C.3       9 UNK         0.1400 
     28 CB         -0.4638  -19.9696  -41.2174 C.3       9 UNK        -0.1800 
     29 N          -0.6091  -18.9241  -43.4195 N.am      9 UNK        -0.5000 
     30 C          -1.0110  -18.6497  -44.6678 C.2       8 UNK         0.5000 
     31 O          -1.8496  -19.3083  -45.2810 O.2       8 UNK        -0.5000 
     32 CA         -0.2946  -17.4915  -45.3833 C.3       8 UNK         0.1400 
     33 CB         -0.9344  -16.1462  -45.0183 C.3       8 UNK        -0.1800 
     34 N           1.1503  -17.4542  -45.1230 N.am      8 UNK        -0.5000 
     35 C           1.9979  -18.4728  -45.3450 C.2       7 UNK         0.5000 
     36 O           1.6494  -19.5609  -45.7983 O.2       7 UNK        -0.5000 
     37 CA          3.4720  -18.2598  -44.9819 C.3       7 UNK         0.1400 
     38 CB          4.2182  -17.5638  -46.1307 C.3       7 UNK        -0.1800 
     39 N           3.5917  -17.4934  -43.7425 N.am      7 UNK        -0.5000 
     40 C           3.5292  -18.0483  -42.5237 C.2       6 UNK         0.5000 
     41 O           3.4487  -19.2612  -42.3266 O.2       6 UNK        -0.5000 
     42 CA          3.5297  -17.0872  -41.3207 C.3       6 UNK         0.1400 
     43 CB          4.9674  -16.7196  -40.9233 C.3       6 UNK        -0.1800 
     44 N           2.7672  -15.8584  -41.5469 N.am      6 UNK        -0.5000 
     45 C           1.4516  -15.7947  -41.7897 C.2       5 UNK         0.5000 
     46 O           0.7402  -16.7933  -41.9081 O.2       5 UNK        -0.5000 
     47 CA          0.8187  -14.3974  -41.9707 C.3       5 UNK         0.1400 
     48 CB         -0.4228  -14.2152  -41.0766 C.3       5 UNK        -0.1800 
     49 N           1.7327  -13.2539  -41.8379 N.am      5 UNK        -0.5000 
     50 C           2.3806  -12.8134  -40.7477 C.2       4 UNK         0.5000 
     51 O           2.3686  -13.3883  -39.6600 O.2       4 UNK        -0.5000 
     52 CA          3.1896  -11.5105  -40.9069 C.3       4 UNK         0.1400 
     53 CB          4.6880  -11.8092  -41.0693 C.3       4 UNK        -0.1800 
     54 N           2.7307  -10.7172  -42.0512 N.am      4 UNK        -0.5000 
     55 C           1.7395   -9.8177  -41.9910 C.2       3 UNK         0.5000 
     56 O           1.1782   -9.4785  -40.9485 O.2       3 UNK        -0.5000 
     57 CA          1.2731   -9.2350  -43.3366 C.3       3 UNK         0.1400 
     58 CB          2.3781   -8.4002  -44.0043 C.3       3 UNK        -0.1800 
     59 N           0.8221  -10.2782  -44.2602 N.am      3 UNK        -0.5000 
     60 C          -0.2570  -11.0523  -44.0887 C.2       2 UNK         0.5000 
     61 O          -0.9949  -10.9793  -43.1066 O.2       2 UNK        -0.5000 
     62 CA         -0.5812  -12.0926  -45.1804 C.3       2 UNK         0.1400 
     63 CB         -1.5288  -11.4996  -46.2397 C.3       2 UNK        -0.1800 
     64 N           0.5753  -12.7426  -45.8143 N.am      2 UNK        -0.5000 
     65 C           1.5125  -12.2243  -46.6192 C.2       1 UNK         0.5000 
     66 O           1.6318  -11.0203  -46.8525 O.2       1 UNK        -0.5000 
     67 C          -2.2774  -22.2116  -47.5569 C.2       11 UNK         0.5000 
     68 O          -2.8392  -23.0249  -48.2897 O.2       11 UNK        -0.5000 
     69 N          -2.8486  -21.6886  -46.4621 N.am      12 UNK        -0.5000 
     70 CA         -4.1812  -22.0442  -45.9685 C.3       12 UNK         0.1400 
     71 CB         -4.5639  -21.1370  -44.7903 C.3       12 UNK        -0.1800 
     72 C          -4.2961  -23.5298  -45.5810 C.2       12 UNK         0.5000 
     73 O          -5.2635  -24.1815  -45.9762 O.2       12 UNK        -0.5000 
     74 N          -3.2822  -24.0544  -44.8758 N.am      13 UNK        -0.5000 
     75 CA         -3.1537  -25.4736  -44.5265 C.3       13 UNK         0.1400 
     76 CB         -1.9643  -25.6624  -43.5736 C.3       13 UNK        -0.1800 
     77 C          -3.0172  -26.3935  -45.7571 C.2       13 UNK         0.5000 
     78 O          -3.5000  -27.5253  -45.7269 O.2       13 UNK        -0.5000 
     79 N          -2.4155  -25.8717  -46.8336 N.am      14 UNK        -0.5000 
     80 CA         -2.3090  -26.4993  -48.1513 C.3       14 UNK         0.1400 
     81 CB         -1.0286  -25.9925  -48.8393 C.3       14 UNK        -0.1800 
     82 C          -3.5583  -26.2766  -49.0347 C.2       14 UNK         0.5000 
     83 O          -3.4612  -26.4150  -50.2538 O.2       14 UNK        -0.5000 
     84 N          -4.7034  -25.9300  -48.4267 N.am      15 UNK        -0.5000 
     85 CA         -6.0117  -25.7093  -49.0524 C.3       15 UNK         0.1400 
     86 CB         -6.5557  -27.0176  -49.6653 C.3       15 UNK        -0.1800 
     87 C          -5.9992  -24.5307  -50.0456 C.2       15 UNK         0.5000 
     88 O          -6.4699  -24.6644  -51.1757 O.2       15 UNK        -0.5000 
     89 N          -5.4372  -23.4022  -49.5901 N.am      16 UNK        -0.5000 
     90 CA         -5.2153  -22.1544  -50.3289 C.3       16 UNK         0.1400 
     91 CB         -6.5476  -21.5276  -50.7836 C.3       16 UNK        -0.1800 
     92 C          -4.1992  -22.3365  -51.4740 C.2       16 UNK         0.5000 
     93 O          -4.4149  -21.8477  -52.5850 O.2       16 UNK        -0.5000 
     94 N          -3.1064  -23.0473  -51.1603 N.am      17 UNK        -0.5000 
     95 CA         -2.0253  -23.4592  -52.0604 C.3       17 UNK         0.1400 
     96 CB         -1.1881  -22.2415  -52.5015 C.3       17 UNK        -0.1800 
     97 C          -2.5293  -24.3339  -53.2295 C.2       17 UNK         0.5000 
     98 O          -2.1174  -24.1502  -54.3771 O.2       17 UNK        -0.5000 
     99 N          -3.4183  -25.2795  -52.8938 N.am      18 UNK        -0.5000 
    100 CA        -4.0518  -26.2750  -53.7563 C.3       18 UNK         0.1400 
    101 CB        -3.0488  -27.4113  -54.0554 C.3       18 UNK        -0.1800 
    102 C         -4.6963  -25.6510  -55.0123 C.2       18 UNK         0.5000 
    103 O         -5.6556  -24.8877  -54.8893 O.2       18 UNK        -0.5000 
    104 N         -4.1546  -25.9768  -56.1931 N.am      19 UNK        -0.5000 
    105 CA        -4.6269  -25.5362  -57.5057 C.3       19 UNK         0.1400 
    106 CB        -3.8839  -26.3370  -58.5869 C.3       19 UNK        -0.1800 
    107 C         -4.4924  -24.0226  -57.7676 C.2       19 UNK         0.5000 
    108 O         -5.1318  -23.5258  -58.6963 O.2       19 UNK        -0.5000 
    109 N         -3.6786  -23.3120  -56.9709 N.am      20 UNK        -0.5000 
    110 CA        -3.5126  -21.8599  -57.0669 C.3       20 UNK         0.1400 
    111 CB        -2.3079  -21.4209  -56.2240 C.3       20 UNK        -0.1800 
    112 C         -4.7719  -21.0818  -56.6403 C.2       20 UNK         0.5000 
    113 O         -5.0290  -20.0154  -57.2003 O.2       20 UNK        -0.5000 
    114 N         -5.5256  -21.6345  -55.6741 N.am      21 UNK        -0.5000 
    115 CA        -6.7594  -21.0958  -55.0895 C.3       21 UNK         0.1400 
    116 CB        -7.9215  -21.2154  -56.0961 C.3       21 UNK        -0.1800 
    117 C         -6.5732  -19.6630  -54.5446 C.2       21 UNK         0.5000 
    118 O         -7.3040  -18.7457  -54.9229 O.2       21 UNK        -0.5000 
    119 N         -5.5589  -19.5019  -53.6879 N.am      22 UNK        -0.5000 
    120 CA        -5.0726  -18.2203  -53.1492 C.3       22 UNK         0.1400 
    121 C         -6.0072  -17.5083  -52.1185 C.2       22 UNK         0.5000 
    122 N         -7.1852  -18.0302  -51.8026 N.am      22 UNK        -0.7600 
    123 O         -5.6681  -16.4495  -51.5993 O.2       22 UNK        -0.5000 
    124 C124       -3.6104  -18.3643  -52.6359 C.3       23 UNK        -0.0398 
    125 S125       -2.5869  -16.8990  -53.0136 S.3       23 UNK        -0.2404 
    126 C126       -2.3954  -16.1223  -51.3777 C.3       23 UNK        -0.0205 
    127 H127        4.4608  -14.2747  -43.1858 H         1 UNK         0.0600 
    128 H128        5.3761  -13.3470  -44.3740 H         1 UNK         0.0600 
    129 H129        5.3441  -15.1112  -44.4641 H         1 UNK         0.0600 
    130 H130        4.4565  -12.9474  -46.4264 H         1 UNK         0.3000 
    131 H131        2.0036  -14.1840  -47.3568 H         1 UNK         0.0600 
    132 H132        3.8542  -13.5350  -48.8934 H         1 UNK         0.0800 
    133 H133        3.6425  -11.8618  -48.4821 H         1 UNK         0.0800 
    134 H134        2.0364  -13.7183  -52.0298 H         1 UNK         0.0800 
    135 H135        3.2270  -14.3506  -50.9319 H         1 UNK         0.0800 
    136 H136       -0.4241  -14.2763  -51.6949 H         1 UNK         0.1150 
    137 H137       -1.1876  -18.1267  -49.9977 H         1 UNK         0.1150 
    138 H138        2.7103  -16.3556  -49.6486 H         1 UNK         0.1150 
    139 H139        2.4309  -18.5862  -48.9368 H         1 UNK         0.0800 
    140 H140        1.0231  -18.4483  -47.9254 H         1 UNK         0.0800 
    141 H141       -1.5690  -20.4544  -49.4237 H         1 UNK         0.0800 
    142 H142       -0.9970  -19.6277  -47.9977 H         1 UNK         0.0800 
    143 H143       -0.4274  -22.5789  -48.5298 H         1 UNK         0.0600 
    144 H144        0.3960  -20.9132  -46.3590 H         1 UNK         0.3000 
    145 H145        0.7807  -23.5731  -43.9671 H         1 UNK         0.0600 
    146 H146        3.0269  -22.4822  -43.8357 H         1 UNK         0.0600 
    147 H147        2.8881  -23.5573  -45.2186 H         1 UNK         0.0600 
    148 H148        2.8054  -21.8206  -45.4539 H         1 UNK         0.0600 
    149 H149        1.0933  -20.6890  -43.9355 H         1 UNK         0.3000 
    150 H150       -2.1377  -20.0309  -42.5578 H         1 UNK         0.0600 
    151 H151       -0.7816  -20.8087  -40.5973 H         1 UNK         0.0600 
    152 H152       -0.7936  -19.0555  -40.7230 H         1 UNK         0.0600 
    153 H153        0.6271  -19.9643  -41.2338 H         1 UNK         0.0600 
    154 H154        0.0496  -18.2916  -42.9733 H         1 UNK         0.3000 
    155 H155       -0.4344  -17.6354  -46.4546 H         1 UNK         0.0600 
    156 H156       -0.9016  -15.9610  -43.9457 H         1 UNK         0.0600 
    157 H157       -1.9832  -16.1243  -45.3171 H         1 UNK         0.0600 
    158 H158       -0.4363  -15.3237  -45.5279 H         1 UNK         0.0600 
    159 H159        1.5301  -16.5791  -44.7812 H         1 UNK         0.3000 
    160 H160        3.9308  -19.2412  -44.8418 H         1 UNK         0.0600 
    161 H161        3.7150  -16.6562  -46.4610 H         1 UNK         0.0600 
    162 H162        4.2816  -18.2231  -46.9972 H         1 UNK         0.0600 
    163 H163        5.2381  -17.3057  -45.8457 H         1 UNK         0.0600 
    164 H164        3.5806  -16.4861  -43.8205 H         1 UNK         0.3000 
    165 H165        3.0669  -17.6114  -40.4819 H         1 UNK         0.0600 
    166 H166        4.9830  -16.1049  -40.0230 H         1 UNK         0.0600 
    167 H167        5.5552  -17.6145  -40.7145 H         1 UNK         0.0600 
    168 H168        5.4778  -16.1695  -41.7147 H         1 UNK         0.0600 
    169 H169        3.2617  -14.9881  -41.4284 H         1 UNK         0.3000 
    170 H170        0.4779  -14.3630  -43.0047 H         1 UNK         0.0600 
    171 H171       -1.1708  -14.9819  -41.2823 H         1 UNK         0.0600 
    172 H172       -0.1728  -14.2806  -40.0175 H         1 UNK         0.0600 
    173 H173       -0.8954  -13.2484  -41.2516 H         1 UNK         0.0600 
    174 H174        1.8362  -12.7009  -42.6746 H         1 UNK         0.3000 
    175 H175        3.0634  -10.9365  -39.9863 H         1 UNK         0.0600 
    176 H176        4.9038  -12.3188  -42.0067 H         1 UNK         0.0600 
    177 H177        5.2722  -10.8890  -41.0516 H         1 UNK         0.0600 
    178 H178        5.0545  -12.4396  -40.2578 H         1 UNK         0.0600 
    179 H179        3.1614  -10.9049  -42.9443 H         1 UNK         0.3000 
    180 H180        0.4271   -8.5739  -43.1365 H         1 UNK         0.0600 
    181 H181        3.2309   -9.0120  -44.3003 H         1 UNK         0.0600 
    182 H182        2.7455   -7.6262  -43.3292 H         1 UNK         0.0600 
    183 H183        2.0037   -7.8998  -44.8976 H         1 UNK         0.0600 
    184 H184        1.3309  -10.3822  -45.1346 H         1 UNK         0.3000 
    185 H185       -1.1231  -12.8963  -44.6790 H         1 UNK         0.0600 
    186 H186       -2.4371  -11.1121  -45.7766 H         1 UNK         0.0600 
    187 H187       -1.0661  -10.6769  -46.7856 H         1 UNK         0.0600 
    188 H188       -1.8312  -12.2553  -46.9649 H         1 UNK         0.0600 
    189 H189        0.6735  -13.7273  -45.6049 H         1 UNK         0.3000 
    190 H190       -2.3484  -20.9753  -45.9362 H         1 UNK         0.3000 
    191 H191       -4.8911  -21.8586  -46.7771 H         1 UNK         0.0600 
    192 H192       -4.5635  -20.0876  -45.0854 H         1 UNK         0.0600 
    193 H193       -5.5646  -21.3717  -44.4255 H         1 UNK         0.0600 
    194 H194       -3.8749  -21.2487  -43.9535 H         1 UNK         0.0600 
    195 H195       -2.5458  -23.4389  -44.5441 H         1 UNK         0.3000 
    196 H196       -4.0625  -25.7671  -43.9971 H         1 UNK         0.0600 
    197 H197       -1.8663  -26.7061  -43.2726 H         1 UNK         0.0600 
    198 H198       -2.0889  -25.0726  -42.6653 H         1 UNK         0.0600 
    199 H199       -1.0246  -25.3656  -44.0394 H         1 UNK         0.0600 
    200 H200       -2.0093  -24.9469  -46.7510 H         1 UNK         0.3000 
    201 H201       -2.2076  -27.5781  -48.0186 H         1 UNK         0.0600 
    202 H202       -0.1513  -26.1708  -48.2174 H         1 UNK         0.0600 
    203 H203       -1.0785  -24.9238  -49.0447 H         1 UNK         0.0600 
    204 H204       -0.8595  -26.5026  -49.7883 H         1 UNK         0.0600 
    205 H205       -4.6757  -25.7718  -47.4274 H         1 UNK         0.3000 
    206 H206       -6.6888  -25.4206  -48.2472 H         1 UNK         0.0600 
    207 H207       -6.5677  -27.8219  -48.9298 H         1 UNK         0.0600 
    208 H208       -7.5792  -26.8857  -50.0179 H         1 UNK         0.0600 
    209 H209       -5.9593  -27.3494  -50.5157 H         1 UNK         0.0600 
    210 H210       -4.9978  -23.4417  -48.6792 H         1 UNK         0.3000 
    211 H211       -4.7562  -21.4604  -49.6235 H         1 UNK         0.0600 
    212 H212       -7.0257  -22.1055  -51.5747 H         1 UNK         0.0600 
    213 H213       -6.3798  -20.5242  -51.1677 H         1 UNK         0.0600 
    214 H214       -7.2498  -21.4433  -49.9543 H         1 UNK         0.0600 
    215 H215       -3.0271  -23.3635  -50.1984 H         1 UNK         0.3000 
    216 H216       -1.3700  -24.1051  -51.4746 H         1 UNK         0.0600 
    217 H217       -0.3781  -22.5372  -53.1691 H         1 UNK         0.0600 
    218 H218       -0.7328  -21.7537  -51.6410 H         1 UNK         0.0600 
    219 H219       -1.7884  -21.4958  -53.0196 H         1 UNK         0.0600 
    220 H220       -3.6574  -25.3686  -51.9110 H         1 UNK         0.3000 
    221 H221       -4.8712  -26.7019  -53.1759 H         1 UNK         0.0600 
    222 H222       -2.1659  -27.0528  -54.5860 H         1 UNK         0.0600 
    223 H223       -2.7071  -27.8752  -53.1297 H         1 UNK         0.0600 
    224 H224       -3.5079  -28.1988  -54.6545 H         1 UNK         0.0600 
    225 H225       -3.3469  -26.5825  -56.1907 H         1 UNK         0.3000 
    226 H226       -5.6896  -25.7781  -57.5724 H         1 UNK         0.0600 
    227 H227       -4.0454  -27.4085  -58.4668 H         1 UNK         0.0600 
    228 H228       -4.2339  -26.0683  -59.5845 H         1 UNK         0.0600 
    229 H229       -2.8094  -26.1523  -58.5555 H         1 UNK         0.0600 
    230 H230       -3.1855  -23.7807  -56.2184 H         1 UNK         0.3000 
    231 H231       -3.3030  -21.6123  -58.1097 H         1 UNK         0.0600 
    232 H232       -1.4047  -21.9634  -56.5034 H         1 UNK         0.0600 
    233 H233       -2.4899  -21.5904  -55.1641 H         1 UNK         0.0600 
    234 H234       -2.1066  -20.3569  -56.3543 H         1 UNK         0.0600 
    235 H235       -5.2129  -22.5129  -55.2801 H         1 UNK         0.3000 
    236 H236       -6.9961  -21.7273  -54.2317 H         1 UNK         0.0600 
    237 H237       -8.8632  -20.9008  -55.6450 H         1 UNK         0.0600 
    238 H238       -7.7580  -20.5976  -56.9797 H         1 UNK         0.0600 
    239 H239       -8.0484  -22.2461  -56.4278 H         1 UNK         0.0600 
    240 H240       -5.0463  -20.3335  -53.3993 H         1 UNK         0.3000 
    241 H241       -5.0537  -17.5469  -54.0082 H         1 UNK         0.0600 
    242 H242       -7.7770  -17.5497  -51.1434 H         1 UNK         0.3800 
    243 H243       -7.5152  -18.8629  -52.2615 H         1 UNK         0.3800 
    244 H244       -3.1173  -19.2006  -53.1344 H         1 UNK         0.0800 
    245 H245       -3.5778  -18.6101  -51.5734 H         1 UNK         0.0800 
    246 H246       -3.0603  -16.5789  -50.6438 H         1 UNK         0.0800 
    247 H247       -2.7093  -15.0799  -51.4504 H         1 UNK         0.0800 
@<TRIPOS>BOND
     1    1    2 1    
     2    1  127 1    
     3    1  128 1    
     4    1  129 1    
     5    2    3 2    
     6    2    4 am   BACKBONE|DICT|INTERRES
     7    4    5 1    
     8    4  130 1    
     9    5    6 1    
    10    5   65 1    
    11    5  131 1    
    12    6    7 1    
    13    6  132 1    
    14    6  133 1    
    15    7    8 1    
    16    8    9 1    
    17    8  134 1    
    18    8  135 1    
    19    9   10 ar   
    20    9   14 ar   
    21   10   11 ar   
    22   10  136 1    
    23   11   12 ar   
    24   11  126 1    
    25   12   13 ar   
    26   12  137 1    
    27   13   14 ar   
    28   13   15 1    
    29   14  138 1    
    30   15   16 1    
    31   15  139 1    
    32   15  140 1    
    33   16   17 1    
    34   17   18 1    
    35   17  141 1    
    36   17  142 1    
    37   18   19 1    
    38   18   67 1    
    39   18  143 1    
    40   19   20 am   BACKBONE|DICT|INTERRES
    41   19  144 1    
    42   20   21 2    
    43   20   22 1    
    44   22   23 1    
    45   22   24 1    
    46   22  145 1    
    47   23  146 1    
    48   23  147 1    
    49   23  148 1    
    50   24   25 am   BACKBONE|DICT|INTERRES
    51   24  149 1    
    52   25   26 2    
    53   25   27 1    
    54   27   28 1    
    55   27   29 1    
    56   27  150 1    
    57   28  151 1    
    58   28  152 1    
    59   28  153 1    
    60   29   30 am   BACKBONE|DICT|INTERRES
    61   29  154 1    
    62   30   31 2    
    63   30   32 1    
    64   32   33 1    
    65   32   34 1    
    66   32  155 1    
    67   33  156 1    
    68   33  157 1    
    69   33  158 1    
    70   34   35 am   BACKBONE|DICT|INTERRES
    71   34  159 1    
    72   35   36 2    
    73   35   37 1    
    74   37   38 1    
    75   37   39 1    
    76   37  160 1    
    77   38  161 1    
    78   38  162 1    
    79   38  163 1    
    80   39   40 am   BACKBONE|DICT|INTERRES
    81   39  164 1    
    82   40   41 2    
    83   40   42 1    
    84   42   43 1    
    85   42   44 1    
    86   42  165 1    
    87   43  166 1    
    88   43  167 1    
    89   43  168 1    
    90   44   45 am   BACKBONE|DICT|INTERRES
    91   44  169 1    
    92   45   46 2    
    93   45   47 1    
    94   47   48 1    
    95   47   49 1    
    96   47  170 1    
    97   48  171 1    
    98   48  172 1    
    99   48  173 1    
   100   49   50 am   BACKBONE|DICT|INTERRES
   101   49  174 1    
   102   50   51 2    
   103   50   52 1    
   104   52   53 1    
   105   52   54 1    
   106   52  175 1    
   107   53  176 1    
   108   53  177 1    
   109   53  178 1    
   110   54   55 am   BACKBONE|DICT|INTERRES
   111   54  179 1    
   112   55   56 2    
   113   55   57 1    
   114   57   58 1    
   115   57   59 1    
   116   57  180 1    
   117   58  181 1    
   118   58  182 1    
   119   58  183 1    
   120   59   60 am   BACKBONE|DICT|INTERRES
   121   59  184 1    
   122   60   61 2    
   123   60   62 1    
   124   62   63 1    
   125   62   64 1    
   126   62  185 1    
   127   63  186 1    
   128   63  187 1    
   129   63  188 1    
   130   64   65 am   BACKBONE|DICT|INTERRES
   131   64  189 1    
   132   65   66 2    
   133   67   68 2    
   134   67   69 am   BACKBONE|DICT|INTERRES
   135   69   70 1    
   136   69  190 1    
   137   70   71 1    
   138   70   72 1    
   139   70  191 1    
   140   71  192 1    
   141   71  193 1    
   142   71  194 1    
   143   72   73 2    
   144   72   74 am   BACKBONE|DICT|INTERRES
   145   74   75 1    
   146   74  195 1    
   147   75   76 1    
   148   75   77 1    
   149   75  196 1    
   150   76  197 1    
   151   76  198 1    
   152   76  199 1    
   153   77   78 2    
   154   77   79 am   BACKBONE|DICT|INTERRES
   155   79   80 1    
   156   79  200 1    
   157   80   81 1    
   158   80   82 1    
   159   80  201 1    
   160   81  202 1    
   161   81  203 1    
   162   81  204 1    
   163   82   83 2    
   164   82   84 am   BACKBONE|DICT|INTERRES
   165   84   85 1    
   166   84  205 1    
   167   85   86 1    
   168   85   87 1    
   169   85  206 1    
   170   86  207 1    
   171   86  208 1    
   172   86  209 1    
   173   87   88 2    
   174   87   89 am   BACKBONE|DICT|INTERRES
   175   89   90 1    
   176   89  210 1    
   177   90   91 1    
   178   90   92 1    
   179   90  211 1    
   180   91  212 1    
   181   91  213 1    
   182   91  214 1    
   183   92   93 2    
   184   92   94 am   BACKBONE|DICT|INTERRES
   185   94   95 1    
   186   94  215 1    
   187   95   96 1    
   188   95   97 1    
   189   95  216 1    
   190   96  217 1    
   191   96  218 1    
   192   96  219 1    
   193   97   98 2    
   194   97   99 am   BACKBONE|DICT|INTERRES
   195   99  100 1    
   196   99  220 1    
   197  100  101 1    
   198  100  102 1    
   199  100  221 1    
   200  101  222 1    
   201  101  223 1    
   202  101  224 1    
   203  102  103 2    
   204  102  104 am   BACKBONE|DICT|INTERRES
   205  104  105 1    
   206  104  225 1    
   207  105  106 1    
   208  105  107 1    
   209  105  226 1    
   210  106  227 1    
   211  106  228 1    
   212  106  229 1    
   213  107  108 2    
   214  107  109 am   BACKBONE|DICT|INTERRES
   215  109  110 1    
   216  109  230 1    
   217  110  111 1    
   218  110  112 1    
   219  110  231 1    
   220  111  232 1    
   221  111  233 1    
   222  111  234 1    
   223  112  113 2    
   224  112  114 am   BACKBONE|DICT|INTERRES
   225  114  115 1    
   226  114  235 1    
   227  115  116 1    
   228  115  117 1    
   229  115  236 1    
   230  116  237 1    
   231  116  238 1    
   232  116  239 1    
   233  117  118 2    
   234  117  119 am   BACKBONE|DICT|INTERRES
   235  119  120 1    
   236  119  240 1    
   237  120  121 1    
   238  120  124 1    
   239  120  241 1    
   240  121  122 am   BACKBONE|DICT|INTERRES
   241  121  123 2    
   242  122  242 1    
   243  122  243 1    
   244  124  125 1    
   245  124  244 1    
   246  124  245 1    
   247  125  126 1    
   248  126  246 1    
   249  126  247 1    
@<TRIPOS>SUBSTRUCTURE
     1 UNK         1 GROUP             0       ****    0 ROOT    
