@<TRIPOS>MOLECULE
3R540
247   249    1
SMALL
USER_CHARGES


@<TRIPOS>ATOM
      1 CA          4.9558  -17.3290  -46.2883 C.3       0 UNK        -0.1800 
      2 C           4.7475  -17.6448  -47.7687 C.2       0 UNK         0.5000 
      3 O           5.2150  -18.6842  -48.2282 O.2       0 UNK        -0.5000 
      4 N           4.0540  -16.8086  -48.5551 N.am      1 UNK        -0.5000 
      5 CA          3.5245  -15.4814  -48.2211 C.3       1 UNK         0.1400 
      6 C6          2.6347  -14.9281  -49.3641 C.3       23 UNK        -0.0398 
      7 S7          0.8889  -15.4432  -49.2303 S.3       23 UNK        -0.2404 
      8 C8          0.9120  -17.1799  -49.7858 C.3       23 UNK        -0.0205 
      9 C9         -0.4475  -17.6312  -50.3124 C.ar      23 UNK        -0.0193 
     10 C10        -0.5500  -18.1935  -51.5889 C.ar      23 UNK        -0.1150 
     11 C11        -1.7931  -18.5707  -52.1063 C.ar      23 UNK        -0.0193 
     12 C12        -2.9425  -18.3900  -51.3312 C.ar      23 UNK        -0.1150 
     13 C13        -2.8563  -17.8445  -50.0478 C.ar      23 UNK        -0.0193 
     14 C14        -1.6050  -17.4797  -49.5391 C.ar      23 UNK        -0.1150 
     15 C15        -4.1234  -17.6066  -49.2372 C.3       23 UNK        -0.0205 
     16 S16        -4.7014  -19.1065  -48.3809 S.3       23 UNK        -0.2404 
     17 C17        -3.4347  -19.3017  -47.0854 C.3       23 UNK        -0.0398 
     18 CA         -2.4819  -20.4814  -47.3867 C.3       11 UNK         0.1400 
     19 N          -1.1664  -20.3211  -46.7687 N.am      11 UNK        -0.5000 
     20 C          -0.1251  -21.1348  -46.9874 C.2       10 UNK         0.5000 
     21 O          -0.1553  -22.0814  -47.7740 O.2       10 UNK        -0.5000 
     22 CA          1.1448  -20.8893  -46.1559 C.3       10 UNK         0.1400 
     23 CB          2.0358  -19.8359  -46.8257 C.3       10 UNK        -0.1800 
     24 N           0.8586  -20.4872  -44.7782 N.am      10 UNK        -0.5000 
     25 C           0.2264  -21.2493  -43.8752 C.2       9 UNK         0.5000 
     26 O          -0.1626  -22.3943  -44.1015 O.2       9 UNK        -0.5000 
     27 CA         -0.0710  -20.6092  -42.5079 C.3       9 UNK         0.1400 
     28 CB          1.1909  -20.5595  -41.6337 C.3       9 UNK        -0.1800 
     29 N          -0.6440  -19.2688  -42.6309 N.am      9 UNK        -0.5000 
     30 C          -1.8237  -18.9998  -43.2098 C.2       8 UNK         0.5000 
     31 O          -2.5770  -19.8612  -43.6680 O.2       8 UNK        -0.5000 
     32 CA         -2.2008  -17.5125  -43.3453 C.3       8 UNK         0.1400 
     33 CB         -2.7314  -16.9570  -42.0154 C.3       8 UNK        -0.1800 
     34 N          -1.0860  -16.6874  -43.8155 N.am      8 UNK        -0.5000 
     35 C          -0.4823  -16.8449  -45.0021 C.2       7 UNK         0.5000 
     36 O          -0.8259  -17.6757  -45.8382 O.2       7 UNK        -0.5000 
     37 CA          0.7488  -15.9764  -45.2896 C.3       7 UNK         0.1400 
     38 CB          0.3420  -14.5554  -45.7059 C.3       7 UNK        -0.1800 
     39 N           1.6712  -15.9169  -44.1598 N.am      7 UNK        -0.5000 
     40 C           2.3078  -16.9677  -43.6258 C.2       6 UNK         0.5000 
     41 O           2.2371  -18.1111  -44.0709 O.2       6 UNK        -0.5000 
     42 CA          3.1307  -16.6988  -42.3565 C.3       6 UNK         0.1400 
     43 CB          4.5016  -16.0980  -42.7056 C.3       6 UNK        -0.1800 
     44 N           2.4225  -15.8138  -41.4326 N.am      6 UNK        -0.5000 
     45 C           1.3062  -16.1481  -40.7696 C.2       5 UNK         0.5000 
     46 O           0.7720  -17.2556  -40.8397 O.2       5 UNK        -0.5000 
     47 CA          0.6608  -15.0417  -39.9157 C.3       5 UNK         0.1400 
     48 CB          1.3486  -14.9420  -38.5460 C.3       5 UNK        -0.1800 
     49 N           0.6961  -13.7341  -40.5744 N.am      5 UNK        -0.5000 
     50 C          -0.0113  -13.4264  -41.6704 C.2       4 UNK         0.5000 
     51 O          -0.7831  -14.2079  -42.2266 O.2       4 UNK        -0.5000 
     52 CA          0.2179  -12.0259  -42.2722 C.3       4 UNK         0.1400 
     53 CB         -0.6316  -10.9772  -41.5387 C.3       4 UNK        -0.1800 
     54 N           1.6224  -11.5976  -42.2804 N.am      4 UNK        -0.5000 
     55 C           2.6144  -12.2588  -42.8907 C.2       3 UNK         0.5000 
     56 O           2.4628  -13.3521  -43.4389 O.2       3 UNK        -0.5000 
     57 CA          4.0155  -11.6174  -42.8544 C.3       3 UNK         0.1400 
     58 CB          4.6858  -11.8852  -41.4977 C.3       3 UNK        -0.1800 
     59 N           4.8724  -12.1592  -43.9121 N.am      3 UNK        -0.5000 
     60 C           4.6862  -11.9614  -45.2239 C.2       2 UNK         0.5000 
     61 O           3.8799  -11.1519  -45.6853 O.2       2 UNK        -0.5000 
     62 CA          5.4776  -12.8577  -46.1889 C.3       2 UNK         0.1400 
     63 CB          6.6701  -13.5985  -45.5427 C.3       2 UNK        -0.1800 
     64 N           4.5260  -13.8169  -46.7376 N.am      2 UNK        -0.5000 
     65 C           4.6675  -14.5027  -47.8763 C.2       1 UNK         0.5000 
     66 O           5.6363  -14.3994  -48.6315 O.2       1 UNK        -0.5000 
     67 C          -3.1286  -21.8309  -47.0149 C.2       11 UNK         0.5000 
     68 O          -3.6588  -22.5166  -47.8881 O.2       11 UNK        -0.5000 
     69 N          -3.0441  -22.2064  -45.7330 N.am      12 UNK        -0.5000 
     70 CA         -3.5276  -23.4891  -45.2322 C.3       12 UNK         0.1400 
     71 CB         -3.6100  -23.4390  -43.6988 C.3       12 UNK        -0.1800 
     72 C          -2.6581  -24.6696  -45.7034 C.2       12 UNK         0.5000 
     73 O          -3.1984  -25.6598  -46.1963 O.2       12 UNK        -0.5000 
     74 N          -1.3361  -24.5514  -45.5265 N.am      13 UNK        -0.5000 
     75 CA         -0.3822  -25.6406  -45.7253 C.3       13 UNK         0.1400 
     76 CB          0.8980  -25.3466  -44.9268 C.3       13 UNK        -0.1800 
     77 C          -0.0411  -25.9157  -47.1987 C.2       13 UNK         0.5000 
     78 O          -0.0602  -27.0758  -47.6120 O.2       13 UNK        -0.5000 
     79 N           0.3076  -24.8644  -47.9507 N.am      14 UNK        -0.5000 
     80 CA          0.8575  -24.9738  -49.3021 C.3       14 UNK         0.1400 
     81 CB          2.0332  -23.9954  -49.4620 C.3       14 UNK        -0.1800 
     82 C          -0.2095  -24.7215  -50.3742 C.2       14 UNK         0.5000 
     83 O          -0.2696  -25.4730  -51.3480 O.2       14 UNK        -0.5000 
     84 N          -1.0392  -23.6852  -50.1827 N.am      15 UNK        -0.5000 
     85 CA         -2.0986  -23.3204  -51.1312 C.3       15 UNK         0.1400 
     86 CB         -2.4160  -21.8235  -51.0180 C.3       15 UNK        -0.1800 
     87 C          -3.3804  -24.1575  -50.9659 C.2       15 UNK         0.5000 
     88 O          -4.2760  -24.0348  -51.8024 O.2       15 UNK        -0.5000 
     89 N          -3.4485  -24.9674  -49.8979 N.am      16 UNK        -0.5000 
     90 CA         -4.5311  -25.8854  -49.5333 C.3       16 UNK         0.1400 
     91 CB         -4.5834  -27.0723  -50.5162 C.3       16 UNK        -0.1800 
     92 C          -5.8862  -25.1715  -49.3528 C.2       16 UNK         0.5000 
     93 O          -6.8921  -25.5891  -49.9276 O.2       16 UNK        -0.5000 
     94 N          -5.8658  -24.0879  -48.5641 N.am      17 UNK        -0.5000 
     95 CA         -6.9734  -23.1753  -48.2658 C.3       17 UNK         0.1400 
     96 CB         -8.1255  -23.8998  -47.5384 C.3       17 UNK        -0.1800 
     97 C          -7.4198  -22.3950  -49.5172 C.2       17 UNK         0.5000 
     98 O          -8.6139  -22.3054  -49.8078 O.2       17 UNK        -0.5000 
     99 N          -6.4241  -21.8527  -50.2332 N.am      18 UNK        -0.5000 
    100 CA        -6.5377  -21.0594  -51.4617 C.3       18 UNK         0.1400 
    101 CB        -7.2951  -19.7388  -51.2100 C.3       18 UNK        -0.1800 
    102 C         -7.1027  -21.8430  -52.6655 C.2       18 UNK         0.5000 
    103 O         -7.6477  -21.2360  -53.5884 O.2       18 UNK        -0.5000 
    104 N         -6.9109  -23.1698  -52.6850 N.am      19 UNK        -0.5000 
    105 CA        -7.1937  -24.0283  -53.8401 C.3       19 UNK         0.1400 
    106 CB        -7.1188  -25.5010  -53.4179 C.3       19 UNK        -0.1800 
    107 C         -6.2321  -23.7482  -55.0124 C.2       19 UNK         0.5000 
    108 O         -6.6204  -23.8940  -56.1713 O.2       19 UNK        -0.5000 
    109 N         -5.0165  -23.2863  -54.6848 N.am      20 UNK        -0.5000 
    110 CA        -4.0228  -22.7516  -55.6194 C.3       20 UNK         0.1400 
    111 CB        -2.6404  -22.8129  -54.9506 C.3       20 UNK        -0.1800 
    112 C         -4.3372  -21.3183  -56.1140 C.2       20 UNK         0.5000 
    113 O         -3.5378  -20.7610  -56.8663 O.2       20 UNK        -0.5000 
    114 N         -5.4791  -20.7508  -55.6952 N.am      21 UNK        -0.5000 
    115 CA        -6.0041  -19.4234  -56.0146 C.3       21 UNK         0.1400 
    116 CB        -6.2442  -19.2515  -57.5322 C.3       21 UNK        -0.1800 
    117 C         -5.1658  -18.3035  -55.3725 C.2       21 UNK         0.5000 
    118 O         -5.3410  -18.0427  -54.1821 O.2       21 UNK        -0.5000 
    119 N         -4.3050  -17.6536  -56.1667 N.am      22 UNK        -0.5000 
    120 CA        -3.5151  -16.4552  -55.8179 C.3       22 UNK         0.1400 
    121 C         -4.3548  -15.1445  -55.6976 C.2       22 UNK         0.5000 
    122 N         -5.6008  -15.1067  -56.1551 N.am      22 UNK        -0.7600 
    123 O         -3.8629  -14.1284  -55.2136 O.2       22 UNK        -0.5000 
    124 C124       -2.5624  -16.6487  -54.6034 C.3       23 UNK        -0.0398 
    125 S125       -1.3802  -18.0247  -54.8134 S.3       23 UNK        -0.2404 
    126 C126       -1.8973  -19.1774  -53.5004 C.3       23 UNK        -0.0205 
    127 H127        5.8756  -16.7613  -46.1483 H         1 UNK         0.0600 
    128 H128        5.0390  -18.2520  -45.7143 H         1 UNK         0.0600 
    129 H129        4.1300  -16.7617  -45.8661 H         1 UNK         0.0600 
    130 H130        3.9668  -17.0600  -49.5282 H         1 UNK         0.3000 
    131 H131        2.9050  -15.5827  -47.3324 H         1 UNK         0.0600 
    132 H132        2.6150  -13.8364  -49.3488 H         1 UNK         0.0800 
    133 H133        3.0289  -15.1955  -50.3459 H         1 UNK         0.0800 
    134 H134        1.2050  -17.8201  -48.9541 H         1 UNK         0.0800 
    135 H135        1.6740  -17.2986  -50.5572 H         1 UNK         0.0800 
    136 H136        0.3361  -18.3242  -52.1940 H         1 UNK         0.1150 
    137 H137       -3.9091  -18.6664  -51.7292 H         1 UNK         0.1150 
    138 H138       -1.5308  -17.0488  -48.5503 H         1 UNK         0.1150 
    139 H139       -3.9716  -16.8048  -48.5129 H         1 UNK         0.0800 
    140 H140       -4.9156  -17.2617  -49.9033 H         1 UNK         0.0800 
    141 H141       -3.9219  -19.4124  -46.1150 H         1 UNK         0.0800 
    142 H142       -2.8800  -18.3687  -47.0245 H         1 UNK         0.0800 
    143 H143       -2.2859  -20.4840  -48.4581 H         1 UNK         0.0600 
    144 H144       -1.0406  -19.5112  -46.1670 H         1 UNK         0.3000 
    145 H145        1.6989  -21.8294  -46.1203 H         1 UNK         0.0600 
    146 H146        2.9916  -19.7519  -46.3091 H         1 UNK         0.0600 
    147 H147        2.2483  -20.0983  -47.8630 H         1 UNK         0.0600 
    148 H148        1.5668  -18.8521  -46.8204 H         1 UNK         0.0600 
    149 H149        1.1842  -19.5634  -44.5009 H         1 UNK         0.3000 
    150 H150       -0.8064  -21.2384  -42.0023 H         1 UNK         0.0600 
    151 H151        1.6203  -21.5546  -41.5117 H         1 UNK         0.0600 
    152 H152        0.9644  -20.1780  -40.6380 H         1 UNK         0.0600 
    153 H153        1.9600  -19.9207  -42.0677 H         1 UNK         0.0600 
    154 H154       -0.0957  -18.5024  -42.2548 H         1 UNK         0.3000 
    155 H155       -3.0005  -17.4414  -44.0854 H         1 UNK         0.0600 
    156 H156       -1.9638  -16.9607  -41.2411 H         1 UNK         0.0600 
    157 H157       -3.5706  -17.5506  -41.6506 H         1 UNK         0.0600 
    158 H158       -3.0836  -15.9318  -42.1303 H         1 UNK         0.0600 
    159 H159       -0.7719  -15.9462  -43.1966 H         1 UNK         0.3000 
    160 H160        1.2722  -16.4448  -46.1230 H         1 UNK         0.0600 
    161 H161       -0.1493  -14.0226  -44.8922 H         1 UNK         0.0600 
    162 H162       -0.3520  -14.5781  -46.5469 H         1 UNK         0.0600 
    163 H163        1.2078  -13.9693  -46.0133 H         1 UNK         0.0600 
    164 H164        1.8306  -14.9967  -43.7532 H         1 UNK         0.3000 
    165 H165        3.2951  -17.6541  -41.8535 H         1 UNK         0.0600 
    166 H166        5.0921  -15.9142  -41.8081 H         1 UNK         0.0600 
    167 H167        5.0743  -16.7797  -43.3352 H         1 UNK         0.0600 
    168 H168        4.4088  -15.1557  -43.2449 H         1 UNK         0.0600 
    169 H169        2.7588  -14.8654  -41.3642 H         1 UNK         0.3000 
    170 H170       -0.3842  -15.3144  -39.7531 H         1 UNK         0.0600 
    171 H171        1.3234  -15.9010  -38.0267 H         1 UNK         0.0600 
    172 H172        2.3943  -14.6460  -38.6386 H         1 UNK         0.0600 
    173 H173        0.8489  -14.2143  -37.9064 H         1 UNK         0.0600 
    174 H174        1.3104  -13.0358  -40.1825 H         1 UNK         0.3000 
    175 H175       -0.1160  -12.0621  -43.3111 H         1 UNK         0.0600 
    176 H176       -0.3175  -10.8572  -40.5012 H         1 UNK         0.0600 
    177 H177       -0.5639  -10.0040  -42.0252 H         1 UNK         0.0600 
    178 H178       -1.6846  -11.2625  -41.5323 H         1 UNK         0.0600 
    179 H179        1.8244  -10.7137  -41.8356 H         1 UNK         0.3000 
    180 H180        3.9140  -10.5402  -43.0006 H         1 UNK         0.0600 
    181 H181        4.8019  -12.9534  -41.3088 H         1 UNK         0.0600 
    182 H182        4.0985  -11.4688  -40.6783 H         1 UNK         0.0600 
    183 H183        5.6741  -11.4277  -41.4500 H         1 UNK         0.0600 
    184 H184        5.5399  -12.8601  -43.6276 H         1 UNK         0.3000 
    185 H185        5.8514  -12.2177  -46.9908 H         1 UNK         0.0600 
    186 H186        7.3532  -12.8995  -45.0583 H         1 UNK         0.0600 
    187 H187        6.3466  -14.3271  -44.7985 H         1 UNK         0.0600 
    188 H188        7.2483  -14.1366  -46.2940 H         1 UNK         0.0600 
    189 H189        3.6776  -13.9159  -46.1960 H         1 UNK         0.3000 
    190 H190       -2.5980  -21.5872  -45.0659 H         1 UNK         0.3000 
    191 H191       -4.5385  -23.6466  -45.6149 H         1 UNK         0.0600 
    192 H192       -2.6364  -23.2499  -43.2456 H         1 UNK         0.0600 
    193 H193       -3.9829  -24.3817  -43.2966 H         1 UNK         0.0600 
    194 H194       -4.2883  -22.6523  -43.3678 H         1 UNK         0.0600 
    195 H195       -0.9708  -23.7037  -45.0962 H         1 UNK         0.3000 
    196 H196       -0.8202  -26.5532  -45.3146 H         1 UNK         0.0600 
    197 H197        1.6193  -26.1583  -45.0294 H         1 UNK         0.0600 
    198 H198        0.6821  -25.2358  -43.8640 H         1 UNK         0.0600 
    199 H199        1.3836  -24.4304  -45.2650 H         1 UNK         0.0600 
    200 H200        0.2188  -23.9233  -47.5786 H         1 UNK         0.3000 
    201 H201        1.2538  -25.9791  -49.4616 H         1 UNK         0.0600 
    202 H202        2.8037  -24.1808  -48.7136 H         1 UNK         0.0600 
    203 H203        1.7200  -22.9556  -49.3685 H         1 UNK         0.0600 
    204 H204        2.4989  -24.1067  -50.4419 H         1 UNK         0.0600 
    205 H205       -0.9176  -23.0989  -49.3626 H         1 UNK         0.3000 
    206 H206       -1.7263  -23.4965  -52.1420 H         1 UNK         0.0600 
    207 H207       -1.5103  -21.2234  -50.9301 H         1 UNK         0.0600 
    208 H208       -2.9565  -21.4776  -51.8980 H         1 UNK         0.0600 
    209 H209       -3.0557  -21.6064  -50.1676 H         1 UNK         0.0600 
    210 H210       -2.6696  -24.9375  -49.2561 H         1 UNK         0.3000 
    211 H211       -4.2752  -26.2919  -48.5547 H         1 UNK         0.0600 
    212 H212       -4.7987  -26.7494  -51.5331 H         1 UNK         0.0600 
    213 H213       -5.3529  -27.7891  -50.2275 H         1 UNK         0.0600 
    214 H214       -3.6335  -27.6067  -50.5330 H         1 UNK         0.0600 
    215 H215       -4.9600  -23.7732  -48.2211 H         1 UNK         0.3000 
    216 H216       -6.5726  -22.4320  -47.5747 H         1 UNK         0.0600 
    217 H217       -8.8783  -23.1873  -47.1997 H         1 UNK         0.0600 
    218 H218       -7.7630  -24.4316  -46.6588 H         1 UNK         0.0600 
    219 H219       -8.6286  -24.6204  -48.1835 H         1 UNK         0.0600 
    220 H220       -5.4824  -22.0059  -49.9000 H         1 UNK         0.3000 
    221 H221       -5.5155  -20.7957  -51.7364 H         1 UNK         0.0600 
    222 H222       -8.3562  -19.9084  -51.0262 H         1 UNK         0.0600 
    223 H223       -6.8892  -19.2024  -50.3539 H         1 UNK         0.0600 
    224 H224       -7.2152  -19.0739  -52.0710 H         1 UNK         0.0600 
    225 H225       -6.3958  -23.5967  -51.9242 H         1 UNK         0.3000 
    226 H226       -8.2102  -23.8204  -54.1806 H         1 UNK         0.0600 
    227 H227       -7.8010  -25.7128  -52.5944 H         1 UNK         0.0600 
    228 H228       -7.3899  -26.1584  -54.2447 H         1 UNK         0.0600 
    229 H229       -6.1126  -25.7713  -53.1006 H         1 UNK         0.0600 
    230 H230       -4.7721  -23.2715  -53.7005 H         1 UNK         0.3000 
    231 H231       -3.9994  -23.3954  -56.5009 H         1 UNK         0.0600 
    232 H232       -2.4067  -23.8239  -54.6164 H         1 UNK         0.0600 
    233 H233       -2.5861  -22.1508  -54.0883 H         1 UNK         0.0600 
    234 H234       -1.8539  -22.5114  -55.6435 H         1 UNK         0.0600 
    235 H235       -6.0604  -21.2781  -55.0563 H         1 UNK         0.3000 
    236 H236       -6.9835  -19.3707  -55.5368 H         1 UNK         0.0600 
    237 H237       -5.3284  -19.3258  -58.1183 H         1 UNK         0.0600 
    238 H238       -6.9320  -20.0118  -57.9026 H         1 UNK         0.0600 
    239 H239       -6.6936  -18.2815  -57.7476 H         1 UNK         0.0600 
    240 H240       -4.2062  -17.9763  -57.1185 H         1 UNK         0.3000 
    241 H241       -2.8793  -16.2805  -56.6863 H         1 UNK         0.0600 
    242 H242       -6.1284  -14.2507  -56.0832 H         1 UNK         0.3800 
    243 H243       -6.0202  -15.9196  -56.5755 H         1 UNK         0.3800 
    244 H244       -3.1365  -16.7733  -53.6859 H         1 UNK         0.0800 
    245 H245       -1.9614  -15.7514  -54.4487 H         1 UNK         0.0800 
    246 H246       -1.2658  -20.0653  -53.5464 H         1 UNK         0.0800 
    247 H247       -2.9147  -19.5134  -53.7042 H         1 UNK         0.0800 
@<TRIPOS>BOND
     1    1    2 1    
     2    1  127 1    
     3    1  128 1    
     4    1  129 1    
     5    2    3 2    
     6    2    4 am   BACKBONE|DICT|INTERRES
     7    4    5 1    
     8    4  130 1    
     9    5    6 1    
    10    5   65 1    
    11    5  131 1    
    12    6    7 1    
    13    6  132 1    
    14    6  133 1    
    15    7    8 1    
    16    8    9 1    
    17    8  134 1    
    18    8  135 1    
    19    9   10 ar   
    20    9   14 ar   
    21   10   11 ar   
    22   10  136 1    
    23   11   12 ar   
    24   11  126 1    
    25   12   13 ar   
    26   12  137 1    
    27   13   14 ar   
    28   13   15 1    
    29   14  138 1    
    30   15   16 1    
    31   15  139 1    
    32   15  140 1    
    33   16   17 1    
    34   17   18 1    
    35   17  141 1    
    36   17  142 1    
    37   18   19 1    
    38   18   67 1    
    39   18  143 1    
    40   19   20 am   BACKBONE|DICT|INTERRES
    41   19  144 1    
    42   20   21 2    
    43   20   22 1    
    44   22   23 1    
    45   22   24 1    
    46   22  145 1    
    47   23  146 1    
    48   23  147 1    
    49   23  148 1    
    50   24   25 am   BACKBONE|DICT|INTERRES
    51   24  149 1    
    52   25   26 2    
    53   25   27 1    
    54   27   28 1    
    55   27   29 1    
    56   27  150 1    
    57   28  151 1    
    58   28  152 1    
    59   28  153 1    
    60   29   30 am   BACKBONE|DICT|INTERRES
    61   29  154 1    
    62   30   31 2    
    63   30   32 1    
    64   32   33 1    
    65   32   34 1    
    66   32  155 1    
    67   33  156 1    
    68   33  157 1    
    69   33  158 1    
    70   34   35 am   BACKBONE|DICT|INTERRES
    71   34  159 1    
    72   35   36 2    
    73   35   37 1    
    74   37   38 1    
    75   37   39 1    
    76   37  160 1    
    77   38  161 1    
    78   38  162 1    
    79   38  163 1    
    80   39   40 am   BACKBONE|DICT|INTERRES
    81   39  164 1    
    82   40   41 2    
    83   40   42 1    
    84   42   43 1    
    85   42   44 1    
    86   42  165 1    
    87   43  166 1    
    88   43  167 1    
    89   43  168 1    
    90   44   45 am   BACKBONE|DICT|INTERRES
    91   44  169 1    
    92   45   46 2    
    93   45   47 1    
    94   47   48 1    
    95   47   49 1    
    96   47  170 1    
    97   48  171 1    
    98   48  172 1    
    99   48  173 1    
   100   49   50 am   BACKBONE|DICT|INTERRES
   101   49  174 1    
   102   50   51 2    
   103   50   52 1    
   104   52   53 1    
   105   52   54 1    
   106   52  175 1    
   107   53  176 1    
   108   53  177 1    
   109   53  178 1    
   110   54   55 am   BACKBONE|DICT|INTERRES
   111   54  179 1    
   112   55   56 2    
   113   55   57 1    
   114   57   58 1    
   115   57   59 1    
   116   57  180 1    
   117   58  181 1    
   118   58  182 1    
   119   58  183 1    
   120   59   60 am   BACKBONE|DICT|INTERRES
   121   59  184 1    
   122   60   61 2    
   123   60   62 1    
   124   62   63 1    
   125   62   64 1    
   126   62  185 1    
   127   63  186 1    
   128   63  187 1    
   129   63  188 1    
   130   64   65 am   BACKBONE|DICT|INTERRES
   131   64  189 1    
   132   65   66 2    
   133   67   68 2    
   134   67   69 am   BACKBONE|DICT|INTERRES
   135   69   70 1    
   136   69  190 1    
   137   70   71 1    
   138   70   72 1    
   139   70  191 1    
   140   71  192 1    
   141   71  193 1    
   142   71  194 1    
   143   72   73 2    
   144   72   74 am   BACKBONE|DICT|INTERRES
   145   74   75 1    
   146   74  195 1    
   147   75   76 1    
   148   75   77 1    
   149   75  196 1    
   150   76  197 1    
   151   76  198 1    
   152   76  199 1    
   153   77   78 2    
   154   77   79 am   BACKBONE|DICT|INTERRES
   155   79   80 1    
   156   79  200 1    
   157   80   81 1    
   158   80   82 1    
   159   80  201 1    
   160   81  202 1    
   161   81  203 1    
   162   81  204 1    
   163   82   83 2    
   164   82   84 am   BACKBONE|DICT|INTERRES
   165   84   85 1    
   166   84  205 1    
   167   85   86 1    
   168   85   87 1    
   169   85  206 1    
   170   86  207 1    
   171   86  208 1    
   172   86  209 1    
   173   87   88 2    
   174   87   89 am   BACKBONE|DICT|INTERRES
   175   89   90 1    
   176   89  210 1    
   177   90   91 1    
   178   90   92 1    
   179   90  211 1    
   180   91  212 1    
   181   91  213 1    
   182   91  214 1    
   183   92   93 2    
   184   92   94 am   BACKBONE|DICT|INTERRES
   185   94   95 1    
   186   94  215 1    
   187   95   96 1    
   188   95   97 1    
   189   95  216 1    
   190   96  217 1    
   191   96  218 1    
   192   96  219 1    
   193   97   98 2    
   194   97   99 am   BACKBONE|DICT|INTERRES
   195   99  100 1    
   196   99  220 1    
   197  100  101 1    
   198  100  102 1    
   199  100  221 1    
   200  101  222 1    
   201  101  223 1    
   202  101  224 1    
   203  102  103 2    
   204  102  104 am   BACKBONE|DICT|INTERRES
   205  104  105 1    
   206  104  225 1    
   207  105  106 1    
   208  105  107 1    
   209  105  226 1    
   210  106  227 1    
   211  106  228 1    
   212  106  229 1    
   213  107  108 2    
   214  107  109 am   BACKBONE|DICT|INTERRES
   215  109  110 1    
   216  109  230 1    
   217  110  111 1    
   218  110  112 1    
   219  110  231 1    
   220  111  232 1    
   221  111  233 1    
   222  111  234 1    
   223  112  113 2    
   224  112  114 am   BACKBONE|DICT|INTERRES
   225  114  115 1    
   226  114  235 1    
   227  115  116 1    
   228  115  117 1    
   229  115  236 1    
   230  116  237 1    
   231  116  238 1    
   232  116  239 1    
   233  117  118 2    
   234  117  119 am   BACKBONE|DICT|INTERRES
   235  119  120 1    
   236  119  240 1    
   237  120  121 1    
   238  120  124 1    
   239  120  241 1    
   240  121  122 am   BACKBONE|DICT|INTERRES
   241  121  123 2    
   242  122  242 1    
   243  122  243 1    
   244  124  125 1    
   245  124  244 1    
   246  124  245 1    
   247  125  126 1    
   248  126  246 1    
   249  126  247 1    
@<TRIPOS>SUBSTRUCTURE
     1 UNK         1 GROUP             0       ****    0 ROOT    
