@<TRIPOS>MOLECULE
3R540
247   249    1
SMALL
USER_CHARGES


@<TRIPOS>ATOM
      1 CA          5.2390  -11.7486  -53.1524 C.3       0 UNK        -0.1800 
      2 C           4.9103  -11.6842  -51.6674 C.2       0 UNK         0.5000 
      3 O           4.7126  -10.5940  -51.1297 O.2       0 UNK        -0.5000 
      4 N           4.8616  -12.8444  -51.0029 N.am      1 UNK        -0.5000 
      5 CA          4.4831  -12.9966  -49.5951 C.3       1 UNK         0.1400 
      6 C6          4.9356  -14.3641  -49.0199 C.3       23 UNK        -0.0398 
      7 S7          4.3995  -15.8139  -49.9969 S.3       23 UNK        -0.2404 
      8 C8          3.1162  -16.4893  -48.9061 C.3       23 UNK        -0.0205 
      9 C9          2.2839  -17.5438  -49.6145 C.ar      23 UNK        -0.0193 
     10 C10         1.1239  -17.1704  -50.2957 C.ar      23 UNK        -0.1150 
     11 C11         0.3068  -18.1354  -50.8878 C.ar      23 UNK        -0.0193 
     12 C12         0.6615  -19.4843  -50.8014 C.ar      23 UNK        -0.1150 
     13 C13         1.8271  -19.8748  -50.1327 C.ar      23 UNK        -0.0193 
     14 C14         2.6434  -18.8925  -49.5553 C.ar      23 UNK        -0.1150 
     15 C15         2.1711  -21.3625  -50.0630 C.3       23 UNK        -0.0205 
     16 S16         3.1036  -21.8966  -48.5837 S.3       23 UNK        -0.2404 
     17 C17         2.0704  -21.3045  -47.2013 C.3       23 UNK        -0.0398 
     18 CA          1.0466  -22.3539  -46.7028 C.3       11 UNK         0.1400 
     19 N           0.8967  -22.2978  -45.2488 N.am      11 UNK        -0.5000 
     20 C           0.2387  -23.1753  -44.4818 C.2       10 UNK         0.5000 
     21 O          -0.2996  -24.1878  -44.9298 O.2       10 UNK        -0.5000 
     22 CA          0.1026  -22.8192  -42.9843 C.3       10 UNK         0.1400 
     23 CB          0.1666  -24.0600  -42.0715 C.3       10 UNK        -0.1800 
     24 N           1.0347  -21.7702  -42.5458 N.am      10 UNK        -0.5000 
     25 C           2.3737  -21.8367  -42.4720 C.2       9 UNK         0.5000 
     26 O           3.0209  -22.8643  -42.6741 O.2       9 UNK        -0.5000 
     27 CA          3.1315  -20.5254  -42.1787 C.3       9 UNK         0.1400 
     28 CB          3.9031  -20.0721  -43.4290 C.3       9 UNK        -0.1800 
     29 N           2.2631  -19.4279  -41.7480 N.am      9 UNK        -0.5000 
     30 C           1.7584  -19.2918  -40.5151 C.2       8 UNK         0.5000 
     31 O           1.9939  -20.0698  -39.5900 O.2       8 UNK        -0.5000 
     32 CA          0.8083  -18.1010  -40.2852 C.3       8 UNK         0.1400 
     33 CB          1.6063  -16.8207  -39.9969 C.3       8 UNK        -0.1800 
     34 N          -0.1093  -17.8639  -41.4033 N.am      8 UNK        -0.5000 
     35 C          -1.0489  -18.7275  -41.8161 C.2       7 UNK         0.5000 
     36 O          -1.2347  -19.8332  -41.3080 O.2       7 UNK        -0.5000 
     37 CA         -1.8986  -18.3055  -43.0269 C.3       7 UNK         0.1400 
     38 CB         -2.9742  -17.2868  -42.6223 C.3       7 UNK        -0.1800 
     39 N          -1.0869  -17.7594  -44.1117 N.am      7 UNK        -0.5000 
     40 C          -0.1987  -18.4640  -44.8241 C.2       6 UNK         0.5000 
     41 O          -0.0149  -19.6725  -44.6868 O.2       6 UNK        -0.5000 
     42 CA          0.6360  -17.6877  -45.8553 C.3       6 UNK         0.1400 
     43 CB         -0.1898  -17.4521  -47.1283 C.3       6 UNK        -0.1800 
     44 N           1.1247  -16.4113  -45.3326 N.am      6 UNK        -0.5000 
     45 C           1.9204  -16.2761  -44.2608 C.2       5 UNK         0.5000 
     46 O           2.3760  -17.2219  -43.6195 O.2       5 UNK        -0.5000 
     47 CA          2.2005  -14.8406  -43.7873 C.3       5 UNK         0.1400 
     48 CB          3.3446  -14.2031  -44.5915 C.3       5 UNK        -0.1800 
     49 N           1.0018  -14.0058  -43.8692 N.am      5 UNK        -0.5000 
     50 C          -0.0765  -14.1568  -43.0854 C.2       4 UNK         0.5000 
     51 O          -0.1490  -14.9795  -42.1725 O.2       4 UNK        -0.5000 
     52 CA         -1.2955  -13.2750  -43.4138 C.3       4 UNK         0.1400 
     53 CB         -1.1353  -11.8763  -42.7998 C.3       4 UNK        -0.1800 
     54 N          -1.5174  -13.1508  -44.8555 N.am      4 UNK        -0.5000 
     55 C          -1.8748  -14.1654  -45.6563 C.2       3 UNK         0.5000 
     56 O          -2.1314  -15.2958  -45.2452 O.2       3 UNK        -0.5000 
     57 CA         -1.8983  -13.8847  -47.1724 C.3       3 UNK         0.1400 
     58 CB         -3.2999  -13.4457  -47.6197 C.3       3 UNK        -0.1800 
     59 N          -0.9155  -12.8777  -47.5867 N.am      3 UNK        -0.5000 
     60 C           0.4113  -13.0302  -47.4835 C.2       2 UNK         0.5000 
     61 O           0.9464  -14.0503  -47.0443 O.2       2 UNK        -0.5000 
     62 CA          1.2670  -11.8024  -47.8403 C.3       2 UNK         0.1400 
     63 CB          1.3353  -10.8469  -46.6377 C.3       2 UNK        -0.1800 
     64 N           2.6326  -12.1607  -48.2230 N.am      2 UNK        -0.5000 
     65 C           2.9739  -12.7325  -49.3842 C.2       1 UNK         0.5000 
     66 O           2.1610  -13.0312  -50.2635 O.2       1 UNK        -0.5000 
     67 C          -0.3152  -22.1842  -47.4068 C.2       11 UNK         0.5000 
     68 O          -0.5656  -22.8293  -48.4232 O.2       11 UNK        -0.5000 
     69 N          -1.1988  -21.3684  -46.8119 N.am      12 UNK        -0.5000 
     70 CA         -2.5760  -21.1629  -47.2597 C.3       12 UNK         0.1400 
     71 CB         -3.2239  -20.0544  -46.4174 C.3       12 UNK        -0.1800 
     72 C          -3.4343  -22.4414  -47.2067 C.2       12 UNK         0.5000 
     73 O          -4.3229  -22.5974  -48.0440 O.2       12 UNK        -0.5000 
     74 N          -3.1482  -23.3214  -46.2374 N.am      13 UNK        -0.5000 
     75 CA         -3.7888  -24.6275  -46.0828 C.3       13 UNK         0.1400 
     76 CB         -3.7643  -25.0250  -44.5987 C.3       13 UNK        -0.1800 
     77 C          -3.1137  -25.7110  -46.9448 C.2       13 UNK         0.5000 
     78 O          -3.7720  -26.6782  -47.3271 O.2       13 UNK        -0.5000 
     79 N          -1.8168  -25.5416  -47.2373 N.am      14 UNK        -0.5000 
     80 CA         -1.0465  -26.4226  -48.1149 C.3       14 UNK         0.1400 
     81 CB          0.4547  -26.2006  -47.8757 C.3       14 UNK        -0.1800 
     82 C          -1.3927  -26.2151  -49.6008 C.2       14 UNK         0.5000 
     83 O          -1.4202  -27.1886  -50.3545 O.2       14 UNK        -0.5000 
     84 N          -1.6599  -24.9617  -49.9898 N.am      15 UNK        -0.5000 
     85 CA         -1.9601  -24.5522  -51.3576 C.3       15 UNK         0.1400 
     86 CB         -0.6751  -23.9594  -51.9657 C.3       15 UNK        -0.1800 
     87 C          -3.1482  -23.5644  -51.3834 C.2       15 UNK         0.5000 
     88 O          -2.9629  -22.3947  -51.7213 O.2       15 UNK        -0.5000 
     89 N          -4.3772  -23.9663  -51.0352 N.am      16 UNK        -0.5000 
     90 CA         -4.8552  -25.2645  -50.5650 C.3       16 UNK         0.1400 
     91 CB         -5.0200  -26.2651  -51.7270 C.3       16 UNK        -0.1800 
     92 C          -6.1807  -25.0103  -49.8374 C.2       16 UNK         0.5000 
     93 O          -6.2516  -25.1256  -48.6150 O.2       16 UNK        -0.5000 
     94 N          -7.2004  -24.5879  -50.5958 N.am      17 UNK        -0.5000 
     95 CA         -8.5051  -24.1755  -50.0783 C.3       17 UNK         0.1400 
     96 CB         -9.5798  -24.4630  -51.1430 C.3       17 UNK        -0.1800 
     97 C          -8.4679  -22.6983  -49.6363 C.2       17 UNK         0.5000 
     98 O          -9.1380  -21.8590  -50.2381 O.2       17 UNK        -0.5000 
     99 N          -7.6517  -22.4161  -48.6099 N.am      18 UNK        -0.5000 
    100 CA        -7.4086  -21.1082  -47.9912 C.3       18 UNK         0.1400 
    101 CB        -8.6889  -20.5660  -47.3214 C.3       18 UNK        -0.1800 
    102 C         -6.7701  -20.1092  -48.9771 C.2       18 UNK         0.5000 
    103 O         -7.4036  -19.1309  -49.3763 O.2       18 UNK        -0.5000 
    104 N         -5.5164  -20.4012  -49.3536 N.am      19 UNK        -0.5000 
    105 CA        -4.6475  -19.6189  -50.2455 C.3       19 UNK         0.1400 
    106 CB        -4.3663  -18.2137  -49.6709 C.3       19 UNK        -0.1800 
    107 C         -5.1350  -19.5844  -51.7079 C.2       19 UNK         0.5000 
    108 O         -4.8456  -18.6346  -52.4386 O.2       19 UNK        -0.5000 
    109 N         -5.8380  -20.6474  -52.1205 N.am      20 UNK        -0.5000 
    110 CA        -6.4045  -20.8568  -53.4559 C.3       20 UNK         0.1400 
    111 CB        -7.1445  -22.2017  -53.4711 C.3       20 UNK        -0.1800 
    112 C         -5.3929  -20.7953  -54.6184 C.2       20 UNK         0.5000 
    113 O         -5.7947  -20.4852  -55.7403 O.2       20 UNK        -0.5000 
    114 N         -4.1089  -21.0692  -54.3426 N.am      21 UNK        -0.5000 
    115 CA        -3.0177  -20.9140  -55.3074 C.3       21 UNK         0.1400 
    116 CB        -1.7678  -21.6271  -54.7772 C.3       21 UNK        -0.1800 
    117 C         -2.7029  -19.4423  -55.6440 C.2       21 UNK         0.5000 
    118 O         -2.2149  -19.1714  -56.7424 O.2       21 UNK        -0.5000 
    119 N         -2.9939  -18.5277  -54.7110 N.am      22 UNK        -0.5000 
    120 CA        -2.8835  -17.0742  -54.8994 C.3       22 UNK         0.1400 
    121 C         -4.2513  -16.4442  -55.2730 C.2       22 UNK         0.5000 
    122 N         -5.3489  -16.8668  -54.6564 N.am      22 UNK        -0.7600 
    123 O         -4.3182  -15.5680  -56.1305 O.2       22 UNK        -0.5000 
    124 C124       -2.2987  -16.3657  -53.6535 C.3       23 UNK        -0.0398 
    125 S125       -0.6336  -16.9660  -53.2086 S.3       23 UNK        -0.2404 
    126 C126       -0.9735  -17.7120  -51.5864 C.3       23 UNK        -0.0205 
    127 H127        4.4225  -11.3232  -53.7359 H         1 UNK         0.0600 
    128 H128        6.1435  -11.1775  -53.3622 H         1 UNK         0.0600 
    129 H129        5.3985  -12.7736  -53.4881 H         1 UNK         0.0600 
    130 H130        4.9947  -13.7121  -51.5031 H         1 UNK         0.3000 
    131 H131        5.0221  -12.2266  -49.0383 H         1 UNK         0.0600 
    132 H132        4.6160  -14.4719  -47.9817 H         1 UNK         0.0800 
    133 H133        6.0256  -14.3880  -48.9856 H         1 UNK         0.0800 
    134 H134        2.4669  -15.6823  -48.5639 H         1 UNK         0.0800 
    135 H135        3.5791  -16.9101  -48.0121 H         1 UNK         0.0800 
    136 H136        0.8455  -16.1266  -50.3472 H         1 UNK         0.1150 
    137 H137        0.0250  -20.2332  -51.2527 H         1 UNK         0.1150 
    138 H138        3.5498  -19.1730  -49.0385 H         1 UNK         0.1150 
    139 H139        1.2596  -21.9571  -50.1182 H         1 UNK         0.0800 
    140 H140        2.7544  -21.6196  -50.9477 H         1 UNK         0.0800 
    141 H141        1.5947  -20.3543  -47.4451 H         1 UNK         0.0800 
    142 H142        2.7753  -21.0670  -46.4034 H         1 UNK         0.0800 
    143 H143        1.4203  -23.3527  -46.9341 H         1 UNK         0.0600 
    144 H144        1.1869  -21.4372  -44.8032 H         1 UNK         0.3000 
    145 H145       -0.8931  -22.3872  -42.8747 H         1 UNK         0.0600 
    146 H146        0.0721  -23.7823  -41.0217 H         1 UNK         0.0600 
    147 H147       -0.6456  -24.7518  -42.2977 H         1 UNK         0.0600 
    148 H148        1.1008  -24.6084  -42.1928 H         1 UNK         0.0600 
    149 H149        0.6055  -20.8733  -42.3561 H         1 UNK         0.3000 
    150 H150        3.8547  -20.7344  -41.3878 H         1 UNK         0.0600 
    151 H151        4.5848  -20.8489  -43.7777 H         1 UNK         0.0600 
    152 H152        4.5020  -19.1853  -43.2212 H         1 UNK         0.0600 
    153 H153        3.2278  -19.8320  -44.2511 H         1 UNK         0.0600 
    154 H154        2.0749  -18.7034  -42.4369 H         1 UNK         0.3000 
    155 H155        0.2035  -18.3279  -39.4049 H         1 UNK         0.0600 
    156 H156        2.2090  -16.5213  -40.8547 H         1 UNK         0.0600 
    157 H157        2.2825  -16.9623  -39.1529 H         1 UNK         0.0600 
    158 H158        0.9443  -15.9913  -39.7474 H         1 UNK         0.0600 
    159 H159       -0.0422  -16.9590  -41.8591 H         1 UNK         0.3000 
    160 H160       -2.4044  -19.1973  -43.4009 H         1 UNK         0.0600 
    161 H161       -3.6259  -17.0501  -43.4636 H         1 UNK         0.0600 
    162 H162       -2.5353  -16.3535  -42.2689 H         1 UNK         0.0600 
    163 H163       -3.6034  -17.6790  -41.8226 H         1 UNK         0.0600 
    164 H164       -1.2365  -16.7826  -44.3466 H         1 UNK         0.3000 
    165 H165        1.5117  -18.2857  -46.1139 H         1 UNK         0.0600 
    166 H166        0.2706  -16.6999  -47.7651 H         1 UNK         0.0600 
    167 H167       -0.2788  -18.3715  -47.7084 H         1 UNK         0.0600 
    168 H168       -1.2006  -17.1109  -46.9080 H         1 UNK         0.0600 
    169 H169        0.8472  -15.5728  -45.8340 H         1 UNK         0.3000 
    170 H170        2.5101  -14.8872  -42.7412 H         1 UNK         0.0600 
    171 H171        4.2626  -14.7815  -44.4805 H         1 UNK         0.0600 
    172 H172        3.1210  -14.1530  -45.6566 H         1 UNK         0.0600 
    173 H173        3.5547  -13.1914  -44.2445 H         1 UNK         0.0600 
    174 H174        0.9587  -13.3507  -44.6346 H         1 UNK         0.3000 
    175 H175       -2.1767  -13.7450  -42.9718 H         1 UNK         0.0600 
    176 H176       -2.0261  -11.2697  -42.9642 H         1 UNK         0.0600 
    177 H177       -0.9810  -11.9395  -41.7218 H         1 UNK         0.0600 
    178 H178       -0.2830  -11.3432  -43.2231 H         1 UNK         0.0600 
    179 H179       -1.3405  -12.2486  -45.2706 H         1 UNK         0.3000 
    180 H180       -1.6558  -14.8178  -47.6845 H         1 UNK         0.0600 
    181 H181       -3.5930  -12.5011  -47.1599 H         1 UNK         0.0600 
    182 H182       -4.0477  -14.1911  -47.3450 H         1 UNK         0.0600 
    183 H183       -3.3483  -13.3233  -48.7018 H         1 UNK         0.0600 
    184 H184       -1.2853  -12.0090  -47.9454 H         1 UNK         0.3000 
    185 H185        0.7977  -11.2818  -48.6778 H         1 UNK         0.0600 
    186 H186        1.8044  -11.3183  -45.7729 H         1 UNK         0.0600 
    187 H187        1.9063   -9.9503  -46.8798 H         1 UNK         0.0600 
    188 H188        0.3400  -10.5200  -46.3342 H         1 UNK         0.0600 
    189 H189        3.3500  -11.9639  -47.5411 H         1 UNK         0.3000 
    190 H190       -0.9050  -20.8705  -45.9773 H         1 UNK         0.3000 
    191 H191       -2.5383  -20.8322  -48.2989 H         1 UNK         0.0600 
    192 H192       -3.2379  -20.3134  -45.3586 H         1 UNK         0.0600 
    193 H193       -4.2559  -19.8783  -46.7228 H         1 UNK         0.0600 
    194 H194       -2.6912  -19.1105  -46.5263 H         1 UNK         0.0600 
    195 H195       -2.3868  -23.1183  -45.6068 H         1 UNK         0.3000 
    196 H196       -4.8327  -24.5539  -46.3940 H         1 UNK         0.0600 
    197 H197       -4.2713  -25.9781  -44.4434 H         1 UNK         0.0600 
    198 H198       -4.2730  -24.2829  -43.9833 H         1 UNK         0.0600 
    199 H199       -2.7459  -25.1315  -44.2237 H         1 UNK         0.0600 
    200 H200       -1.3233  -24.7595  -46.8286 H         1 UNK         0.3000 
    201 H201       -1.2797  -27.4571  -47.8540 H         1 UNK         0.0600 
    202 H202        0.7087  -26.2996  -46.8200 H         1 UNK         0.0600 
    203 H203        0.7747  -25.2138  -48.2093 H         1 UNK         0.0600 
    204 H204        1.0459  -26.9346  -48.4243 H         1 UNK         0.0600 
    205 H205       -1.5540  -24.2070  -49.3165 H         1 UNK         0.3000 
    206 H206       -2.2372  -25.4115  -51.9663 H         1 UNK         0.0600 
    207 H207        0.1564  -24.6607  -51.8943 H         1 UNK         0.0600 
    208 H208       -0.8091  -23.7316  -53.0210 H         1 UNK         0.0600 
    209 H209       -0.3785  -23.0395  -51.4613 H         1 UNK         0.0600 
    210 H210       -5.0884  -23.2561  -51.0045 H         1 UNK         0.3000 
    211 H211       -4.1719  -25.6811  -49.8287 H         1 UNK         0.0600 
    212 H212       -4.0613  -26.6401  -52.0799 H         1 UNK         0.0600 
    213 H213       -5.5372  -25.8222  -52.5786 H         1 UNK         0.0600 
    214 H214       -5.5947  -27.1367  -51.4107 H         1 UNK         0.0600 
    215 H215       -7.0772  -24.5268  -51.5953 H         1 UNK         0.3000 
    216 H216       -8.7553  -24.7715  -49.1978 H         1 UNK         0.0600 
    217 H217      -10.5692  -24.1750  -50.7855 H         1 UNK         0.0600 
    218 H218       -9.6202  -25.5261  -51.3809 H         1 UNK         0.0600 
    219 H219       -9.3960  -23.9216  -52.0705 H         1 UNK         0.0600 
    220 H220       -7.1014  -23.1830  -48.2371 H         1 UNK         0.3000 
    221 H221       -6.6789  -21.2742  -47.1971 H         1 UNK         0.0600 
    222 H222       -9.4762  -20.3572  -48.0463 H         1 UNK         0.0600 
    223 H223       -9.0834  -21.2759  -46.5945 H         1 UNK         0.0600 
    224 H224       -8.4833  -19.6366  -46.7892 H         1 UNK         0.0600 
    225 H225       -5.0998  -21.2470  -48.9668 H         1 UNK         0.3000 
    226 H226       -3.6948  -20.1484  -50.2764 H         1 UNK         0.0600 
    227 H227       -3.9620  -18.2702  -48.6612 H         1 UNK         0.0600 
    228 H228       -3.6379  -17.6789  -50.2784 H         1 UNK         0.0600 
    229 H229       -5.2656  -17.5987  -49.6389 H         1 UNK         0.0600 
    230 H230       -6.0740  -21.3329  -51.4228 H         1 UNK         0.3000 
    231 H231       -7.1341  -20.0622  -53.6239 H         1 UNK         0.0600 
    232 H232       -7.9443  -22.2114  -52.7325 H         1 UNK         0.0600 
    233 H233       -6.4719  -23.0341  -53.2625 H         1 UNK         0.0600 
    234 H234       -7.6037  -22.3863  -54.4433 H         1 UNK         0.0600 
    235 H235       -3.8503  -21.3453  -53.4021 H         1 UNK         0.3000 
    236 H236       -3.3129  -21.4035  -56.2379 H         1 UNK         0.0600 
    237 H237       -0.9272  -21.5123  -55.4626 H         1 UNK         0.0600 
    238 H238       -1.4591  -21.2354  -53.8069 H         1 UNK         0.0600 
    239 H239       -1.9563  -22.6946  -54.6721 H         1 UNK         0.0600 
    240 H240       -3.4535  -18.8250  -53.8587 H         1 UNK         0.3000 
    241 H241       -2.2046  -16.8685  -55.7294 H         1 UNK         0.0600 
    242 H242       -6.2410  -16.4658  -54.8973 H         1 UNK         0.3800 
    243 H243       -5.2847  -17.5440  -53.9014 H         1 UNK         0.3800 
    244 H244       -2.2186  -15.2923  -53.8343 H         1 UNK         0.0800 
    245 H245       -2.9726  -16.4769  -52.8020 H         1 UNK         0.0800 
    246 H246       -1.4912  -16.9867  -50.9574 H         1 UNK         0.0800 
    247 H247       -1.6476  -18.5610  -51.7119 H         1 UNK         0.0800 
@<TRIPOS>BOND
     1    1    2 1    
     2    1  127 1    
     3    1  128 1    
     4    1  129 1    
     5    2    3 2    
     6    2    4 am   BACKBONE|DICT|INTERRES
     7    4    5 1    
     8    4  130 1    
     9    5    6 1    
    10    5   65 1    
    11    5  131 1    
    12    6    7 1    
    13    6  132 1    
    14    6  133 1    
    15    7    8 1    
    16    8    9 1    
    17    8  134 1    
    18    8  135 1    
    19    9   10 ar   
    20    9   14 ar   
    21   10   11 ar   
    22   10  136 1    
    23   11   12 ar   
    24   11  126 1    
    25   12   13 ar   
    26   12  137 1    
    27   13   14 ar   
    28   13   15 1    
    29   14  138 1    
    30   15   16 1    
    31   15  139 1    
    32   15  140 1    
    33   16   17 1    
    34   17   18 1    
    35   17  141 1    
    36   17  142 1    
    37   18   19 1    
    38   18   67 1    
    39   18  143 1    
    40   19   20 am   BACKBONE|DICT|INTERRES
    41   19  144 1    
    42   20   21 2    
    43   20   22 1    
    44   22   23 1    
    45   22   24 1    
    46   22  145 1    
    47   23  146 1    
    48   23  147 1    
    49   23  148 1    
    50   24   25 am   BACKBONE|DICT|INTERRES
    51   24  149 1    
    52   25   26 2    
    53   25   27 1    
    54   27   28 1    
    55   27   29 1    
    56   27  150 1    
    57   28  151 1    
    58   28  152 1    
    59   28  153 1    
    60   29   30 am   BACKBONE|DICT|INTERRES
    61   29  154 1    
    62   30   31 2    
    63   30   32 1    
    64   32   33 1    
    65   32   34 1    
    66   32  155 1    
    67   33  156 1    
    68   33  157 1    
    69   33  158 1    
    70   34   35 am   BACKBONE|DICT|INTERRES
    71   34  159 1    
    72   35   36 2    
    73   35   37 1    
    74   37   38 1    
    75   37   39 1    
    76   37  160 1    
    77   38  161 1    
    78   38  162 1    
    79   38  163 1    
    80   39   40 am   BACKBONE|DICT|INTERRES
    81   39  164 1    
    82   40   41 2    
    83   40   42 1    
    84   42   43 1    
    85   42   44 1    
    86   42  165 1    
    87   43  166 1    
    88   43  167 1    
    89   43  168 1    
    90   44   45 am   BACKBONE|DICT|INTERRES
    91   44  169 1    
    92   45   46 2    
    93   45   47 1    
    94   47   48 1    
    95   47   49 1    
    96   47  170 1    
    97   48  171 1    
    98   48  172 1    
    99   48  173 1    
   100   49   50 am   BACKBONE|DICT|INTERRES
   101   49  174 1    
   102   50   51 2    
   103   50   52 1    
   104   52   53 1    
   105   52   54 1    
   106   52  175 1    
   107   53  176 1    
   108   53  177 1    
   109   53  178 1    
   110   54   55 am   BACKBONE|DICT|INTERRES
   111   54  179 1    
   112   55   56 2    
   113   55   57 1    
   114   57   58 1    
   115   57   59 1    
   116   57  180 1    
   117   58  181 1    
   118   58  182 1    
   119   58  183 1    
   120   59   60 am   BACKBONE|DICT|INTERRES
   121   59  184 1    
   122   60   61 2    
   123   60   62 1    
   124   62   63 1    
   125   62   64 1    
   126   62  185 1    
   127   63  186 1    
   128   63  187 1    
   129   63  188 1    
   130   64   65 am   BACKBONE|DICT|INTERRES
   131   64  189 1    
   132   65   66 2    
   133   67   68 2    
   134   67   69 am   BACKBONE|DICT|INTERRES
   135   69   70 1    
   136   69  190 1    
   137   70   71 1    
   138   70   72 1    
   139   70  191 1    
   140   71  192 1    
   141   71  193 1    
   142   71  194 1    
   143   72   73 2    
   144   72   74 am   BACKBONE|DICT|INTERRES
   145   74   75 1    
   146   74  195 1    
   147   75   76 1    
   148   75   77 1    
   149   75  196 1    
   150   76  197 1    
   151   76  198 1    
   152   76  199 1    
   153   77   78 2    
   154   77   79 am   BACKBONE|DICT|INTERRES
   155   79   80 1    
   156   79  200 1    
   157   80   81 1    
   158   80   82 1    
   159   80  201 1    
   160   81  202 1    
   161   81  203 1    
   162   81  204 1    
   163   82   83 2    
   164   82   84 am   BACKBONE|DICT|INTERRES
   165   84   85 1    
   166   84  205 1    
   167   85   86 1    
   168   85   87 1    
   169   85  206 1    
   170   86  207 1    
   171   86  208 1    
   172   86  209 1    
   173   87   88 2    
   174   87   89 am   BACKBONE|DICT|INTERRES
   175   89   90 1    
   176   89  210 1    
   177   90   91 1    
   178   90   92 1    
   179   90  211 1    
   180   91  212 1    
   181   91  213 1    
   182   91  214 1    
   183   92   93 2    
   184   92   94 am   BACKBONE|DICT|INTERRES
   185   94   95 1    
   186   94  215 1    
   187   95   96 1    
   188   95   97 1    
   189   95  216 1    
   190   96  217 1    
   191   96  218 1    
   192   96  219 1    
   193   97   98 2    
   194   97   99 am   BACKBONE|DICT|INTERRES
   195   99  100 1    
   196   99  220 1    
   197  100  101 1    
   198  100  102 1    
   199  100  221 1    
   200  101  222 1    
   201  101  223 1    
   202  101  224 1    
   203  102  103 2    
   204  102  104 am   BACKBONE|DICT|INTERRES
   205  104  105 1    
   206  104  225 1    
   207  105  106 1    
   208  105  107 1    
   209  105  226 1    
   210  106  227 1    
   211  106  228 1    
   212  106  229 1    
   213  107  108 2    
   214  107  109 am   BACKBONE|DICT|INTERRES
   215  109  110 1    
   216  109  230 1    
   217  110  111 1    
   218  110  112 1    
   219  110  231 1    
   220  111  232 1    
   221  111  233 1    
   222  111  234 1    
   223  112  113 2    
   224  112  114 am   BACKBONE|DICT|INTERRES
   225  114  115 1    
   226  114  235 1    
   227  115  116 1    
   228  115  117 1    
   229  115  236 1    
   230  116  237 1    
   231  116  238 1    
   232  116  239 1    
   233  117  118 2    
   234  117  119 am   BACKBONE|DICT|INTERRES
   235  119  120 1    
   236  119  240 1    
   237  120  121 1    
   238  120  124 1    
   239  120  241 1    
   240  121  122 am   BACKBONE|DICT|INTERRES
   241  121  123 2    
   242  122  242 1    
   243  122  243 1    
   244  124  125 1    
   245  124  244 1    
   246  124  245 1    
   247  125  126 1    
   248  126  246 1    
   249  126  247 1    
@<TRIPOS>SUBSTRUCTURE
     1 UNK         1 GROUP             0       ****    0 ROOT    
