@<TRIPOS>MOLECULE
3R540
247   249    1
SMALL
USER_CHARGES


@<TRIPOS>ATOM
      1 CA          6.1963  -18.1262  -47.1243 C.3       0 UNK        -0.1800 
      2 C           4.7904  -17.6356  -46.8130 C.2       0 UNK         0.5000 
      3 O           3.9573  -18.4150  -46.3558 O.2       0 UNK        -0.5000 
      4 N           4.5227  -16.3482  -47.0612 N.am      1 UNK        -0.5000 
      5 CA          3.2276  -15.7052  -46.8107 C.3       1 UNK         0.1400 
      6 C6          3.0760  -14.4210  -47.6676 C.3       23 UNK        -0.0398 
      7 S7          1.3407  -14.0197  -48.0739 S.3       23 UNK        -0.2404 
      8 C8          1.3191  -14.2013  -49.8901 C.3       23 UNK        -0.0205 
      9 C9          0.9548  -15.6130  -50.3315 C.ar      23 UNK        -0.0193 
     10 C10        -0.2572  -15.8496  -50.9865 C.ar      23 UNK        -0.1150 
     11 C11        -0.6057  -17.1392  -51.3942 C.ar      23 UNK        -0.0193 
     12 C12         0.2683  -18.1985  -51.1355 C.ar      23 UNK        -0.1150 
     13 C13         1.4879  -17.9843  -50.4768 C.ar      23 UNK        -0.0193 
     14 C14         1.8239  -16.6823  -50.0950 C.ar      23 UNK        -0.1150 
     15 C15         2.4613  -19.1103  -50.1130 C.3       23 UNK        -0.0205 
     16 S16         2.0975  -20.7597  -50.8109 S.3       23 UNK        -0.2404 
     17 C17         0.6393  -21.2627  -49.8337 C.3       23 UNK        -0.0398 
     18 CA          0.9575  -22.3659  -48.8019 C.3       11 UNK         0.1400 
     19 N           1.9435  -21.9298  -47.8166 N.am      11 UNK        -0.5000 
     20 C           2.8078  -22.7325  -47.1892 C.2       10 UNK         0.5000 
     21 O           2.9161  -23.9376  -47.4172 O.2       10 UNK        -0.5000 
     22 CA          3.6948  -22.0795  -46.1144 C.3       10 UNK         0.1400 
     23 CB          5.0284  -21.6293  -46.7281 C.3       10 UNK        -0.1800 
     24 N           3.0626  -20.9379  -45.4482 N.am      10 UNK        -0.5000 
     25 C           2.0086  -21.0258  -44.6272 C.2       9 UNK         0.5000 
     26 O           1.4101  -22.0780  -44.3964 O.2       9 UNK        -0.5000 
     27 CA          1.5525  -19.7241  -43.9350 C.3       9 UNK         0.1400 
     28 CB          2.7000  -19.1190  -43.1111 C.3       9 UNK        -0.1800 
     29 N           0.9286  -18.6679  -44.7509 N.am      9 UNK        -0.5000 
     30 C           0.4470  -18.7071  -46.0029 C.2       8 UNK         0.5000 
     31 O           0.6255  -19.6349  -46.7895 O.2       8 UNK        -0.5000 
     32 CA         -0.4656  -17.5372  -46.4155 C.3       8 UNK         0.1400 
     33 CB         -1.2055  -17.8164  -47.7424 C.3       8 UNK        -0.1800 
     34 N          -1.4228  -17.2851  -45.3406 N.am      8 UNK        -0.5000 
     35 C          -2.2778  -16.2624  -45.2565 C.2       7 UNK         0.5000 
     36 O          -2.3400  -15.3444  -46.0732 O.2       7 UNK        -0.5000 
     37 CA         -3.2301  -16.2611  -44.0475 C.3       7 UNK         0.1400 
     38 CB         -4.1969  -17.4623  -44.0784 C.3       7 UNK        -0.1800 
     39 N          -2.5410  -16.1505  -42.7577 N.am      7 UNK        -0.5000 
     40 C          -1.7217  -17.0243  -42.1535 C.2       6 UNK         0.5000 
     41 O          -1.4145  -18.1194  -42.6277 O.2       6 UNK        -0.5000 
     42 CA         -1.1251  -16.5612  -40.8102 C.3       6 UNK         0.1400 
     43 CB          0.0769  -17.4076  -40.3588 C.3       6 UNK        -0.1800 
     44 N          -0.7058  -15.1658  -40.9224 N.am      6 UNK        -0.5000 
     45 C          -1.2700  -14.1231  -40.3021 C.2       5 UNK         0.5000 
     46 O          -2.1660  -14.2205  -39.4636 O.2       5 UNK        -0.5000 
     47 CA         -0.7750  -12.7307  -40.7333 C.3       5 UNK         0.1400 
     48 CB          0.3582  -12.2499  -39.8148 C.3       5 UNK        -0.1800 
     49 N          -0.3168  -12.7070  -42.1261 N.am      5 UNK        -0.5000 
     50 C          -1.1268  -12.7724  -43.1959 C.2       4 UNK         0.5000 
     51 O          -2.3502  -12.8809  -43.0993 O.2       4 UNK        -0.5000 
     52 CA         -0.4783  -12.7510  -44.5992 C.3       4 UNK         0.1400 
     53 CB         -1.2885  -11.9222  -45.6162 C.3       4 UNK        -0.1800 
     54 N           0.9336  -12.3611  -44.5963 N.am      4 UNK        -0.5000 
     55 C           1.4683  -11.1775  -44.2571 C.2       3 UNK         0.5000 
     56 O           0.8017  -10.1742  -44.0007 O.2       3 UNK        -0.5000 
     57 CA          3.0116  -11.1192  -44.1540 C.3       3 UNK         0.1400 
     58 CB          3.4849  -10.1573  -43.0442 C.3       3 UNK        -0.1800 
     59 N           3.6512  -12.4349  -43.9951 N.am      3 UNK        -0.5000 
     60 C           3.4421  -13.3303  -43.0154 C.2       2 UNK         0.5000 
     61 O           2.6703  -13.1439  -42.0735 O.2       2 UNK        -0.5000 
     62 CA          4.1573  -14.6882  -43.1842 C.3       2 UNK         0.1400 
     63 CB          3.6373  -15.7617  -42.2079 C.3       2 UNK        -0.1800 
     64 N           4.1069  -15.1713  -44.5731 N.am      2 UNK        -0.5000 
     65 C           3.0066  -15.3944  -45.3131 C.2       1 UNK         0.5000 
     66 O           1.8589  -15.3155  -44.8732 O.2       1 UNK        -0.5000 
     67 C          -0.3287  -22.8146  -48.0869 C.2       11 UNK         0.5000 
     68 O          -0.9153  -23.8265  -48.4704 O.2       11 UNK        -0.5000 
     69 N          -0.7359  -22.0719  -47.0456 N.am      12 UNK        -0.5000 
     70 CA         -1.9223  -22.3177  -46.2191 C.3       12 UNK         0.1400 
     71 CB         -2.0989  -21.1707  -45.2132 C.3       12 UNK        -0.1800 
     72 C          -1.9063  -23.6799  -45.5017 C.2       12 UNK         0.5000 
     73 O          -2.9712  -24.2543  -45.2758 O.2       12 UNK        -0.5000 
     74 N          -0.7059  -24.2137  -45.2377 N.am      13 UNK        -0.5000 
     75 CA         -0.4649  -25.5842  -44.7772 C.3       13 UNK         0.1400 
     76 CB          1.0402  -25.7584  -44.5250 C.3       13 UNK        -0.1800 
     77 C          -0.9790  -26.6739  -45.7475 C.2       13 UNK         0.5000 
     78 O          -1.2701  -27.7851  -45.3044 O.2       13 UNK        -0.5000 
     79 N          -1.1063  -26.3314  -47.0367 N.am      14 UNK        -0.5000 
     80 CA         -1.6877  -27.1507  -48.1006 C.3       14 UNK         0.1400 
     81 CB         -0.6372  -27.3219  -49.2124 C.3       14 UNK        -0.1800 
     82 C          -2.9926  -26.5182  -48.6347 C.2       14 UNK         0.5000 
     83 O          -3.3722  -26.7730  -49.7787 O.2       14 UNK        -0.5000 
     84 N          -3.6448  -25.6826  -47.8096 N.am      15 UNK        -0.5000 
     85 CA         -4.8881  -24.9401  -48.0600 C.3       15 UNK         0.1400 
     86 CB         -6.0643  -25.9025  -48.3266 C.3       15 UNK        -0.1800 
     87 C          -4.7837  -23.8410  -49.1398 C.2       15 UNK         0.5000 
     88 O          -5.8142  -23.3037  -49.5474 O.2       15 UNK        -0.5000 
     89 N          -3.5582  -23.5162  -49.5815 N.am      16 UNK        -0.5000 
     90 CA         -3.1991  -22.4850  -50.5625 C.3       16 UNK         0.1400 
     91 CB         -3.2727  -21.0905  -49.9070 C.3       16 UNK        -0.1800 
     92 C          -3.9849  -22.5769  -51.8878 C.2       16 UNK         0.5000 
     93 O          -4.3723  -21.5489  -52.4460 O.2       16 UNK        -0.5000 
     94 N          -4.2393  -23.8159  -52.3392 N.am      17 UNK        -0.5000 
     95 CA         -5.0490  -24.1784  -53.5080 C.3       17 UNK         0.1400 
     96 CB         -4.2989  -23.8325  -54.8064 C.3       17 UNK        -0.1800 
     97 C          -6.4599  -23.5572  -53.4351 C.2       17 UNK         0.5000 
     98 O          -6.8239  -22.7226  -54.2690 O.2       17 UNK        -0.5000 
     99 N          -7.1818  -23.9258  -52.3647 N.am      18 UNK        -0.5000 
    100 CA        -8.5012  -23.4247  -51.9532 C.3       18 UNK         0.1400 
    101 CB        -9.5797  -23.8331  -52.9783 C.3       18 UNK        -0.1800 
    102 C         -8.5126  -21.9093  -51.6515 C.2       18 UNK         0.5000 
    103 O         -9.5494  -21.2598  -51.7965 O.2       18 UNK        -0.5000 
    104 N         -7.3422  -21.3753  -51.2704 N.am      19 UNK        -0.5000 
    105 CA        -7.0051  -19.9599  -51.0866 C.3       19 UNK         0.1400 
    106 CB        -7.7334  -19.3890  -49.8531 C.3       19 UNK        -0.1800 
    107 C         -7.2057  -19.0956  -52.3530 C.2       19 UNK         0.5000 
    108 O         -7.3311  -17.8750  -52.2372 O.2       19 UNK        -0.5000 
    109 N         -7.2461  -19.7315  -53.5320 N.am      20 UNK        -0.5000 
    110 CA        -7.5753  -19.0979  -54.8042 C.3       20 UNK         0.1400 
    111 CB        -8.6876  -19.9042  -55.4969 C.3       20 UNK        -0.1800 
    112 C         -6.3348  -18.9820  -55.6970 C.2       20 UNK         0.5000 
    113 O         -5.9805  -17.8726  -56.0979 O.2       20 UNK        -0.5000 
    114 N         -5.7064  -20.1238  -56.0062 N.am      21 UNK        -0.5000 
    115 CA        -4.6032  -20.2063  -56.9689 C.3       21 UNK         0.1400 
    116 CB        -4.7791  -21.4787  -57.8140 C.3       21 UNK        -0.1800 
    117 C         -3.2090  -20.1593  -56.3154 C.2       21 UNK         0.5000 
    118 O         -2.2127  -20.1551  -57.0400 O.2       21 UNK        -0.5000 
    119 N         -3.1479  -20.1593  -54.9776 N.am      22 UNK        -0.5000 
    120 CA        -1.9428  -20.1748  -54.1249 C.3       22 UNK         0.1400 
    121 C         -1.1035  -21.4840  -54.1862 C.2       22 UNK         0.5000 
    122 N         -0.9814  -22.1439  -55.3290 N.am      22 UNK        -0.7600 
    123 O         -0.5771  -21.9199  -53.1677 O.2       22 UNK        -0.5000 
    124 C124       -1.0350  -18.9248  -54.2902 C.3       23 UNK        -0.0398 
    125 S125       -1.8782  -17.3557  -53.8808 S.3       23 UNK        -0.2404 
    126 C126       -1.9523  -17.3953  -52.0581 C.3       23 UNK        -0.0205 
    127 H127        6.8667  -17.3035  -47.3734 H         1 UNK         0.0600 
    128 H128        6.1738  -18.8153  -47.9682 H         1 UNK         0.0600 
    129 H129        6.6092  -18.6517  -46.2633 H         1 UNK         0.0600 
    130 H130        5.2477  -15.7601  -47.4479 H         1 UNK         0.3000 
    131 H131        2.4536  -16.4134  -47.1126 H         1 UNK         0.0600 
    132 H132        3.6279  -14.5312  -48.6014 H         1 UNK         0.0800 
    133 H133        3.5283  -13.5560  -47.1791 H         1 UNK         0.0800 
    134 H134        0.5944  -13.4885  -50.2863 H         1 UNK         0.0800 
    135 H135        2.2784  -13.9136  -50.3215 H         1 UNK         0.0800 
    136 H136       -0.9373  -15.0301  -51.1723 H         1 UNK         0.1150 
    137 H137       -0.0285  -19.1910  -51.4348 H         1 UNK         0.1150 
    138 H138        2.7637  -16.5064  -49.5937 H         1 UNK         0.1150 
    139 H139        3.4598  -18.8255  -50.4473 H         1 UNK         0.0800 
    140 H140        2.5152  -19.1914  -49.0260 H         1 UNK         0.0800 
    141 H141       -0.1104  -21.6145  -50.5419 H         1 UNK         0.0800 
    142 H142        0.2049  -20.3917  -49.3411 H         1 UNK         0.0800 
    143 H143        1.3490  -23.2289  -49.3451 H         1 UNK         0.0600 
    144 H144        1.8652  -20.9666  -47.5052 H         1 UNK         0.3000 
    145 H145        3.9053  -22.8358  -45.3554 H         1 UNK         0.0600 
    146 H146        5.6823  -21.1883  -45.9757 H         1 UNK         0.0600 
    147 H147        4.8742  -20.8913  -47.5158 H         1 UNK         0.0600 
    148 H148        5.5602  -22.4732  -47.1691 H         1 UNK         0.0600 
    149 H149        3.4396  -20.0147  -45.6592 H         1 UNK         0.3000 
    150 H150        0.7812  -20.0257  -43.2240 H         1 UNK         0.0600 
    151 H151        3.2186  -19.8822  -42.5293 H         1 UNK         0.0600 
    152 H152        2.3266  -18.3815  -42.4059 H         1 UNK         0.0600 
    153 H153        3.4386  -18.6289  -43.7453 H         1 UNK         0.0600 
    154 H154        0.7278  -17.8237  -44.2342 H         1 UNK         0.3000 
    155 H155        0.1606  -16.6536  -46.5421 H         1 UNK         0.0600 
    156 H156       -0.5016  -18.0812  -48.5270 H         1 UNK         0.0600 
    157 H157       -1.7510  -16.9424  -48.0966 H         1 UNK         0.0600 
    158 H158       -1.9124  -18.6408  -47.6461 H         1 UNK         0.0600 
    159 H159       -1.4165  -17.9490  -44.5702 H         1 UNK         0.3000 
    160 H160       -3.8372  -15.3581  -44.1316 H         1 UNK         0.0600 
    161 H161       -3.6781  -18.4169  -43.9888 H         1 UNK         0.0600 
    162 H162       -4.7555  -17.4850  -45.0149 H         1 UNK         0.0600 
    163 H163       -4.9238  -17.4012  -43.2686 H         1 UNK         0.0600 
    164 H164       -2.6777  -15.2624  -42.2938 H         1 UNK         0.3000 
    165 H165       -1.9138  -16.6715  -40.0635 H         1 UNK         0.0600 
    166 H166        0.4245  -17.0970  -39.3735 H         1 UNK         0.0600 
    167 H167       -0.1816  -18.4652  -40.2929 H         1 UNK         0.0600 
    168 H168        0.9117  -17.3092  -41.0497 H         1 UNK         0.0600 
    169 H169        0.0111  -14.9697  -41.6068 H         1 UNK         0.3000 
    170 H170       -1.6100  -12.0336  -40.6365 H         1 UNK         0.0600 
    171 H171        0.0165  -12.1764  -38.7816 H         1 UNK         0.0600 
    172 H172        1.2076  -12.9336  -39.8298 H         1 UNK         0.0600 
    173 H173        0.7162  -11.2637  -40.1111 H         1 UNK         0.0600 
    174 H174        0.6873  -12.6613  -42.2678 H         1 UNK         0.3000 
    175 H175       -0.4856  -13.7851  -44.9433 H         1 UNK         0.0600 
    176 H176       -2.2897  -12.3355  -45.7436 H         1 UNK         0.0600 
    177 H177       -1.4017  -10.8851  -45.3008 H         1 UNK         0.0600 
    178 H178       -0.8120  -11.9284  -46.5966 H         1 UNK         0.0600 
    179 H179        1.5692  -13.1317  -44.7598 H         1 UNK         0.3000 
    180 H180        3.3610  -10.7222  -45.1081 H         1 UNK         0.0600 
    181 H181        3.1076  -10.4528  -42.0647 H         1 UNK         0.0600 
    182 H182        3.1414   -9.1396  -43.2328 H         1 UNK         0.0600 
    183 H183        4.5729  -10.1243  -42.9885 H         1 UNK         0.0600 
    184 H184        4.2963  -12.6911  -44.7288 H         1 UNK         0.3000 
    185 H185        5.2079  -14.5106  -42.9505 H         1 UNK         0.0600 
    186 H186        3.7534  -15.4399  -41.1723 H         1 UNK         0.0600 
    187 H187        2.5800  -15.9735  -42.3664 H         1 UNK         0.0600 
    188 H188        4.1927  -16.6922  -42.3193 H         1 UNK         0.0600 
    189 H189        5.0027  -15.2840  -45.0262 H         1 UNK         0.3000 
    190 H190       -0.1941  -21.2406  -46.8189 H         1 UNK         0.3000 
    191 H191       -2.7877  -22.3179  -46.8843 H         1 UNK         0.0600 
    192 H192       -2.2382  -20.2181  -45.7231 H         1 UNK         0.0600 
    193 H193       -2.9772  -21.3303  -44.5864 H         1 UNK         0.0600 
    194 H194       -1.2375  -21.0779  -44.5516 H         1 UNK         0.0600 
    195 H195        0.1124  -23.6372  -45.3927 H         1 UNK         0.3000 
    196 H196       -0.9919  -25.7131  -43.8299 H         1 UNK         0.0600 
    197 H197        1.2615  -26.7565  -44.1449 H         1 UNK         0.0600 
    198 H198        1.4024  -25.0416  -43.7875 H         1 UNK         0.0600 
    199 H199        1.6183  -25.6181  -45.4394 H         1 UNK         0.0600 
    200 H200       -0.8607  -25.3868  -47.3184 H         1 UNK         0.3000 
    201 H201       -1.9494  -28.1404  -47.7220 H         1 UNK         0.0600 
    202 H202        0.2801  -27.7625  -48.8217 H         1 UNK         0.0600 
    203 H203       -0.3803  -26.3663  -49.6714 H         1 UNK         0.0600 
    204 H204       -1.0007  -27.9808  -50.0018 H         1 UNK         0.0600 
    205 H205       -3.2404  -25.5170  -46.8944 H         1 UNK         0.3000 
    206 H206       -5.1064  -24.4132  -47.1303 H         1 UNK         0.0600 
    207 H207       -6.1369  -26.6615  -47.5477 H         1 UNK         0.0600 
    208 H208       -7.0139  -25.3663  -48.3425 H         1 UNK         0.0600 
    209 H209       -5.9644  -26.4125  -49.2849 H         1 UNK         0.0600 
    210 H210       -2.7662  -24.0036  -49.1751 H         1 UNK         0.3000 
    211 H211       -2.1601  -22.6710  -50.8331 H         1 UNK         0.0600 
    212 H212       -4.2777  -20.8662  -49.5510 H         1 UNK         0.0600 
    213 H213       -2.9839  -20.3068  -50.6060 H         1 UNK         0.0600 
    214 H214       -2.5990  -21.0181  -49.0546 H         1 UNK         0.0600 
    215 H215       -3.8962  -24.5903  -51.7869 H         1 UNK         0.3000 
    216 H216       -5.1788  -25.2613  -53.4808 H         1 UNK         0.0600 
    217 H217       -4.8567  -24.1766  -55.6775 H         1 UNK         0.0600 
    218 H218       -3.3198  -24.3105  -54.8363 H         1 UNK         0.0600 
    219 H219       -4.1467  -22.7596  -54.9087 H         1 UNK         0.0600 
    220 H220       -6.7472  -24.5578  -51.7067 H         1 UNK         0.3000 
    221 H221       -8.7343  -23.9206  -51.0098 H         1 UNK         0.0600 
    222 H222       -9.4529  -23.3123  -53.9280 H         1 UNK         0.0600 
    223 H223       -9.5505  -24.9045  -53.1763 H         1 UNK         0.0600 
    224 H224      -10.5792  -23.6003  -52.6097 H         1 UNK         0.0600 
    225 H225       -6.5723  -22.0188  -51.1292 H         1 UNK         0.3000 
    226 H226       -5.9362  -19.9273  -50.8799 H         1 UNK         0.0600 
    227 H227       -7.5587  -20.0079  -48.9729 H         1 UNK         0.0600 
    228 H228       -7.3788  -18.3852  -49.6166 H         1 UNK         0.0600 
    229 H229       -8.8102  -19.3269  -50.0124 H         1 UNK         0.0600 
    230 H230       -7.0980  -20.7345  -53.5491 H         1 UNK         0.3000 
    231 H231       -7.9595  -18.0884  -54.6431 H         1 UNK         0.0600 
    232 H232       -8.3955  -20.9397  -55.6748 H         1 UNK         0.0600 
    233 H233       -8.9469  -19.4647  -56.4608 H         1 UNK         0.0600 
    234 H234       -9.5938  -19.9175  -54.8909 H         1 UNK         0.0600 
    235 H235       -6.0464  -20.9962  -55.6194 H         1 UNK         0.3000 
    236 H236       -4.6498  -19.3585  -57.6557 H         1 UNK         0.0600 
    237 H237       -5.7355  -21.4723  -58.3372 H         1 UNK         0.0600 
    238 H238       -3.9988  -21.5594  -58.5718 H         1 UNK         0.0600 
    239 H239       -4.7388  -22.3805  -57.2066 H         1 UNK         0.0600 
    240 H240       -4.0199  -20.2192  -54.4698 H         1 UNK         0.3000 
    241 H241       -2.3273  -20.1459  -53.1074 H         1 UNK         0.0600 
    242 H242       -1.3694  -21.7411  -56.1740 H         1 UNK         0.3800 
    243 H243       -0.4442  -22.9950  -55.3663 H         1 UNK         0.3800 
    244 H244       -0.6777  -18.8532  -55.3179 H         1 UNK         0.0800 
    245 H245       -0.1332  -19.0082  -53.6853 H         1 UNK         0.0800 
    246 H246       -2.6669  -16.6383  -51.7316 H         1 UNK         0.0800 
    247 H247       -2.3628  -18.3449  -51.7190 H         1 UNK         0.0800 
@<TRIPOS>BOND
     1    1    2 1    
     2    1  127 1    
     3    1  128 1    
     4    1  129 1    
     5    2    3 2    
     6    2    4 am   BACKBONE|DICT|INTERRES
     7    4    5 1    
     8    4  130 1    
     9    5    6 1    
    10    5   65 1    
    11    5  131 1    
    12    6    7 1    
    13    6  132 1    
    14    6  133 1    
    15    7    8 1    
    16    8    9 1    
    17    8  134 1    
    18    8  135 1    
    19    9   10 ar   
    20    9   14 ar   
    21   10   11 ar   
    22   10  136 1    
    23   11   12 ar   
    24   11  126 1    
    25   12   13 ar   
    26   12  137 1    
    27   13   14 ar   
    28   13   15 1    
    29   14  138 1    
    30   15   16 1    
    31   15  139 1    
    32   15  140 1    
    33   16   17 1    
    34   17   18 1    
    35   17  141 1    
    36   17  142 1    
    37   18   19 1    
    38   18   67 1    
    39   18  143 1    
    40   19   20 am   BACKBONE|DICT|INTERRES
    41   19  144 1    
    42   20   21 2    
    43   20   22 1    
    44   22   23 1    
    45   22   24 1    
    46   22  145 1    
    47   23  146 1    
    48   23  147 1    
    49   23  148 1    
    50   24   25 am   BACKBONE|DICT|INTERRES
    51   24  149 1    
    52   25   26 2    
    53   25   27 1    
    54   27   28 1    
    55   27   29 1    
    56   27  150 1    
    57   28  151 1    
    58   28  152 1    
    59   28  153 1    
    60   29   30 am   BACKBONE|DICT|INTERRES
    61   29  154 1    
    62   30   31 2    
    63   30   32 1    
    64   32   33 1    
    65   32   34 1    
    66   32  155 1    
    67   33  156 1    
    68   33  157 1    
    69   33  158 1    
    70   34   35 am   BACKBONE|DICT|INTERRES
    71   34  159 1    
    72   35   36 2    
    73   35   37 1    
    74   37   38 1    
    75   37   39 1    
    76   37  160 1    
    77   38  161 1    
    78   38  162 1    
    79   38  163 1    
    80   39   40 am   BACKBONE|DICT|INTERRES
    81   39  164 1    
    82   40   41 2    
    83   40   42 1    
    84   42   43 1    
    85   42   44 1    
    86   42  165 1    
    87   43  166 1    
    88   43  167 1    
    89   43  168 1    
    90   44   45 am   BACKBONE|DICT|INTERRES
    91   44  169 1    
    92   45   46 2    
    93   45   47 1    
    94   47   48 1    
    95   47   49 1    
    96   47  170 1    
    97   48  171 1    
    98   48  172 1    
    99   48  173 1    
   100   49   50 am   BACKBONE|DICT|INTERRES
   101   49  174 1    
   102   50   51 2    
   103   50   52 1    
   104   52   53 1    
   105   52   54 1    
   106   52  175 1    
   107   53  176 1    
   108   53  177 1    
   109   53  178 1    
   110   54   55 am   BACKBONE|DICT|INTERRES
   111   54  179 1    
   112   55   56 2    
   113   55   57 1    
   114   57   58 1    
   115   57   59 1    
   116   57  180 1    
   117   58  181 1    
   118   58  182 1    
   119   58  183 1    
   120   59   60 am   BACKBONE|DICT|INTERRES
   121   59  184 1    
   122   60   61 2    
   123   60   62 1    
   124   62   63 1    
   125   62   64 1    
   126   62  185 1    
   127   63  186 1    
   128   63  187 1    
   129   63  188 1    
   130   64   65 am   BACKBONE|DICT|INTERRES
   131   64  189 1    
   132   65   66 2    
   133   67   68 2    
   134   67   69 am   BACKBONE|DICT|INTERRES
   135   69   70 1    
   136   69  190 1    
   137   70   71 1    
   138   70   72 1    
   139   70  191 1    
   140   71  192 1    
   141   71  193 1    
   142   71  194 1    
   143   72   73 2    
   144   72   74 am   BACKBONE|DICT|INTERRES
   145   74   75 1    
   146   74  195 1    
   147   75   76 1    
   148   75   77 1    
   149   75  196 1    
   150   76  197 1    
   151   76  198 1    
   152   76  199 1    
   153   77   78 2    
   154   77   79 am   BACKBONE|DICT|INTERRES
   155   79   80 1    
   156   79  200 1    
   157   80   81 1    
   158   80   82 1    
   159   80  201 1    
   160   81  202 1    
   161   81  203 1    
   162   81  204 1    
   163   82   83 2    
   164   82   84 am   BACKBONE|DICT|INTERRES
   165   84   85 1    
   166   84  205 1    
   167   85   86 1    
   168   85   87 1    
   169   85  206 1    
   170   86  207 1    
   171   86  208 1    
   172   86  209 1    
   173   87   88 2    
   174   87   89 am   BACKBONE|DICT|INTERRES
   175   89   90 1    
   176   89  210 1    
   177   90   91 1    
   178   90   92 1    
   179   90  211 1    
   180   91  212 1    
   181   91  213 1    
   182   91  214 1    
   183   92   93 2    
   184   92   94 am   BACKBONE|DICT|INTERRES
   185   94   95 1    
   186   94  215 1    
   187   95   96 1    
   188   95   97 1    
   189   95  216 1    
   190   96  217 1    
   191   96  218 1    
   192   96  219 1    
   193   97   98 2    
   194   97   99 am   BACKBONE|DICT|INTERRES
   195   99  100 1    
   196   99  220 1    
   197  100  101 1    
   198  100  102 1    
   199  100  221 1    
   200  101  222 1    
   201  101  223 1    
   202  101  224 1    
   203  102  103 2    
   204  102  104 am   BACKBONE|DICT|INTERRES
   205  104  105 1    
   206  104  225 1    
   207  105  106 1    
   208  105  107 1    
   209  105  226 1    
   210  106  227 1    
   211  106  228 1    
   212  106  229 1    
   213  107  108 2    
   214  107  109 am   BACKBONE|DICT|INTERRES
   215  109  110 1    
   216  109  230 1    
   217  110  111 1    
   218  110  112 1    
   219  110  231 1    
   220  111  232 1    
   221  111  233 1    
   222  111  234 1    
   223  112  113 2    
   224  112  114 am   BACKBONE|DICT|INTERRES
   225  114  115 1    
   226  114  235 1    
   227  115  116 1    
   228  115  117 1    
   229  115  236 1    
   230  116  237 1    
   231  116  238 1    
   232  116  239 1    
   233  117  118 2    
   234  117  119 am   BACKBONE|DICT|INTERRES
   235  119  120 1    
   236  119  240 1    
   237  120  121 1    
   238  120  124 1    
   239  120  241 1    
   240  121  122 am   BACKBONE|DICT|INTERRES
   241  121  123 2    
   242  122  242 1    
   243  122  243 1    
   244  124  125 1    
   245  124  244 1    
   246  124  245 1    
   247  125  126 1    
   248  126  246 1    
   249  126  247 1    
@<TRIPOS>SUBSTRUCTURE
     1 UNK         1 GROUP             0       ****    0 ROOT    
