@<TRIPOS>MOLECULE
3R540
247   249    1
SMALL
USER_CHARGES


@<TRIPOS>ATOM
      1 CA         -8.1143  -14.2498  -49.4222 C.3       0 UNK        -0.1800 
      2 C          -6.9759  -13.7733  -48.5320 C.2       0 UNK         0.5000 
      3 O          -7.2235  -13.2807  -47.4311 O.2       0 UNK        -0.5000 
      4 N          -5.7326  -13.9093  -49.0079 N.am      1 UNK        -0.5000 
      5 CA         -4.5086  -13.5716  -48.2754 C.3       1 UNK         0.1400 
      6 C6         -3.2892  -13.4551  -49.2240 C.3       23 UNK        -0.0398 
      7 S7         -2.9743  -14.9224  -50.2735 S.3       23 UNK        -0.2404 
      8 C8         -1.5247  -15.5938  -49.4115 C.3       23 UNK        -0.0205 
      9 C9         -0.9622  -16.8455  -50.0661 C.ar      23 UNK        -0.0193 
     10 C10         0.3414  -16.8511  -50.5677 C.ar      23 UNK        -0.1150 
     11 C11         0.8954  -18.0227  -51.0886 C.ar      23 UNK        -0.0193 
     12 C12         0.1306  -19.1915  -51.1142 C.ar      23 UNK        -0.1150 
     13 C13        -1.1687  -19.2131  -50.5913 C.ar      23 UNK        -0.0193 
     14 C14        -1.7103  -18.0246  -50.0908 C.ar      23 UNK        -0.1150 
     15 C15        -2.0155  -20.4870  -50.5158 C.3       23 UNK        -0.0205 
     16 S16        -1.0928  -22.0531  -50.6951 S.3       23 UNK        -0.2404 
     17 C17        -1.7221  -23.0704  -49.3179 C.3       23 UNK        -0.0398 
     18 CA         -0.6240  -23.9778  -48.7040 C.3       11 UNK         0.1400 
     19 N           0.5251  -23.2022  -48.2228 N.am      11 UNK        -0.5000 
     20 C           1.7940  -23.6301  -48.1891 C.2       10 UNK         0.5000 
     21 O           2.1644  -24.7106  -48.6477 O.2       10 UNK        -0.5000 
     22 CA          2.8149  -22.7124  -47.4867 C.3       10 UNK         0.1400 
     23 CB          3.5318  -21.8228  -48.5137 C.3       10 UNK        -0.1800 
     24 N           2.2009  -21.8706  -46.4540 N.am      10 UNK        -0.5000 
     25 C           1.7315  -22.3293  -45.2812 C.2       9 UNK         0.5000 
     26 O           1.8298  -23.5036  -44.9285 O.2       9 UNK        -0.5000 
     27 CA          0.9679  -21.3397  -44.3745 C.3       9 UNK         0.1400 
     28 CB          1.9256  -20.6912  -43.3653 C.3       9 UNK        -0.1800 
     29 N           0.2868  -20.2862  -45.1230 N.am      9 UNK        -0.5000 
     30 C          -0.6595  -20.4854  -46.0522 C.2       8 UNK         0.5000 
     31 O          -1.1666  -21.5842  -46.2789 O.2       8 UNK        -0.5000 
     32 CA         -1.0272  -19.2866  -46.9491 C.3       8 UNK         0.1400 
     33 CB         -2.4850  -18.8404  -46.7382 C.3       8 UNK        -0.1800 
     34 N          -0.0937  -18.1484  -46.8596 N.am      8 UNK        -0.5000 
     35 C           1.1905  -18.2225  -47.2555 C.2       7 UNK         0.5000 
     36 O           1.6917  -19.2599  -47.6888 O.2       7 UNK        -0.5000 
     37 CA          2.1003  -16.9937  -47.0954 C.3       7 UNK         0.1400 
     38 CB          1.3606  -15.6595  -46.9192 C.3       7 UNK        -0.1800 
     39 N           2.9633  -17.2016  -45.9362 N.am      7 UNK        -0.5000 
     40 C           4.2264  -17.6444  -45.9840 C.2       6 UNK         0.5000 
     41 O           4.8019  -17.9350  -47.0334 O.2       6 UNK        -0.5000 
     42 CA          5.0088  -17.7611  -44.6615 C.3       6 UNK         0.1400 
     43 CB          6.0488  -16.6246  -44.5725 C.3       6 UNK        -0.1800 
     44 N           4.1634  -17.7595  -43.4615 N.am      6 UNK        -0.5000 
     45 C           4.5775  -18.1331  -42.2401 C.2       5 UNK         0.5000 
     46 O           5.6917  -18.6132  -42.0238 O.2       5 UNK        -0.5000 
     47 CA          3.5908  -17.9509  -41.0606 C.3       5 UNK         0.1400 
     48 CB          4.3050  -17.6215  -39.7332 C.3       5 UNK        -0.1800 
     49 N           2.5190  -16.9856  -41.3314 N.am      5 UNK        -0.5000 
     50 C           2.6338  -15.6794  -41.6170 C.2       4 UNK         0.5000 
     51 O           3.6896  -15.0526  -41.5240 O.2       4 UNK        -0.5000 
     52 CA          1.3679  -14.9539  -42.1370 C.3       4 UNK         0.1400 
     53 CB          1.6948  -14.1085  -43.3843 C.3       4 UNK        -0.1800 
     54 N           0.2020  -15.8114  -42.4154 N.am      4 UNK        -0.5000 
     55 C           0.1251  -16.8632  -43.2447 C.2       3 UNK         0.5000 
     56 O           1.0839  -17.3337  -43.8600 O.2       3 UNK        -0.5000 
     57 CA         -1.2548  -17.5201  -43.3847 C.3       3 UNK         0.1400 
     58 CB         -1.5769  -18.3568  -42.1386 C.3       3 UNK        -0.1800 
     59 N          -2.3356  -16.5675  -43.6462 N.am      3 UNK        -0.5000 
     60 C          -2.4240  -15.7639  -44.7168 C.2       2 UNK         0.5000 
     61 O          -1.6182  -15.7783  -45.6488 O.2       2 UNK        -0.5000 
     62 CA         -3.6027  -14.7690  -44.7133 C.3       2 UNK         0.1400 
     63 CB         -3.4281  -13.7358  -43.5870 C.3       2 UNK        -0.1800 
     64 N          -3.7759  -14.0397  -45.9739 N.am      2 UNK        -0.5000 
     65 C          -4.2712  -14.5547  -47.1064 C.2       1 UNK         0.5000 
     66 O          -4.5693  -15.7411  -47.2457 O.2       1 UNK        -0.5000 
     67 C          -1.2225  -24.8559  -47.5795 C.2       11 UNK         0.5000 
     68 O          -2.1523  -25.6177  -47.8472 O.2       11 UNK        -0.5000 
     69 N          -0.7011  -24.7198  -46.3481 N.am      12 UNK        -0.5000 
     70 CA         -1.1701  -25.3203  -45.0959 C.3       12 UNK         0.1400 
     71 CB         -0.9902  -26.8526  -45.1180 C.3       12 UNK        -0.1800 
     72 C          -2.6017  -24.8772  -44.7249 C.2       12 UNK         0.5000 
     73 O          -3.3755  -25.6753  -44.1919 O.2       12 UNK        -0.5000 
     74 N          -2.9292  -23.6139  -45.0231 N.am      13 UNK        -0.5000 
     75 CA         -4.2395  -23.0096  -44.8109 C.3       13 UNK         0.1400 
     76 CB         -4.7924  -22.5835  -46.1790 C.3       13 UNK        -0.1800 
     77 C          -4.1236  -21.7937  -43.8815 C.2       13 UNK         0.5000 
     78 O          -3.0544  -21.1897  -43.7767 O.2       13 UNK        -0.5000 
     79 N          -5.2457  -21.4341  -43.2451 N.am      14 UNK        -0.5000 
     80 CA         -5.3726  -20.2260  -42.4256 C.3       14 UNK         0.1400 
     81 CB         -6.6395  -20.3296  -41.5631 C.3       14 UNK        -0.1800 
     82 C          -5.4026  -18.9411  -43.2757 C.2       14 UNK         0.5000 
     83 O          -4.9299  -17.8985  -42.8203 O.2       14 UNK        -0.5000 
     84 N          -5.9436  -19.0472  -44.4948 N.am      15 UNK        -0.5000 
     85 CA         -6.0192  -17.9962  -45.4987 C.3       15 UNK         0.1400 
     86 CB         -7.0063  -16.8931  -45.0604 C.3       15 UNK        -0.1800 
     87 C          -6.4641  -18.6093  -46.8355 C.2       15 UNK         0.5000 
     88 O          -6.9804  -19.7300  -46.8547 O.2       15 UNK        -0.5000 
     89 N          -6.3012  -17.8282  -47.9091 N.am      16 UNK        -0.5000 
     90 CA         -6.7658  -18.0645  -49.2760 C.3       16 UNK         0.1400 
     91 CB         -8.3101  -18.1075  -49.3323 C.3       16 UNK        -0.1800 
     92 C          -6.0816  -19.2789  -49.9311 C.2       16 UNK         0.5000 
     93 O          -4.9211  -19.1651  -50.3219 O.2       16 UNK        -0.5000 
     94 N          -6.8160  -20.3911  -50.0891 N.am      17 UNK        -0.5000 
     95 CA         -6.3958  -21.6485  -50.7235 C.3       17 UNK         0.1400 
     96 CB         -5.3832  -22.3926  -49.8330 C.3       17 UNK        -0.1800 
     97 C          -5.9136  -21.4709  -52.1801 C.2       17 UNK         0.5000 
     98 O          -4.9454  -22.1058  -52.6015 O.2       17 UNK        -0.5000 
     99 N          -6.5976  -20.5776  -52.9129 N.am      18 UNK        -0.5000 
    100 CA        -6.4258  -20.2554  -54.3368 C.3       18 UNK         0.1400 
    101 CB        -6.8630  -21.4569  -55.2009 C.3       18 UNK        -0.1800 
    102 C         -5.0211  -19.7452  -54.7333 C.2       18 UNK         0.5000 
    103 O         -4.6945  -19.7519  -55.9213 O.2       18 UNK        -0.5000 
    104 N         -4.2144  -19.3258  -53.7447 N.am      19 UNK        -0.5000 
    105 CA        -2.8012  -18.9469  -53.8645 C.3       19 UNK         0.1400 
    106 CB        -2.6471  -17.6366  -54.6642 C.3       19 UNK        -0.1800 
    107 C         -1.9123  -20.0925  -54.4065 C.2       19 UNK         0.5000 
    108 O         -0.9367  -19.8239  -55.1078 O.2       19 UNK        -0.5000 
    109 N         -2.2755  -21.3486  -54.0983 N.am      20 UNK        -0.5000 
    110 CA        -1.7498  -22.5736  -54.7126 C.3       20 UNK         0.1400 
    111 CB        -2.4131  -23.7942  -54.0563 C.3       20 UNK        -0.1800 
    112 C         -0.2160  -22.7291  -54.7148 C.2       20 UNK         0.5000 
    113 O          0.3446  -23.1331  -55.7344 O.2       20 UNK        -0.5000 
    114 N          0.4356  -22.4015  -53.5914 N.am      21 UNK        -0.5000 
    115 CA         1.8933  -22.4719  -53.4442 C.3       21 UNK         0.1400 
    116 CB         2.2510  -22.6612  -51.9604 C.3       21 UNK        -0.1800 
    117 C          2.6249  -21.2493  -54.0358 C.2       21 UNK         0.5000 
    118 O          3.8337  -21.3268  -54.2594 O.2       21 UNK        -0.5000 
    119 N          1.8968  -20.1511  -54.2709 N.am      22 UNK        -0.5000 
    120 CA         2.3997  -18.9236  -54.9054 C.3       22 UNK         0.1400 
    121 C          2.2388  -18.9623  -56.4503 C.2       22 UNK         0.5000 
    122 N          1.1407  -19.4864  -56.9785 N.am      22 UNK        -0.7600 
    123 O          3.1231  -18.5180  -57.1773 O.2       22 UNK        -0.5000 
    124 C124        1.7207  -17.6638  -54.2990 C.3       23 UNK        -0.0398 
    125 S125        2.6865  -16.9266  -52.9392 S.3       23 UNK        -0.2404 
    126 C126        2.3465  -18.0495  -51.5469 C.3       23 UNK        -0.0205 
    127 H127       -8.6170  -13.3958  -49.8758 H         1 UNK         0.0600 
    128 H128       -8.8467  -14.8011  -48.8330 H         1 UNK         0.0600 
    129 H129       -7.7579  -14.9022  -50.2197 H         1 UNK         0.0600 
    130 H130       -5.5834  -14.3438  -49.9072 H         1 UNK         0.3000 
    131 H131       -4.6647  -12.5833  -47.8372 H         1 UNK         0.0600 
    132 H132       -3.4483  -12.6118  -49.8973 H         1 UNK         0.0800 
    133 H133       -2.3926  -13.1978  -48.6576 H         1 UNK         0.0800 
    134 H134       -0.7633  -14.8142  -49.3713 H         1 UNK         0.0800 
    135 H135       -1.7937  -15.8264  -48.3805 H         1 UNK         0.0800 
    136 H136        0.9404  -15.9522  -50.5278 H         1 UNK         0.1150 
    137 H137        0.5713  -20.0893  -51.5130 H         1 UNK         0.1150 
    138 H138       -2.7102  -18.0206  -49.6809 H         1 UNK         0.1150 
    139 H139       -2.5502  -20.4839  -49.5665 H         1 UNK         0.0800 
    140 H140       -2.7843  -20.4573  -51.2861 H         1 UNK         0.0800 
    141 H141       -2.1561  -22.4304  -48.5494 H         1 UNK         0.0800 
    142 H142       -2.5424  -23.6746  -49.7089 H         1 UNK         0.0800 
    143 H143       -0.2845  -24.6593  -49.4869 H         1 UNK         0.0600 
    144 H144        0.3020  -22.3094  -47.8050 H         1 UNK         0.3000 
    145 H145        3.5619  -23.3487  -47.0075 H         1 UNK         0.0600 
    146 H146        4.2514  -21.1605  -48.0319 H         1 UNK         0.0600 
    147 H147        2.8284  -21.2034  -49.0710 H         1 UNK         0.0600 
    148 H148        4.0779  -22.4277  -49.2385 H         1 UNK         0.0600 
    149 H149        2.0556  -20.8964  -46.7068 H         1 UNK         0.3000 
    150 H150        0.2091  -21.9021  -43.8261 H         1 UNK         0.0600 
    151 H151        2.7037  -20.1189  -43.8702 H         1 UNK         0.0600 
    152 H152        1.3964  -20.0192  -42.6903 H         1 UNK         0.0600 
    153 H153        2.4187  -21.4467  -42.7523 H         1 UNK         0.0600 
    154 H154        0.6575  -19.3516  -45.0207 H         1 UNK         0.3000 
    155 H155       -0.9494  -19.6646  -47.9660 H         1 UNK         0.0600 
    156 H156       -3.1719  -19.5928  -47.1265 H         1 UNK         0.0600 
    157 H157       -2.7027  -17.9090  -47.2600 H         1 UNK         0.0600 
    158 H158       -2.7360  -18.7032  -45.6884 H         1 UNK         0.0600 
    159 H159       -0.4625  -17.2753  -46.4945 H         1 UNK         0.3000 
    160 H160        2.6923  -16.9203  -48.0101 H         1 UNK         0.0600 
    161 H161        0.6175  -15.5124  -47.6978 H         1 UNK         0.0600 
    162 H162        2.0562  -14.8225  -46.9769 H         1 UNK         0.0600 
    163 H163        0.8582  -15.5954  -45.9570 H         1 UNK         0.0600 
    164 H164        2.4994  -17.0671  -45.0456 H         1 UNK         0.3000 
    165 H165        5.5379  -18.7155  -44.7029 H         1 UNK         0.0600 
    166 H166        6.7275  -16.7631  -43.7312 H         1 UNK         0.0600 
    167 H167        6.6645  -16.5797  -45.4718 H         1 UNK         0.0600 
    168 H168        5.5660  -15.6536  -44.4554 H         1 UNK         0.0600 
    169 H169        3.2143  -17.4248  -43.5583 H         1 UNK         0.3000 
    170 H170        3.0991  -18.9165  -40.9351 H         1 UNK         0.0600 
    171 H171        4.9832  -18.4248  -39.4433 H         1 UNK         0.0600 
    172 H172        4.8954  -16.7079  -39.8056 H         1 UNK         0.0600 
    173 H173        3.5892  -17.4955  -38.9209 H         1 UNK         0.0600 
    174 H174        1.6021  -17.3890  -41.4558 H         1 UNK         0.3000 
    175 H175        1.0598  -14.2729  -41.3425 H         1 UNK         0.0600 
    176 H176        2.1451  -14.7125  -44.1717 H         1 UNK         0.0600 
    177 H177        0.8007  -13.6360  -43.7915 H         1 UNK         0.0600 
    178 H178        2.4007  -13.3126  -43.1443 H         1 UNK         0.0600 
    179 H179       -0.6480  -15.5370  -41.9433 H         1 UNK         0.3000 
    180 H180       -1.1954  -18.1995  -44.2284 H         1 UNK         0.0600 
    181 H181       -0.7672  -19.0502  -41.9085 H         1 UNK         0.0600 
    182 H182       -2.4705  -18.9581  -42.2940 H         1 UNK         0.0600 
    183 H183       -1.7409  -17.7339  -41.2588 H         1 UNK         0.0600 
    184 H184       -3.0911  -16.5604  -42.9723 H         1 UNK         0.3000 
    185 H185       -4.5143  -15.3371  -44.5217 H         1 UNK         0.0600 
    186 H186       -3.3792  -14.2152  -42.6086 H         1 UNK         0.0600 
    187 H187       -2.5135  -13.1549  -43.7136 H         1 UNK         0.0600 
    188 H188       -4.2665  -13.0394  -43.5572 H         1 UNK         0.0600 
    189 H189       -3.5234  -13.0629  -45.9522 H         1 UNK         0.3000 
    190 H190        0.0705  -24.0751  -46.2434 H         1 UNK         0.3000 
    191 H191       -0.5230  -24.9273  -44.3107 H         1 UNK         0.0600 
    192 H192       -1.2002  -27.2846  -44.1390 H         1 UNK         0.0600 
    193 H193        0.0326  -27.1248  -45.3785 H         1 UNK         0.0600 
    194 H194       -1.6581  -27.3304  -45.8352 H         1 UNK         0.0600 
    195 H195       -2.2258  -22.9881  -45.4077 H         1 UNK         0.3000 
    196 H196       -4.9301  -23.7238  -44.3582 H         1 UNK         0.0600 
    197 H197       -4.1560  -21.8385  -46.6585 H         1 UNK         0.0600 
    198 H198       -4.8645  -23.4405  -46.8486 H         1 UNK         0.0600 
    199 H199       -5.7914  -22.1561  -46.0886 H         1 UNK         0.0600 
    200 H200       -6.0828  -21.9851  -43.3699 H         1 UNK         0.3000 
    201 H201       -4.5113  -20.1665  -41.7572 H         1 UNK         0.0600 
    202 H202       -6.7486  -19.4517  -40.9248 H         1 UNK         0.0600 
    203 H203       -6.6022  -21.2019  -40.9103 H         1 UNK         0.0600 
    204 H204       -7.5396  -20.4045  -42.1745 H         1 UNK         0.0600 
    205 H205       -6.3041  -19.9386  -44.8109 H         1 UNK         0.3000 
    206 H206       -5.0182  -17.5825  -45.6174 H         1 UNK         0.0600 
    207 H207       -6.7052  -16.4234  -44.1248 H         1 UNK         0.0600 
    208 H208       -7.0658  -16.0995  -45.8065 H         1 UNK         0.0600 
    209 H209       -8.0125  -17.2909  -44.9238 H         1 UNK         0.0600 
    210 H210       -5.7652  -16.9709  -47.7739 H         1 UNK         0.3000 
    211 H211       -6.4463  -17.1948  -49.8522 H         1 UNK         0.0600 
    212 H212       -8.7274  -18.9354  -48.7587 H         1 UNK         0.0600 
    213 H213       -8.6627  -18.2037  -50.3599 H         1 UNK         0.0600 
    214 H214       -8.7393  -17.1903  -48.9315 H         1 UNK         0.0600 
    215 H215       -7.7564  -20.3821  -49.7197 H         1 UNK         0.3000 
    216 H216       -7.2886  -22.2722  -50.7859 H         1 UNK         0.0600 
    217 H217       -5.8108  -22.5871  -48.8510 H         1 UNK         0.0600 
    218 H218       -4.4691  -21.8193  -49.6931 H         1 UNK         0.0600 
    219 H219       -5.1076  -23.3564  -50.2626 H         1 UNK         0.0600 
    220 H220       -7.3498  -20.0869  -52.4506 H         1 UNK         0.3000 
    221 H221       -7.1104  -19.4323  -54.5453 H         1 UNK         0.0600 
    222 H222       -6.8913  -21.1939  -56.2590 H         1 UNK         0.0600 
    223 H223       -6.1805  -22.3005  -55.0920 H         1 UNK         0.0600 
    224 H224       -7.8622  -21.7965  -54.9284 H         1 UNK         0.0600 
    225 H225       -4.5764  -19.3640  -52.8004 H         1 UNK         0.3000 
    226 H226       -2.4571  -18.7345  -52.8562 H         1 UNK         0.0600 
    227 H227       -3.2866  -16.8517  -54.2606 H         1 UNK         0.0600 
    228 H228       -1.6213  -17.2699  -54.6189 H         1 UNK         0.0600 
    229 H229       -2.8990  -17.7694  -55.7166 H         1 UNK         0.0600 
    230 H230       -3.0978  -21.4764  -53.5186 H         1 UNK         0.3000 
    231 H231       -2.0631  -22.5506  -55.7581 H         1 UNK         0.0600 
    232 H232       -2.0329  -24.7251  -54.4790 H         1 UNK         0.0600 
    233 H233       -3.4918  -23.7865  -54.2127 H         1 UNK         0.0600 
    234 H234       -2.2317  -23.8217  -52.9814 H         1 UNK         0.0600 
    235 H235       -0.0993  -22.1083  -52.7840 H         1 UNK         0.3000 
    236 H236        2.2549  -23.3522  -53.9801 H         1 UNK         0.0600 
    237 H237        1.9743  -21.7985  -51.3571 H         1 UNK         0.0600 
    238 H238        1.7525  -23.5355  -51.5410 H         1 UNK         0.0600 
    239 H239        3.3240  -22.8110  -51.8355 H         1 UNK         0.0600 
    240 H240        0.8930  -20.2044  -54.1556 H         1 UNK         0.3000 
    241 H241        3.4740  -18.8491  -54.7243 H         1 UNK         0.0600 
    242 H242        0.3718  -19.7715  -56.3753 H         1 UNK         0.3800 
    243 H243        1.0333  -19.5211  -57.9793 H         1 UNK         0.3800 
    244 H244        0.7073  -17.8788  -53.9581 H         1 UNK         0.0800 
    245 H245        1.6112  -16.8736  -55.0444 H         1 UNK         0.0800 
    246 H246        2.6569  -19.0601  -51.8135 H         1 UNK         0.0800 
    247 H247        2.9769  -17.7584  -50.7055 H         1 UNK         0.0800 
@<TRIPOS>BOND
     1    1    2 1    
     2    1  127 1    
     3    1  128 1    
     4    1  129 1    
     5    2    3 2    
     6    2    4 am   BACKBONE|DICT|INTERRES
     7    4    5 1    
     8    4  130 1    
     9    5    6 1    
    10    5   65 1    
    11    5  131 1    
    12    6    7 1    
    13    6  132 1    
    14    6  133 1    
    15    7    8 1    
    16    8    9 1    
    17    8  134 1    
    18    8  135 1    
    19    9   10 ar   
    20    9   14 ar   
    21   10   11 ar   
    22   10  136 1    
    23   11   12 ar   
    24   11  126 1    
    25   12   13 ar   
    26   12  137 1    
    27   13   14 ar   
    28   13   15 1    
    29   14  138 1    
    30   15   16 1    
    31   15  139 1    
    32   15  140 1    
    33   16   17 1    
    34   17   18 1    
    35   17  141 1    
    36   17  142 1    
    37   18   19 1    
    38   18   67 1    
    39   18  143 1    
    40   19   20 am   BACKBONE|DICT|INTERRES
    41   19  144 1    
    42   20   21 2    
    43   20   22 1    
    44   22   23 1    
    45   22   24 1    
    46   22  145 1    
    47   23  146 1    
    48   23  147 1    
    49   23  148 1    
    50   24   25 am   BACKBONE|DICT|INTERRES
    51   24  149 1    
    52   25   26 2    
    53   25   27 1    
    54   27   28 1    
    55   27   29 1    
    56   27  150 1    
    57   28  151 1    
    58   28  152 1    
    59   28  153 1    
    60   29   30 am   BACKBONE|DICT|INTERRES
    61   29  154 1    
    62   30   31 2    
    63   30   32 1    
    64   32   33 1    
    65   32   34 1    
    66   32  155 1    
    67   33  156 1    
    68   33  157 1    
    69   33  158 1    
    70   34   35 am   BACKBONE|DICT|INTERRES
    71   34  159 1    
    72   35   36 2    
    73   35   37 1    
    74   37   38 1    
    75   37   39 1    
    76   37  160 1    
    77   38  161 1    
    78   38  162 1    
    79   38  163 1    
    80   39   40 am   BACKBONE|DICT|INTERRES
    81   39  164 1    
    82   40   41 2    
    83   40   42 1    
    84   42   43 1    
    85   42   44 1    
    86   42  165 1    
    87   43  166 1    
    88   43  167 1    
    89   43  168 1    
    90   44   45 am   BACKBONE|DICT|INTERRES
    91   44  169 1    
    92   45   46 2    
    93   45   47 1    
    94   47   48 1    
    95   47   49 1    
    96   47  170 1    
    97   48  171 1    
    98   48  172 1    
    99   48  173 1    
   100   49   50 am   BACKBONE|DICT|INTERRES
   101   49  174 1    
   102   50   51 2    
   103   50   52 1    
   104   52   53 1    
   105   52   54 1    
   106   52  175 1    
   107   53  176 1    
   108   53  177 1    
   109   53  178 1    
   110   54   55 am   BACKBONE|DICT|INTERRES
   111   54  179 1    
   112   55   56 2    
   113   55   57 1    
   114   57   58 1    
   115   57   59 1    
   116   57  180 1    
   117   58  181 1    
   118   58  182 1    
   119   58  183 1    
   120   59   60 am   BACKBONE|DICT|INTERRES
   121   59  184 1    
   122   60   61 2    
   123   60   62 1    
   124   62   63 1    
   125   62   64 1    
   126   62  185 1    
   127   63  186 1    
   128   63  187 1    
   129   63  188 1    
   130   64   65 am   BACKBONE|DICT|INTERRES
   131   64  189 1    
   132   65   66 2    
   133   67   68 2    
   134   67   69 am   BACKBONE|DICT|INTERRES
   135   69   70 1    
   136   69  190 1    
   137   70   71 1    
   138   70   72 1    
   139   70  191 1    
   140   71  192 1    
   141   71  193 1    
   142   71  194 1    
   143   72   73 2    
   144   72   74 am   BACKBONE|DICT|INTERRES
   145   74   75 1    
   146   74  195 1    
   147   75   76 1    
   148   75   77 1    
   149   75  196 1    
   150   76  197 1    
   151   76  198 1    
   152   76  199 1    
   153   77   78 2    
   154   77   79 am   BACKBONE|DICT|INTERRES
   155   79   80 1    
   156   79  200 1    
   157   80   81 1    
   158   80   82 1    
   159   80  201 1    
   160   81  202 1    
   161   81  203 1    
   162   81  204 1    
   163   82   83 2    
   164   82   84 am   BACKBONE|DICT|INTERRES
   165   84   85 1    
   166   84  205 1    
   167   85   86 1    
   168   85   87 1    
   169   85  206 1    
   170   86  207 1    
   171   86  208 1    
   172   86  209 1    
   173   87   88 2    
   174   87   89 am   BACKBONE|DICT|INTERRES
   175   89   90 1    
   176   89  210 1    
   177   90   91 1    
   178   90   92 1    
   179   90  211 1    
   180   91  212 1    
   181   91  213 1    
   182   91  214 1    
   183   92   93 2    
   184   92   94 am   BACKBONE|DICT|INTERRES
   185   94   95 1    
   186   94  215 1    
   187   95   96 1    
   188   95   97 1    
   189   95  216 1    
   190   96  217 1    
   191   96  218 1    
   192   96  219 1    
   193   97   98 2    
   194   97   99 am   BACKBONE|DICT|INTERRES
   195   99  100 1    
   196   99  220 1    
   197  100  101 1    
   198  100  102 1    
   199  100  221 1    
   200  101  222 1    
   201  101  223 1    
   202  101  224 1    
   203  102  103 2    
   204  102  104 am   BACKBONE|DICT|INTERRES
   205  104  105 1    
   206  104  225 1    
   207  105  106 1    
   208  105  107 1    
   209  105  226 1    
   210  106  227 1    
   211  106  228 1    
   212  106  229 1    
   213  107  108 2    
   214  107  109 am   BACKBONE|DICT|INTERRES
   215  109  110 1    
   216  109  230 1    
   217  110  111 1    
   218  110  112 1    
   219  110  231 1    
   220  111  232 1    
   221  111  233 1    
   222  111  234 1    
   223  112  113 2    
   224  112  114 am   BACKBONE|DICT|INTERRES
   225  114  115 1    
   226  114  235 1    
   227  115  116 1    
   228  115  117 1    
   229  115  236 1    
   230  116  237 1    
   231  116  238 1    
   232  116  239 1    
   233  117  118 2    
   234  117  119 am   BACKBONE|DICT|INTERRES
   235  119  120 1    
   236  119  240 1    
   237  120  121 1    
   238  120  124 1    
   239  120  241 1    
   240  121  122 am   BACKBONE|DICT|INTERRES
   241  121  123 2    
   242  122  242 1    
   243  122  243 1    
   244  124  125 1    
   245  124  244 1    
   246  124  245 1    
   247  125  126 1    
   248  126  246 1    
   249  126  247 1    
@<TRIPOS>SUBSTRUCTURE
     1 UNK         1 GROUP             0       ****    0 ROOT    
