@<TRIPOS>MOLECULE
3R540
247   249    1
SMALL
USER_CHARGES


@<TRIPOS>ATOM
      1 CA          2.4600   -9.7399  -49.6827 C.3       0 UNK        -0.1800 
      2 C           2.6019  -11.2441  -49.8651 C.2       0 UNK         0.5000 
      3 O           1.6224  -11.9733  -49.7102 O.2       0 UNK        -0.5000 
      4 N           3.8182  -11.7091  -50.1811 N.am      1 UNK        -0.5000 
      5 CA          4.2222  -13.1045  -50.4111 C.3       1 UNK         0.1400 
      6 C6          3.4292  -13.7925  -51.5536 C.3       23 UNK        -0.0398 
      7 S7          4.2611  -15.2890  -52.1951 S.3       23 UNK        -0.2404 
      8 C8          2.8669  -16.4282  -52.4876 C.3       23 UNK        -0.0205 
      9 C9          2.0339  -16.6757  -51.2377 C.ar      23 UNK        -0.0193 
     10 C10         0.7130  -16.2169  -51.1755 C.ar      23 UNK        -0.1150 
     11 C11        -0.0518  -16.4169  -50.0240 C.ar      23 UNK        -0.0193 
     12 C12         0.5171  -17.0715  -48.9334 C.ar      23 UNK        -0.1150 
     13 C13         1.8229  -17.5611  -48.9884 C.ar      23 UNK        -0.0193 
     14 C14         2.5801  -17.3591  -50.1456 C.ar      23 UNK        -0.1150 
     15 C15         2.4040  -18.3001  -47.7926 C.3       23 UNK        -0.0205 
     16 S16         2.1203  -20.0993  -47.8877 S.3       23 UNK        -0.2404 
     17 C17         0.2979  -20.2008  -47.9243 C.3       23 UNK        -0.0398 
     18 CA         -0.2413  -21.4993  -47.2843 C.3       11 UNK         0.1400 
     19 N          -0.1535  -21.4718  -45.8190 N.am      11 UNK        -0.5000 
     20 C          -0.4187  -22.5107  -45.0154 C.2       10 UNK         0.5000 
     21 O          -0.7307  -23.6262  -45.4263 O.2       10 UNK        -0.5000 
     22 CA         -0.3876  -22.2552  -43.4979 C.3       10 UNK         0.1400 
     23 CB          1.0545  -22.2078  -42.9715 C.3       10 UNK        -0.1800 
     24 N          -1.1055  -21.0378  -43.1181 N.am      10 UNK        -0.5000 
     25 C          -2.4233  -20.8559  -43.2887 C.2       9 UNK         0.5000 
     26 O          -3.1768  -21.7144  -43.7468 O.2       9 UNK        -0.5000 
     27 CA         -2.9938  -19.4717  -42.9295 C.3       9 UNK         0.1400 
     28 CB         -3.2425  -19.3575  -41.4184 C.3       9 UNK        -0.1800 
     29 N          -2.1375  -18.3719  -43.3721 N.am      9 UNK        -0.5000 
     30 C          -1.8262  -18.1143  -44.6505 C.2       8 UNK         0.5000 
     31 O          -2.2636  -18.7522  -45.6075 O.2       8 UNK        -0.5000 
     32 CA         -0.7953  -16.9984  -44.8935 C.3       8 UNK         0.1400 
     33 CB         -1.4404  -15.6105  -44.7626 C.3       8 UNK        -0.1800 
     34 N           0.3618  -17.1068  -44.0041 N.am      8 UNK        -0.5000 
     35 C           1.1838  -18.1660  -43.9568 C.2       7 UNK         0.5000 
     36 O           1.0835  -19.1424  -44.6968 O.2       7 UNK        -0.5000 
     37 CA          2.2655  -18.1580  -42.8657 C.3       7 UNK         0.1400 
     38 CB          3.4884  -17.3405  -43.3092 C.3       7 UNK        -0.1800 
     39 N           1.7437  -17.6441  -41.5993 N.am      7 UNK        -0.5000 
     40 C           0.8569  -18.2979  -40.8340 C.2       6 UNK         0.5000 
     41 O           0.4332  -19.4247  -41.0908 O.2       6 UNK        -0.5000 
     42 CA          0.3221  -17.5484  -39.5997 C.3       6 UNK         0.1400 
     43 CB          1.2913  -17.6912  -38.4168 C.3       6 UNK        -0.1800 
     44 N           0.0877  -16.1283  -39.8661 N.am      6 UNK        -0.5000 
     45 C          -0.8484  -15.6577  -40.7031 C.2       5 UNK         0.5000 
     46 O          -1.6557  -16.3738  -41.2942 O.2       5 UNK        -0.5000 
     47 CA         -0.8443  -14.1377  -40.9639 C.3       5 UNK         0.1400 
     48 CB         -1.7325  -13.4131  -39.9420 C.3       5 UNK        -0.1800 
     49 N           0.5002  -13.5501  -40.9441 N.am      5 UNK        -0.5000 
     50 C           1.4856  -13.8878  -41.7858 C.2       4 UNK         0.5000 
     51 O           1.3518  -14.7142  -42.6937 O.2       4 UNK        -0.5000 
     52 CA          2.8590  -13.2490  -41.5335 C.3       4 UNK         0.1400 
     53 CB          3.4562  -13.7591  -40.2054 C.3       4 UNK        -0.1800 
     54 N           3.7334  -13.6049  -42.6451 N.am      4 UNK        -0.5000 
     55 C           4.9329  -13.0852  -42.9253 C.2       3 UNK         0.5000 
     56 O           5.4549  -12.1777  -42.2764 O.2       3 UNK        -0.5000 
     57 CA          5.6873  -13.6887  -44.1272 C.3       3 UNK         0.1400 
     58 CB          6.7012  -14.7379  -43.6448 C.3       3 UNK        -0.1800 
     59 N           4.8055  -14.3091  -45.1205 N.am      3 UNK        -0.5000 
     60 C           4.0492  -13.6240  -45.9864 C.2       2 UNK         0.5000 
     61 O           4.0057  -12.3920  -46.0332 O.2       2 UNK        -0.5000 
     62 CA          3.1800  -14.4553  -46.9475 C.3       2 UNK         0.1400 
     63 CB          1.7286  -14.4937  -46.4492 C.3       2 UNK        -0.1800 
     64 N           3.2162  -13.8936  -48.2957 N.am      2 UNK        -0.5000 
     65 C           4.2781  -13.9396  -49.1095 C.2       1 UNK         0.5000 
     66 O           5.3025  -14.5712  -48.8433 O.2       1 UNK        -0.5000 
     67 C          -1.6746  -21.7874  -47.7801 C.2       11 UNK         0.5000 
     68 O          -1.8410  -22.5452  -48.7380 O.2       11 UNK        -0.5000 
     69 N          -2.6839  -21.2091  -47.1144 N.am      12 UNK        -0.5000 
     70 CA         -4.0966  -21.4633  -47.3908 C.3       12 UNK         0.1400 
     71 CB         -4.9712  -20.4639  -46.6199 C.3       12 UNK        -0.1800 
     72 C          -4.4988  -22.9157  -47.0794 C.2       12 UNK         0.5000 
     73 O          -5.1305  -23.5582  -47.9179 O.2       12 UNK        -0.5000 
     74 N          -4.0846  -23.4217  -45.9083 N.am      13 UNK        -0.5000 
     75 CA         -4.3068  -24.8010  -45.4655 C.3       13 UNK         0.1400 
     76 CB         -3.8811  -24.9418  -43.9964 C.3       13 UNK        -0.1800 
     77 C          -3.5862  -25.8431  -46.3420 C.2       13 UNK         0.5000 
     78 O          -4.1524  -26.9010  -46.6187 O.2       13 UNK        -0.5000 
     79 N          -2.3670  -25.5131  -46.7889 N.am      14 UNK        -0.5000 
     80 CA         -1.5638  -26.3095  -47.7191 C.3       14 UNK         0.1400 
     81 CB         -0.1076  -25.8206  -47.6669 C.3       14 UNK        -0.1800 
     82 C          -2.0823  -26.2754  -49.1708 C.2       14 UNK         0.5000 
     83 O          -1.6264  -27.0837  -49.9807 O.2       14 UNK        -0.5000 
     84 N          -3.0059  -25.3493  -49.4725 N.am      15 UNK        -0.5000 
     85 CA         -3.6107  -25.0847  -50.7788 C.3       15 UNK         0.1400 
     86 CB         -4.4552  -26.2901  -51.2428 C.3       15 UNK        -0.1800 
     87 C          -2.5566  -24.6348  -51.8100 C.2       15 UNK         0.5000 
     88 O          -2.4468  -25.2208  -52.8888 O.2       15 UNK        -0.5000 
     89 N          -1.7890  -23.5952  -51.4478 N.am      16 UNK        -0.5000 
     90 CA         -0.6569  -23.0512  -52.2102 C.3       16 UNK         0.1400 
     91 CB         -0.0096  -21.9166  -51.4004 C.3       16 UNK        -0.1800 
     92 C          -0.9817  -22.5716  -53.6422 C.2       16 UNK         0.5000 
     93 O          -0.0767  -22.5285  -54.4764 O.2       16 UNK        -0.5000 
     94 N          -2.2528  -22.2443  -53.9084 N.am      17 UNK        -0.5000 
     95 CA         -2.7791  -21.9219  -55.2375 C.3       17 UNK         0.1400 
     96 CB         -3.0938  -20.4177  -55.3186 C.3       17 UNK        -0.1800 
     97 C          -4.0050  -22.7996  -55.5536 C.2       17 UNK         0.5000 
     98 O          -4.9510  -22.3301  -56.1881 O.2       17 UNK        -0.5000 
     99 N          -3.9825  -24.0534  -55.0768 N.am      18 UNK        -0.5000 
    100 CA        -5.0601  -25.0419  -55.1541 C.3       18 UNK         0.1400 
    101 CB        -5.2852  -25.4966  -56.6147 C.3       18 UNK        -0.1800 
    102 C         -6.3302  -24.5387  -54.4350 C.2       18 UNK         0.5000 
    103 O         -6.2200  -23.9782  -53.3412 O.2       18 UNK        -0.5000 
    104 N         -7.5026  -24.7238  -55.0563 N.am      19 UNK        -0.5000 
    105 CA        -8.8249  -24.3683  -54.5306 C.3       19 UNK         0.1400 
    106 CB        -9.8953  -24.8631  -55.5159 C.3       19 UNK        -0.1800 
    107 C         -9.0276  -22.8693  -54.2245 C.2       19 UNK         0.5000 
    108 O         -9.9295  -22.5333  -53.4557 O.2       19 UNK        -0.5000 
    109 N         -8.1900  -21.9974  -54.8054 N.am      20 UNK        -0.5000 
    110 CA        -8.1646  -20.5632  -54.5143 C.3       20 UNK         0.1400 
    111 CB        -7.3825  -19.8350  -55.6183 C.3       20 UNK        -0.1800 
    112 C         -7.5690  -20.2350  -53.1301 C.2       20 UNK         0.5000 
    113 O         -7.8164  -19.1394  -52.6243 O.2       20 UNK        -0.5000 
    114 N         -6.7843  -21.1636  -52.5533 N.am      21 UNK        -0.5000 
    115 CA        -6.1525  -21.0913  -51.2273 C.3       21 UNK         0.1400 
    116 CB        -7.2159  -21.2820  -50.1274 C.3       21 UNK        -0.1800 
    117 C         -5.2929  -19.8227  -51.0217 C.2       21 UNK         0.5000 
    118 O         -5.2974  -19.2420  -49.9381 O.2       21 UNK        -0.5000 
    119 N         -4.6082  -19.4157  -52.0982 N.am      22 UNK        -0.5000 
    120 CA        -3.8140  -18.1851  -52.2575 C.3       22 UNK         0.1400 
    121 C         -4.6272  -16.8538  -52.3233 C.2       22 UNK         0.5000 
    122 N         -5.9549  -16.8774  -52.3450 N.am      22 UNK        -0.7600 
    123 O         -4.0449  -15.7770  -52.4221 O.2       22 UNK        -0.5000 
    124 C124       -2.5280  -18.1516  -51.3749 C.3       23 UNK        -0.0398 
    125 S125       -2.6536  -17.3334  -49.7408 S.3       23 UNK        -0.2404 
    126 C126       -1.4945  -15.9395  -49.9433 C.3       23 UNK        -0.0205 
    127 H127        1.7452   -9.3418  -50.4012 H         1 UNK         0.0600 
    128 H128        3.4081   -9.2220  -49.8238 H         1 UNK         0.0600 
    129 H129        2.0977   -9.5167  -48.6801 H         1 UNK         0.0600 
    130 H130        4.5740  -11.0423  -50.2578 H         1 UNK         0.3000 
    131 H131        5.2553  -13.0222  -50.7536 H         1 UNK         0.0600 
    132 H132        2.4148  -14.0198  -51.2286 H         1 UNK         0.0800 
    133 H133        3.3218  -13.1035  -52.3922 H         1 UNK         0.0800 
    134 H134        2.2486  -16.0283  -53.2930 H         1 UNK         0.0800 
    135 H135        3.2586  -17.3804  -52.8480 H         1 UNK         0.0800 
    136 H136        0.2817  -15.6993  -52.0209 H         1 UNK         0.1150 
    137 H137       -0.0796  -17.2152  -48.0481 H         1 UNK         0.1150 
    138 H138        3.5969  -17.7232  -50.1942 H         1 UNK         0.1150 
    139 H139        3.4776  -18.1157  -47.7306 H         1 UNK         0.0800 
    140 H140        1.9768  -17.9090  -46.8692 H         1 UNK         0.0800 
    141 H141       -0.0044  -20.1114  -48.9695 H         1 UNK         0.0800 
    142 H142       -0.1304  -19.3434  -47.4055 H         1 UNK         0.0800 
    143 H143        0.3760  -22.3308  -47.6305 H         1 UNK         0.0600 
    144 H144        0.1464  -20.5939  -45.4001 H         1 UNK         0.3000 
    145 H145       -0.8898  -23.0951  -43.0134 H         1 UNK         0.0600 
    146 H146        1.0751  -22.0843  -41.8887 H         1 UNK         0.0600 
    147 H147        1.6220  -21.3892  -43.4125 H         1 UNK         0.0600 
    148 H148        1.5828  -23.1332  -43.2037 H         1 UNK         0.0600 
    149 H149       -0.5571  -20.2972  -42.6950 H         1 UNK         0.3000 
    150 H150       -3.9537  -19.3674  -43.4392 H         1 UNK         0.0600 
    151 H151       -3.8975  -20.1565  -41.0687 H         1 UNK         0.0600 
    152 H152       -3.7219  -18.4107  -41.1689 H         1 UNK         0.0600 
    153 H153       -2.3140  -19.4207  -40.8507 H         1 UNK         0.0600 
    154 H154       -1.7658  -17.7650  -42.6469 H         1 UNK         0.3000 
    155 H155       -0.4254  -17.1031  -45.9117 H         1 UNK         0.0600 
    156 H156       -2.2244  -15.4788  -45.5092 H         1 UNK         0.0600 
    157 H157       -0.7129  -14.8133  -44.9109 H         1 UNK         0.0600 
    158 H158       -1.8966  -15.4659  -43.7843 H         1 UNK         0.0600 
    159 H159        0.5450  -16.3203  -43.3882 H         1 UNK         0.3000 
    160 H160        2.5905  -19.1882  -42.7058 H         1 UNK         0.0600 
    161 H161        3.2243  -16.3123  -43.5483 H         1 UNK         0.0600 
    162 H162        3.9394  -17.7761  -44.2017 H         1 UNK         0.0600 
    163 H163        4.2544  -17.3210  -42.5337 H         1 UNK         0.0600 
    164 H164        1.9989  -16.7007  -41.3505 H         1 UNK         0.3000 
    165 H165       -0.6301  -18.0042  -39.3196 H         1 UNK         0.0600 
    166 H166        0.8858  -17.2279  -37.5171 H         1 UNK         0.0600 
    167 H167        1.4725  -18.7420  -38.1864 H         1 UNK         0.0600 
    168 H168        2.2570  -17.2295  -38.6267 H         1 UNK         0.0600 
    169 H169        0.7038  -15.4697  -39.4138 H         1 UNK         0.3000 
    170 H170       -1.2644  -13.9725  -41.9579 H         1 UNK         0.0600 
    171 H171       -1.3467  -13.5161  -38.9270 H         1 UNK         0.0600 
    172 H172       -1.8062  -12.3491  -40.1676 H         1 UNK         0.0600 
    173 H173       -2.7461  -13.8166  -39.9508 H         1 UNK         0.0600 
    174 H174        0.6816  -12.8662  -40.2234 H         1 UNK         0.3000 
    175 H175        2.7391  -12.1644  -41.5024 H         1 UNK         0.0600 
    176 H176        3.5924  -14.8413  -40.2165 H         1 UNK         0.0600 
    177 H177        4.4262  -13.3056  -40.0023 H         1 UNK         0.0600 
    178 H178        2.8129  -13.5166  -39.3590 H         1 UNK         0.0600 
    179 H179        3.3376  -14.3037  -43.2600 H         1 UNK         0.3000 
    180 H180        6.2395  -12.8794  -44.6100 H         1 UNK         0.0600 
    181 H181        7.2932  -15.1259  -44.4740 H         1 UNK         0.0600 
    182 H182        6.2087  -15.5810  -43.1586 H         1 UNK         0.0600 
    183 H183        7.3977  -14.3059  -42.9248 H         1 UNK         0.0600 
    184 H184        4.8096  -15.3176  -45.1569 H         1 UNK         0.3000 
    185 H185        3.5596  -15.4784  -46.9898 H         1 UNK         0.0600 
    186 H186        1.0913  -15.0700  -47.1175 H         1 UNK         0.0600 
    187 H187        1.6721  -14.9573  -45.4643 H         1 UNK         0.0600 
    188 H188        1.3036  -13.4925  -46.3664 H         1 UNK         0.0600 
    189 H189        2.4353  -13.3087  -48.5771 H         1 UNK         0.3000 
    190 H190       -2.4754  -20.5376  -46.3809 H         1 UNK         0.3000 
    191 H191       -4.2582  -21.2986  -48.4573 H         1 UNK         0.0600 
    192 H192       -4.7435  -19.4391  -46.9146 H         1 UNK         0.0600 
    193 H193       -4.8264  -20.5429  -45.5429 H         1 UNK         0.0600 
    194 H194       -6.0292  -20.6318  -46.8235 H         1 UNK         0.0600 
    195 H195       -3.5954  -22.8126  -45.2571 H         1 UNK         0.3000 
    196 H196       -5.3783  -25.0010  -45.5291 H         1 UNK         0.0600 
    197 H197       -4.4500  -24.2681  -43.3554 H         1 UNK         0.0600 
    198 H198       -2.8227  -24.7164  -43.8613 H         1 UNK         0.0600 
    199 H199       -4.0510  -25.9566  -43.6345 H         1 UNK         0.0600 
    200 H200       -1.9356  -24.6595  -46.4421 H         1 UNK         0.3000 
    201 H201       -1.5868  -27.3497  -47.3883 H         1 UNK         0.0600 
    202 H202        0.2993  -25.8984  -46.6586 H         1 UNK         0.0600 
    203 H203       -0.0242  -24.7807  -47.9843 H         1 UNK         0.0600 
    204 H204        0.5316  -26.4156  -48.3203 H         1 UNK         0.0600 
    205 H205       -3.2949  -24.7242  -48.7311 H         1 UNK         0.3000 
    206 H206       -4.2902  -24.2424  -50.6407 H         1 UNK         0.0600 
    207 H207       -3.8406  -27.1646  -51.4569 H         1 UNK         0.0600 
    208 H208       -5.1865  -26.5712  -50.4848 H         1 UNK         0.0600 
    209 H209       -5.0076  -26.0539  -52.1504 H         1 UNK         0.0600 
    210 H210       -1.9153  -23.2099  -50.5140 H         1 UNK         0.3000 
    211 H211        0.0756  -23.8547  -52.3082 H         1 UNK         0.0600 
    212 H212       -0.7220  -21.1188  -51.1908 H         1 UNK         0.0600 
    213 H213        0.8310  -21.4749  -51.9374 H         1 UNK         0.0600 
    214 H214        0.3751  -22.2833  -50.4486 H         1 UNK         0.0600 
    215 H215       -2.9307  -22.3365  -53.1664 H         1 UNK         0.3000 
    216 H216       -2.0379  -22.1527  -56.0052 H         1 UNK         0.0600 
    217 H217       -3.3415  -20.1276  -56.3407 H         1 UNK         0.0600 
    218 H218       -2.2396  -19.8151  -55.0085 H         1 UNK         0.0600 
    219 H219       -3.9446  -20.1539  -54.6931 H         1 UNK         0.0600 
    220 H220       -3.1899  -24.3406  -54.5105 H         1 UNK         0.3000 
    221 H221       -4.7168  -25.9101  -54.5903 H         1 UNK         0.0600 
    222 H222       -5.6910  -24.6990  -57.2382 H         1 UNK         0.0600 
    223 H223       -4.3486  -25.8222  -57.0678 H         1 UNK         0.0600 
    224 H224       -5.9707  -26.3434  -56.6653 H         1 UNK         0.0600 
    225 H225       -7.4922  -25.1680  -55.9630 H         1 UNK         0.3000 
    226 H226       -8.9547  -24.9046  -53.5884 H         1 UNK         0.0600 
    227 H227       -9.8295  -25.9414  -55.6632 H         1 UNK         0.0600 
    228 H228      -10.8990  -24.6493  -55.1453 H         1 UNK         0.0600 
    229 H229       -9.7961  -24.3829  -56.4903 H         1 UNK         0.0600 
    230 H230       -7.4684  -22.3508  -55.4194 H         1 UNK         0.3000 
    231 H231       -9.1914  -20.1913  -54.5261 H         1 UNK         0.0600 
    232 H232       -7.4066  -18.7552  -55.4655 H         1 UNK         0.0600 
    233 H233       -7.8088  -20.0330  -56.6019 H         1 UNK         0.0600 
    234 H234       -6.3357  -20.1369  -55.6388 H         1 UNK         0.0600 
    235 H235       -6.6560  -22.0468  -53.0385 H         1 UNK         0.3000 
    236 H236       -5.4651  -21.9363  -51.1683 H         1 UNK         0.0600 
    237 H237       -7.9189  -20.4490  -50.0980 H         1 UNK         0.0600 
    238 H238       -7.7860  -22.1971  -50.2878 H         1 UNK         0.0600 
    239 H239       -6.7550  -21.3591  -49.1427 H         1 UNK         0.0600 
    240 H240       -4.7331  -19.9525  -52.9423 H         1 UNK         0.3000 
    241 H241       -3.4463  -18.2749  -53.2797 H         1 UNK         0.0600 
    242 H242       -6.4577  -16.0067  -52.4087 H         1 UNK         0.3800 
    243 H243       -6.4742  -17.7489  -52.3020 H         1 UNK         0.3800 
    244 H244       -2.1616  -19.1656  -51.2111 H         1 UNK         0.0800 
    245 H245       -1.7381  -17.6593  -51.9430 H         1 UNK         0.0800 
    246 H246       -1.5978  -15.2667  -49.0905 H         1 UNK         0.0800 
    247 H247       -1.7692  -15.3616  -50.8274 H         1 UNK         0.0800 
@<TRIPOS>BOND
     1    1    2 1    
     2    1  127 1    
     3    1  128 1    
     4    1  129 1    
     5    2    3 2    
     6    2    4 am   BACKBONE|DICT|INTERRES
     7    4    5 1    
     8    4  130 1    
     9    5    6 1    
    10    5   65 1    
    11    5  131 1    
    12    6    7 1    
    13    6  132 1    
    14    6  133 1    
    15    7    8 1    
    16    8    9 1    
    17    8  134 1    
    18    8  135 1    
    19    9   10 ar   
    20    9   14 ar   
    21   10   11 ar   
    22   10  136 1    
    23   11   12 ar   
    24   11  126 1    
    25   12   13 ar   
    26   12  137 1    
    27   13   14 ar   
    28   13   15 1    
    29   14  138 1    
    30   15   16 1    
    31   15  139 1    
    32   15  140 1    
    33   16   17 1    
    34   17   18 1    
    35   17  141 1    
    36   17  142 1    
    37   18   19 1    
    38   18   67 1    
    39   18  143 1    
    40   19   20 am   BACKBONE|DICT|INTERRES
    41   19  144 1    
    42   20   21 2    
    43   20   22 1    
    44   22   23 1    
    45   22   24 1    
    46   22  145 1    
    47   23  146 1    
    48   23  147 1    
    49   23  148 1    
    50   24   25 am   BACKBONE|DICT|INTERRES
    51   24  149 1    
    52   25   26 2    
    53   25   27 1    
    54   27   28 1    
    55   27   29 1    
    56   27  150 1    
    57   28  151 1    
    58   28  152 1    
    59   28  153 1    
    60   29   30 am   BACKBONE|DICT|INTERRES
    61   29  154 1    
    62   30   31 2    
    63   30   32 1    
    64   32   33 1    
    65   32   34 1    
    66   32  155 1    
    67   33  156 1    
    68   33  157 1    
    69   33  158 1    
    70   34   35 am   BACKBONE|DICT|INTERRES
    71   34  159 1    
    72   35   36 2    
    73   35   37 1    
    74   37   38 1    
    75   37   39 1    
    76   37  160 1    
    77   38  161 1    
    78   38  162 1    
    79   38  163 1    
    80   39   40 am   BACKBONE|DICT|INTERRES
    81   39  164 1    
    82   40   41 2    
    83   40   42 1    
    84   42   43 1    
    85   42   44 1    
    86   42  165 1    
    87   43  166 1    
    88   43  167 1    
    89   43  168 1    
    90   44   45 am   BACKBONE|DICT|INTERRES
    91   44  169 1    
    92   45   46 2    
    93   45   47 1    
    94   47   48 1    
    95   47   49 1    
    96   47  170 1    
    97   48  171 1    
    98   48  172 1    
    99   48  173 1    
   100   49   50 am   BACKBONE|DICT|INTERRES
   101   49  174 1    
   102   50   51 2    
   103   50   52 1    
   104   52   53 1    
   105   52   54 1    
   106   52  175 1    
   107   53  176 1    
   108   53  177 1    
   109   53  178 1    
   110   54   55 am   BACKBONE|DICT|INTERRES
   111   54  179 1    
   112   55   56 2    
   113   55   57 1    
   114   57   58 1    
   115   57   59 1    
   116   57  180 1    
   117   58  181 1    
   118   58  182 1    
   119   58  183 1    
   120   59   60 am   BACKBONE|DICT|INTERRES
   121   59  184 1    
   122   60   61 2    
   123   60   62 1    
   124   62   63 1    
   125   62   64 1    
   126   62  185 1    
   127   63  186 1    
   128   63  187 1    
   129   63  188 1    
   130   64   65 am   BACKBONE|DICT|INTERRES
   131   64  189 1    
   132   65   66 2    
   133   67   68 2    
   134   67   69 am   BACKBONE|DICT|INTERRES
   135   69   70 1    
   136   69  190 1    
   137   70   71 1    
   138   70   72 1    
   139   70  191 1    
   140   71  192 1    
   141   71  193 1    
   142   71  194 1    
   143   72   73 2    
   144   72   74 am   BACKBONE|DICT|INTERRES
   145   74   75 1    
   146   74  195 1    
   147   75   76 1    
   148   75   77 1    
   149   75  196 1    
   150   76  197 1    
   151   76  198 1    
   152   76  199 1    
   153   77   78 2    
   154   77   79 am   BACKBONE|DICT|INTERRES
   155   79   80 1    
   156   79  200 1    
   157   80   81 1    
   158   80   82 1    
   159   80  201 1    
   160   81  202 1    
   161   81  203 1    
   162   81  204 1    
   163   82   83 2    
   164   82   84 am   BACKBONE|DICT|INTERRES
   165   84   85 1    
   166   84  205 1    
   167   85   86 1    
   168   85   87 1    
   169   85  206 1    
   170   86  207 1    
   171   86  208 1    
   172   86  209 1    
   173   87   88 2    
   174   87   89 am   BACKBONE|DICT|INTERRES
   175   89   90 1    
   176   89  210 1    
   177   90   91 1    
   178   90   92 1    
   179   90  211 1    
   180   91  212 1    
   181   91  213 1    
   182   91  214 1    
   183   92   93 2    
   184   92   94 am   BACKBONE|DICT|INTERRES
   185   94   95 1    
   186   94  215 1    
   187   95   96 1    
   188   95   97 1    
   189   95  216 1    
   190   96  217 1    
   191   96  218 1    
   192   96  219 1    
   193   97   98 2    
   194   97   99 am   BACKBONE|DICT|INTERRES
   195   99  100 1    
   196   99  220 1    
   197  100  101 1    
   198  100  102 1    
   199  100  221 1    
   200  101  222 1    
   201  101  223 1    
   202  101  224 1    
   203  102  103 2    
   204  102  104 am   BACKBONE|DICT|INTERRES
   205  104  105 1    
   206  104  225 1    
   207  105  106 1    
   208  105  107 1    
   209  105  226 1    
   210  106  227 1    
   211  106  228 1    
   212  106  229 1    
   213  107  108 2    
   214  107  109 am   BACKBONE|DICT|INTERRES
   215  109  110 1    
   216  109  230 1    
   217  110  111 1    
   218  110  112 1    
   219  110  231 1    
   220  111  232 1    
   221  111  233 1    
   222  111  234 1    
   223  112  113 2    
   224  112  114 am   BACKBONE|DICT|INTERRES
   225  114  115 1    
   226  114  235 1    
   227  115  116 1    
   228  115  117 1    
   229  115  236 1    
   230  116  237 1    
   231  116  238 1    
   232  116  239 1    
   233  117  118 2    
   234  117  119 am   BACKBONE|DICT|INTERRES
   235  119  120 1    
   236  119  240 1    
   237  120  121 1    
   238  120  124 1    
   239  120  241 1    
   240  121  122 am   BACKBONE|DICT|INTERRES
   241  121  123 2    
   242  122  242 1    
   243  122  243 1    
   244  124  125 1    
   245  124  244 1    
   246  124  245 1    
   247  125  126 1    
   248  126  246 1    
   249  126  247 1    
@<TRIPOS>SUBSTRUCTURE
     1 UNK         1 GROUP             0       ****    0 ROOT    
