@<TRIPOS>MOLECULE
3R540
247   249    1
SMALL
USER_CHARGES


@<TRIPOS>ATOM
      1 CA         -1.8845  -17.0005  -40.7584 C.3       0 UNK        -0.1800 
      2 C          -1.3577  -15.7830  -41.5056 C.2       0 UNK         0.5000 
      3 O          -0.2302  -15.8138  -41.9961 O.2       0 UNK        -0.5000 
      4 N          -2.1765  -14.7231  -41.5679 N.am      1 UNK        -0.5000 
      5 CA         -1.9286  -13.4107  -42.1798 C.3       1 UNK         0.1400 
      6 C6         -2.3088  -13.3258  -43.6863 C.3       23 UNK        -0.0398 
      7 S7         -1.3737  -14.3756  -44.8543 S.3       23 UNK        -0.2404 
      8 C8         -2.4646  -14.2802  -46.3117 C.3       23 UNK        -0.0205 
      9 C9         -3.1000  -15.6227  -46.6450 C.ar      23 UNK        -0.0193 
     10 C10        -2.8947  -16.1906  -47.9055 C.ar      23 UNK        -0.1150 
     11 C11        -3.4400  -17.4347  -48.2219 C.ar      23 UNK        -0.0193 
     12 C12        -4.2214  -18.1022  -47.2779 C.ar      23 UNK        -0.1150 
     13 C13        -4.4433  -17.5472  -46.0141 C.ar      23 UNK        -0.0193 
     14 C14        -3.8896  -16.2995  -45.7074 C.ar      23 UNK        -0.1150 
     15 C15        -5.2867  -18.3060  -44.9952 C.3       23 UNK        -0.0205 
     16 S16        -4.4165  -18.6794  -43.4316 S.3       23 UNK        -0.2404 
     17 C17        -2.7727  -19.3011  -43.9342 C.3       23 UNK        -0.0398 
     18 CA         -2.7531  -20.4284  -44.9953 C.3       11 UNK         0.1400 
     19 N          -1.4379  -20.5217  -45.6240 N.am      11 UNK        -0.5000 
     20 C          -1.1705  -21.1664  -46.7656 C.2       10 UNK         0.5000 
     21 O          -2.0175  -21.7388  -47.4516 O.2       10 UNK        -0.5000 
     22 CA          0.3051  -21.1953  -47.1952 C.3       10 UNK         0.1400 
     23 CB          0.6430  -19.9430  -48.0153 C.3       10 UNK        -0.1800 
     24 N           1.2133  -21.2892  -46.0500 N.am      10 UNK        -0.5000 
     25 C           1.3237  -22.3707  -45.2645 C.2       9 UNK         0.5000 
     26 O           0.6851  -23.4082  -45.4373 O.2       9 UNK        -0.5000 
     27 CA          2.2630  -22.2527  -44.0505 C.3       9 UNK         0.1400 
     28 CB          3.7282  -22.4314  -44.4754 C.3       9 UNK        -0.1800 
     29 N           2.1143  -20.9826  -43.3384 N.am      9 UNK        -0.5000 
     30 C           0.9893  -20.5728  -42.7356 C.2       8 UNK         0.5000 
     31 O          -0.0452  -21.2356  -42.6987 O.2       8 UNK        -0.5000 
     32 CA          0.9995  -19.1753  -42.0951 C.3       8 UNK         0.1400 
     33 CB          1.3105  -19.2707  -40.5946 C.3       8 UNK        -0.1800 
     34 N           1.9316  -18.2394  -42.7230 N.am      8 UNK        -0.5000 
     35 C           1.8385  -17.7954  -43.9832 C.2       7 UNK         0.5000 
     36 O           0.9973  -18.2022  -44.7900 O.2       7 UNK        -0.5000 
     37 CA          2.8865  -16.7370  -44.3746 C.3       7 UNK         0.1400 
     38 CB          4.2947  -17.3620  -44.4942 C.3       7 UNK        -0.1800 
     39 N           2.5115  -15.9703  -45.5678 N.am      7 UNK        -0.5000 
     40 C           2.5345  -16.3677  -46.8489 C.2       6 UNK         0.5000 
     41 O           3.0182  -17.4331  -47.2334 O.2       6 UNK        -0.5000 
     42 CA          1.8997  -15.4349  -47.8948 C.3       6 UNK         0.1400 
     43 CB          0.5079  -15.9788  -48.2691 C.3       6 UNK        -0.1800 
     44 N           1.8129  -14.0328  -47.4642 N.am      6 UNK        -0.5000 
     45 C           1.5125  -13.0116  -48.2801 C.2       5 UNK         0.5000 
     46 O           1.2917  -13.1352  -49.4855 O.2       5 UNK        -0.5000 
     47 CA          1.4767  -11.6070  -47.6574 C.3       5 UNK         0.1400 
     48 CB          0.2578  -11.4239  -46.7381 C.3       5 UNK        -0.1800 
     49 N           2.7050  -11.3240  -46.9200 N.am      5 UNK        -0.5000 
     50 C           3.8366  -10.8758  -47.4833 C.2       4 UNK         0.5000 
     51 O           3.9495  -10.6247  -48.6837 O.2       4 UNK        -0.5000 
     52 CA          5.0470  -10.6543  -46.5549 C.3       4 UNK         0.1400 
     53 CB          5.1446   -9.1763  -46.1460 C.3       4 UNK        -0.1800 
     54 N           4.9966  -11.4755  -45.3460 N.am      4 UNK        -0.5000 
     55 C           5.2289  -12.7943  -45.3116 C.2       3 UNK         0.5000 
     56 O           5.5786  -13.4570  -46.2881 O.2       3 UNK        -0.5000 
     57 CA          4.9935  -13.4931  -43.9600 C.3       3 UNK         0.1400 
     58 CB          6.2861  -13.5259  -43.1319 C.3       3 UNK        -0.1800 
     59 N           3.9216  -12.8852  -43.1647 N.am      3 UNK        -0.5000 
     60 C           2.6345  -12.8309  -43.5297 C.2       2 UNK         0.5000 
     61 O           2.2025  -13.2825  -44.5957 O.2       2 UNK        -0.5000 
     62 CA          1.6878  -12.1011  -42.5720 C.3       2 UNK         0.1400 
     63 CB          1.6899  -10.5901  -42.8574 C.3       2 UNK        -0.1800 
     64 N           0.3414  -12.6252  -42.7544 N.am      2 UNK        -0.5000 
     65 C          -0.5650  -12.7933  -41.7879 C.2       1 UNK         0.5000 
     66 O          -0.3743  -12.4698  -40.6130 O.2       1 UNK        -0.5000 
     67 C          -3.2144  -21.7937  -44.4469 C.2       11 UNK         0.5000 
     68 O          -4.3400  -22.2075  -44.7252 O.2       11 UNK        -0.5000 
     69 N          -2.3183  -22.5009  -43.7433 N.am      12 UNK        -0.5000 
     70 CA         -2.5335  -23.8509  -43.2175 C.3       12 UNK         0.1400 
     71 CB         -1.3588  -24.2346  -42.3051 C.3       12 UNK        -0.1800 
     72 C          -2.7268  -24.9053  -44.3230 C.2       12 UNK         0.5000 
     73 O          -3.5668  -25.7934  -44.1753 O.2       12 UNK        -0.5000 
     74 N          -1.9734  -24.7693  -45.4231 N.am      13 UNK        -0.5000 
     75 CA         -2.0908  -25.6016  -46.6227 C.3       13 UNK         0.1400 
     76 CB         -0.7983  -25.4703  -47.4440 C.3       13 UNK        -0.1800 
     77 C          -3.3114  -25.2542  -47.4993 C.2       13 UNK         0.5000 
     78 O          -3.5836  -25.9838  -48.4542 O.2       13 UNK        -0.5000 
     79 N          -3.9914  -24.1361  -47.2010 N.am      14 UNK        -0.5000 
     80 CA         -5.1175  -23.5547  -47.9378 C.3       14 UNK         0.1400 
     81 CB         -6.3746  -24.4356  -47.7850 C.3       14 UNK        -0.1800 
     82 C          -4.7570  -23.2690  -49.4093 C.2       14 UNK         0.5000 
     83 O          -5.4953  -23.6578  -50.3149 O.2       14 UNK        -0.5000 
     84 N          -3.5872  -22.6455  -49.6158 N.am      15 UNK        -0.5000 
     85 CA         -2.9539  -22.3690  -50.9097 C.3       15 UNK         0.1400 
     86 CB         -3.7878  -21.3596  -51.7200 C.3       15 UNK        -0.1800 
     87 C          -2.6521  -23.6544  -51.7077 C.2       15 UNK         0.5000 
     88 O          -2.8720  -23.6933  -52.9200 O.2       15 UNK        -0.5000 
     89 N          -2.1838  -24.6895  -50.9946 N.am      16 UNK        -0.5000 
     90 CA         -1.9354  -26.0525  -51.4762 C.3       16 UNK         0.1400 
     91 CB         -0.7619  -26.0736  -52.4785 C.3       16 UNK        -0.1800 
     92 C          -3.2230  -26.7003  -52.0246 C.2       16 UNK         0.5000 
     93 O          -3.2431  -27.1811  -53.1575 O.2       16 UNK        -0.5000 
     94 N          -4.2892  -26.6494  -51.2123 N.am      17 UNK        -0.5000 
     95 CA         -5.6613  -27.0619  -51.5297 C.3       17 UNK         0.1400 
     96 CB         -5.7524  -28.5961  -51.6637 C.3       17 UNK        -0.1800 
     97 C          -6.2307  -26.3072  -52.7519 C.2       17 UNK         0.5000 
     98 O          -6.7511  -26.9234  -53.6836 O.2       17 UNK        -0.5000 
     99 N          -6.0891  -24.9750  -52.7183 N.am      18 UNK        -0.5000 
    100 CA        -6.5111  -23.9862  -53.7154 C.3       18 UNK         0.1400 
    101 CB        -8.0440  -23.9999  -53.8882 C.3       18 UNK        -0.1800 
    102 C         -5.7685  -24.0560  -55.0679 C.2       18 UNK         0.5000 
    103 O         -6.1918  -23.3893  -56.0133 O.2       18 UNK        -0.5000 
    104 N         -4.6714  -24.8216  -55.1526 N.am      19 UNK        -0.5000 
    105 CA        -3.8684  -24.9750  -56.3672 C.3       19 UNK         0.1400 
    106 CB        -2.9530  -26.1998  -56.2329 C.3       19 UNK        -0.1800 
    107 C         -3.0424  -23.7206  -56.7028 C.2       19 UNK         0.5000 
    108 O         -2.9279  -23.3706  -57.8783 O.2       19 UNK        -0.5000 
    109 N         -2.4883  -23.0643  -55.6740 N.am      20 UNK        -0.5000 
    110 CA        -1.7005  -21.8370  -55.8154 C.3       20 UNK         0.1400 
    111 CB        -0.6835  -21.7561  -54.6658 C.3       20 UNK        -0.1800 
    112 C         -2.5800  -20.5735  -55.8440 C.2       20 UNK         0.5000 
    113 O         -2.1208  -19.5288  -56.3090 O.2       20 UNK        -0.5000 
    114 N         -3.8095  -20.6805  -55.3133 N.am      21 UNK        -0.5000 
    115 CA        -4.8508  -19.6437  -55.2302 C.3       21 UNK         0.1400 
    116 CB        -5.4325  -19.3740  -56.6324 C.3       21 UNK        -0.1800 
    117 C         -4.4096  -18.3432  -54.5148 C.2       21 UNK         0.5000 
    118 O         -4.9775  -17.2790  -54.7659 O.2       21 UNK        -0.5000 
    119 N         -3.3934  -18.4583  -53.6495 N.am      22 UNK        -0.5000 
    120 CA        -2.6945  -17.3659  -52.9507 C.3       22 UNK         0.1400 
    121 C         -1.8789  -16.4249  -53.8915 C.2       22 UNK         0.5000 
    122 N         -1.5487  -16.8323  -55.1127 N.am      22 UNK        -0.7600 
    123 O         -1.5097  -15.3197  -53.5039 O.2       22 UNK        -0.5000 
    124 C124       -3.5884  -16.5882  -51.9397 C.3       23 UNK        -0.0398 
    125 S125       -4.4736  -17.6796  -50.7733 S.3       23 UNK        -0.2404 
    126 C126       -3.1663  -18.0757  -49.5699 C.3       23 UNK        -0.0205 
    127 H127       -1.1525  -17.3397  -40.0259 H         1 UNK         0.0600 
    128 H128       -2.0758  -17.8144  -41.4548 H         1 UNK         0.0600 
    129 H129       -2.8136  -16.7827  -40.2312 H         1 UNK         0.0600 
    130 H130       -3.0730  -14.7989  -41.1092 H         1 UNK         0.3000 
    131 H131       -2.6477  -12.7608  -41.6784 H         1 UNK         0.0600 
    132 H132       -3.3639  -13.5852  -43.7820 H         1 UNK         0.0800 
    133 H133       -2.2356  -12.2922  -44.0291 H         1 UNK         0.0800 
    134 H134       -3.2514  -13.5395  -46.1654 H         1 UNK         0.0800 
    135 H135       -1.8675  -13.9215  -47.1514 H         1 UNK         0.0800 
    136 H136       -2.3000  -15.6702  -48.6417 H         1 UNK         0.1150 
    137 H137       -4.6480  -19.0630  -47.5298 H         1 UNK         0.1150 
    138 H138       -4.0543  -15.8666  -44.7309 H         1 UNK         0.1150 
    139 H139       -6.1729  -17.7131  -44.7656 H         1 UNK         0.0800 
    140 H140       -5.6550  -19.2424  -45.4173 H         1 UNK         0.0800 
    141 H141       -2.2425  -19.6193  -43.0361 H         1 UNK         0.0800 
    142 H142       -2.2179  -18.4377  -44.3071 H         1 UNK         0.0800 
    143 H143       -3.4491  -20.1739  -45.7907 H         1 UNK         0.0600 
    144 H144       -0.6703  -20.0727  -45.1432 H         1 UNK         0.3000 
    145 H145        0.4542  -22.0729  -47.8275 H         1 UNK         0.0600 
    146 H146        1.6703  -19.9721  -48.3788 H         1 UNK         0.0600 
    147 H147       -0.0098  -19.8537  -48.8846 H         1 UNK         0.0600 
    148 H148        0.5254  -19.0363  -47.4207 H         1 UNK         0.0600 
    149 H149        1.7320  -20.4547  -45.8129 H         1 UNK         0.3000 
    150 H150        2.0083  -23.0563  -43.3563 H         1 UNK         0.0600 
    151 H151        3.8694  -23.3773  -45.0001 H         1 UNK         0.0600 
    152 H152        4.3912  -22.4393  -43.6101 H         1 UNK         0.0600 
    153 H153        4.0562  -21.6332  -45.1426 H         1 UNK         0.0600 
    154 H154        2.9153  -20.3691  -43.3233 H         1 UNK         0.3000 
    155 H155       -0.0031  -18.7621  -42.2109 H         1 UNK         0.0600 
    156 H156        0.6030  -19.9306  -40.0907 H         1 UNK         0.0600 
    157 H157        1.2401  -18.2943  -40.1147 H         1 UNK         0.0600 
    158 H158        2.3122  -19.6631  -40.4149 H         1 UNK         0.0600 
    159 H159        2.6474  -17.8568  -42.1229 H         1 UNK         0.3000 
    160 H160        2.9102  -16.0060  -43.5653 H         1 UNK         0.0600 
    161 H161        4.2894  -18.2594  -45.1139 H         1 UNK         0.0600 
    162 H162        4.6767  -17.6519  -43.5151 H         1 UNK         0.0600 
    163 H163        5.0124  -16.6673  -44.9293 H         1 UNK         0.0600 
    164 H164        2.0740  -15.0834  -45.3485 H         1 UNK         0.3000 
    165 H165        2.5382  -15.4719  -48.7799 H         1 UNK         0.0600 
    166 H166        0.0262  -15.3850  -49.0444 H         1 UNK         0.0600 
    167 H167        0.5764  -16.9968  -48.6520 H         1 UNK         0.0600 
    168 H168       -0.1459  -16.0000  -47.3972 H         1 UNK         0.0600 
    169 H169        2.0214  -13.8277  -46.4935 H         1 UNK         0.3000 
    170 H170        1.3774  -10.8851  -48.4712 H         1 UNK         0.0600 
    171 H171       -0.6692  -11.6179  -47.2786 H         1 UNK         0.0600 
    172 H172        0.2829  -12.0967  -45.8831 H         1 UNK         0.0600 
    173 H173        0.2034  -10.4043  -46.3569 H         1 UNK         0.0600 
    174 H174        2.7110  -11.5689  -45.9404 H         1 UNK         0.3000 
    175 H175        5.9475  -10.9145  -47.1155 H         1 UNK         0.0600 
    176 H176        4.2734   -8.8587  -45.5715 H         1 UNK         0.0600 
    177 H177        6.0325   -8.9920  -45.5408 H         1 UNK         0.0600 
    178 H178        5.2119   -8.5319  -47.0236 H         1 UNK         0.0600 
    179 H179        4.7287  -11.0115  -44.4909 H         1 UNK         0.3000 
    180 H180        4.7051  -14.5198  -44.1757 H         1 UNK         0.0600 
    181 H181        6.6147  -12.5228  -42.8572 H         1 UNK         0.0600 
    182 H182        7.0964  -13.9955  -43.6914 H         1 UNK         0.0600 
    183 H183        6.1524  -14.0997  -42.2146 H         1 UNK         0.0600 
    184 H184        4.1968  -12.4810  -42.2808 H         1 UNK         0.3000 
    185 H185        2.0261  -12.2838  -41.5498 H         1 UNK         0.0600 
    186 H186        1.3647  -10.3722  -43.8755 H         1 UNK         0.0600 
    187 H187        1.0247  -10.0608  -42.1750 H         1 UNK         0.0600 
    188 H188        2.6866  -10.1658  -42.7311 H         1 UNK         0.0600 
    189 H189        0.1555  -13.0132  -43.6723 H         1 UNK         0.3000 
    190 H190       -1.4207  -22.0741  -43.5207 H         1 UNK         0.3000 
    191 H191       -3.4431  -23.8323  -42.6138 H         1 UNK         0.0600 
    192 H192       -0.4120  -24.2311  -42.8467 H         1 UNK         0.0600 
    193 H193       -1.2671  -23.5412  -41.4689 H         1 UNK         0.0600 
    194 H194       -1.4965  -25.2325  -41.8870 H         1 UNK         0.0600 
    195 H195       -1.2511  -24.0563  -45.4376 H         1 UNK         0.3000 
    196 H196       -2.1958  -26.6441  -46.3159 H         1 UNK         0.0600 
    197 H197        0.0731  -25.7541  -46.8536 H         1 UNK         0.0600 
    198 H198       -0.6466  -24.4484  -47.7937 H         1 UNK         0.0600 
    199 H199       -0.8178  -26.1208  -48.3187 H         1 UNK         0.0600 
    200 H200       -3.6770  -23.5952  -46.4059 H         1 UNK         0.3000 
    201 H201       -5.3267  -22.5886  -47.4764 H         1 UNK         0.0600 
    202 H202       -7.2420  -23.9608  -48.2448 H         1 UNK         0.0600 
    203 H203       -6.6132  -24.5994  -46.7341 H         1 UNK         0.0600 
    204 H204       -6.2479  -25.4110  -48.2558 H         1 UNK         0.0600 
    205 H205       -3.0470  -22.3677  -48.7965 H         1 UNK         0.3000 
    206 H206       -1.9912  -21.9059  -50.6886 H         1 UNK         0.0600 
    207 H207       -4.0456  -20.4907  -51.1212 H         1 UNK         0.0600 
    208 H208       -4.7186  -21.7932  -52.0815 H         1 UNK         0.0600 
    209 H209       -3.2287  -21.0110  -52.5852 H         1 UNK         0.0600 
    210 H210       -2.0964  -24.5616  -49.9975 H         1 UNK         0.3000 
    211 H211       -1.6398  -26.6449  -50.6095 H         1 UNK         0.0600 
    212 H212        0.1386  -25.6473  -52.0369 H         1 UNK         0.0600 
    213 H213       -0.5243  -27.0947  -52.7787 H         1 UNK         0.0600 
    214 H214       -0.9866  -25.5114  -53.3850 H         1 UNK         0.0600 
    215 H215       -4.1546  -26.2514  -50.2860 H         1 UNK         0.3000 
    216 H216       -6.2738  -26.7684  -50.6759 H         1 UNK         0.0600 
    217 H217       -6.7873  -28.9151  -51.7918 H         1 UNK         0.0600 
    218 H218       -5.1886  -28.9640  -52.5215 H         1 UNK         0.0600 
    219 H219       -5.3682  -29.0920  -50.7723 H         1 UNK         0.0600 
    220 H220       -5.6802  -24.5707  -51.8767 H         1 UNK         0.3000 
    221 H221       -6.2489  -23.0179  -53.2906 H         1 UNK         0.0600 
    222 H222       -8.3891  -24.9098  -54.3796 H         1 UNK         0.0600 
    223 H223       -8.5497  -23.9246  -52.9255 H         1 UNK         0.0600 
    224 H224       -8.3786  -23.1568  -54.4937 H         1 UNK         0.0600 
    225 H225       -4.3558  -25.3168  -54.3285 H         1 UNK         0.3000 
    226 H226       -4.5491  -25.1578  -57.2015 H         1 UNK         0.0600 
    227 H227       -3.5285  -27.1027  -56.0279 H         1 UNK         0.0600 
    228 H228       -2.3931  -26.3715  -57.1529 H         1 UNK         0.0600 
    229 H229       -2.2288  -26.0735  -55.4278 H         1 UNK         0.0600 
    230 H230       -2.6314  -23.4120  -54.7268 H         1 UNK         0.3000 
    231 H231       -1.1422  -21.8716  -56.7534 H         1 UNK         0.0600 
    232 H232       -0.0368  -20.8850  -54.7780 H         1 UNK         0.0600 
    233 H233       -0.0414  -22.6369  -54.6459 H         1 UNK         0.0600 
    234 H234       -1.1713  -21.6776  -53.6948 H         1 UNK         0.0600 
    235 H235       -4.0738  -21.5916  -54.9682 H         1 UNK         0.3000 
    236 H236       -5.6490  -20.0648  -54.6173 H         1 UNK         0.0600 
    237 H237       -5.7620  -20.2997  -57.1049 H         1 UNK         0.0600 
    238 H238       -6.2983  -18.7129  -56.5808 H         1 UNK         0.0600 
    239 H239       -4.6989  -18.9048  -57.2887 H         1 UNK         0.0600 
    240 H240       -2.9926  -19.3746  -53.5286 H         1 UNK         0.3000 
    241 H241       -1.9254  -17.8667  -52.3626 H         1 UNK         0.0600 
    242 H242       -1.0136  -16.2202  -55.7077 H         1 UNK         0.3800 
    243 H243       -1.8276  -17.7452  -55.4585 H         1 UNK         0.3800 
    244 H244       -2.9935  -15.8793  -51.3614 H         1 UNK         0.0800 
    245 H245       -4.3295  -15.9916  -52.4731 H         1 UNK         0.0800 
    246 H246       -2.1887  -17.7652  -49.9406 H         1 UNK         0.0800 
    247 H247       -3.1069  -19.1581  -49.4487 H         1 UNK         0.0800 
@<TRIPOS>BOND
     1    1    2 1    
     2    1  127 1    
     3    1  128 1    
     4    1  129 1    
     5    2    3 2    
     6    2    4 am   BACKBONE|DICT|INTERRES
     7    4    5 1    
     8    4  130 1    
     9    5    6 1    
    10    5   65 1    
    11    5  131 1    
    12    6    7 1    
    13    6  132 1    
    14    6  133 1    
    15    7    8 1    
    16    8    9 1    
    17    8  134 1    
    18    8  135 1    
    19    9   10 ar   
    20    9   14 ar   
    21   10   11 ar   
    22   10  136 1    
    23   11   12 ar   
    24   11  126 1    
    25   12   13 ar   
    26   12  137 1    
    27   13   14 ar   
    28   13   15 1    
    29   14  138 1    
    30   15   16 1    
    31   15  139 1    
    32   15  140 1    
    33   16   17 1    
    34   17   18 1    
    35   17  141 1    
    36   17  142 1    
    37   18   19 1    
    38   18   67 1    
    39   18  143 1    
    40   19   20 am   BACKBONE|DICT|INTERRES
    41   19  144 1    
    42   20   21 2    
    43   20   22 1    
    44   22   23 1    
    45   22   24 1    
    46   22  145 1    
    47   23  146 1    
    48   23  147 1    
    49   23  148 1    
    50   24   25 am   BACKBONE|DICT|INTERRES
    51   24  149 1    
    52   25   26 2    
    53   25   27 1    
    54   27   28 1    
    55   27   29 1    
    56   27  150 1    
    57   28  151 1    
    58   28  152 1    
    59   28  153 1    
    60   29   30 am   BACKBONE|DICT|INTERRES
    61   29  154 1    
    62   30   31 2    
    63   30   32 1    
    64   32   33 1    
    65   32   34 1    
    66   32  155 1    
    67   33  156 1    
    68   33  157 1    
    69   33  158 1    
    70   34   35 am   BACKBONE|DICT|INTERRES
    71   34  159 1    
    72   35   36 2    
    73   35   37 1    
    74   37   38 1    
    75   37   39 1    
    76   37  160 1    
    77   38  161 1    
    78   38  162 1    
    79   38  163 1    
    80   39   40 am   BACKBONE|DICT|INTERRES
    81   39  164 1    
    82   40   41 2    
    83   40   42 1    
    84   42   43 1    
    85   42   44 1    
    86   42  165 1    
    87   43  166 1    
    88   43  167 1    
    89   43  168 1    
    90   44   45 am   BACKBONE|DICT|INTERRES
    91   44  169 1    
    92   45   46 2    
    93   45   47 1    
    94   47   48 1    
    95   47   49 1    
    96   47  170 1    
    97   48  171 1    
    98   48  172 1    
    99   48  173 1    
   100   49   50 am   BACKBONE|DICT|INTERRES
   101   49  174 1    
   102   50   51 2    
   103   50   52 1    
   104   52   53 1    
   105   52   54 1    
   106   52  175 1    
   107   53  176 1    
   108   53  177 1    
   109   53  178 1    
   110   54   55 am   BACKBONE|DICT|INTERRES
   111   54  179 1    
   112   55   56 2    
   113   55   57 1    
   114   57   58 1    
   115   57   59 1    
   116   57  180 1    
   117   58  181 1    
   118   58  182 1    
   119   58  183 1    
   120   59   60 am   BACKBONE|DICT|INTERRES
   121   59  184 1    
   122   60   61 2    
   123   60   62 1    
   124   62   63 1    
   125   62   64 1    
   126   62  185 1    
   127   63  186 1    
   128   63  187 1    
   129   63  188 1    
   130   64   65 am   BACKBONE|DICT|INTERRES
   131   64  189 1    
   132   65   66 2    
   133   67   68 2    
   134   67   69 am   BACKBONE|DICT|INTERRES
   135   69   70 1    
   136   69  190 1    
   137   70   71 1    
   138   70   72 1    
   139   70  191 1    
   140   71  192 1    
   141   71  193 1    
   142   71  194 1    
   143   72   73 2    
   144   72   74 am   BACKBONE|DICT|INTERRES
   145   74   75 1    
   146   74  195 1    
   147   75   76 1    
   148   75   77 1    
   149   75  196 1    
   150   76  197 1    
   151   76  198 1    
   152   76  199 1    
   153   77   78 2    
   154   77   79 am   BACKBONE|DICT|INTERRES
   155   79   80 1    
   156   79  200 1    
   157   80   81 1    
   158   80   82 1    
   159   80  201 1    
   160   81  202 1    
   161   81  203 1    
   162   81  204 1    
   163   82   83 2    
   164   82   84 am   BACKBONE|DICT|INTERRES
   165   84   85 1    
   166   84  205 1    
   167   85   86 1    
   168   85   87 1    
   169   85  206 1    
   170   86  207 1    
   171   86  208 1    
   172   86  209 1    
   173   87   88 2    
   174   87   89 am   BACKBONE|DICT|INTERRES
   175   89   90 1    
   176   89  210 1    
   177   90   91 1    
   178   90   92 1    
   179   90  211 1    
   180   91  212 1    
   181   91  213 1    
   182   91  214 1    
   183   92   93 2    
   184   92   94 am   BACKBONE|DICT|INTERRES
   185   94   95 1    
   186   94  215 1    
   187   95   96 1    
   188   95   97 1    
   189   95  216 1    
   190   96  217 1    
   191   96  218 1    
   192   96  219 1    
   193   97   98 2    
   194   97   99 am   BACKBONE|DICT|INTERRES
   195   99  100 1    
   196   99  220 1    
   197  100  101 1    
   198  100  102 1    
   199  100  221 1    
   200  101  222 1    
   201  101  223 1    
   202  101  224 1    
   203  102  103 2    
   204  102  104 am   BACKBONE|DICT|INTERRES
   205  104  105 1    
   206  104  225 1    
   207  105  106 1    
   208  105  107 1    
   209  105  226 1    
   210  106  227 1    
   211  106  228 1    
   212  106  229 1    
   213  107  108 2    
   214  107  109 am   BACKBONE|DICT|INTERRES
   215  109  110 1    
   216  109  230 1    
   217  110  111 1    
   218  110  112 1    
   219  110  231 1    
   220  111  232 1    
   221  111  233 1    
   222  111  234 1    
   223  112  113 2    
   224  112  114 am   BACKBONE|DICT|INTERRES
   225  114  115 1    
   226  114  235 1    
   227  115  116 1    
   228  115  117 1    
   229  115  236 1    
   230  116  237 1    
   231  116  238 1    
   232  116  239 1    
   233  117  118 2    
   234  117  119 am   BACKBONE|DICT|INTERRES
   235  119  120 1    
   236  119  240 1    
   237  120  121 1    
   238  120  124 1    
   239  120  241 1    
   240  121  122 am   BACKBONE|DICT|INTERRES
   241  121  123 2    
   242  122  242 1    
   243  122  243 1    
   244  124  125 1    
   245  124  244 1    
   246  124  245 1    
   247  125  126 1    
   248  126  246 1    
   249  126  247 1    
@<TRIPOS>SUBSTRUCTURE
     1 UNK         1 GROUP             0       ****    0 ROOT    
