@<TRIPOS>MOLECULE
3R540
247   249    1
SMALL
USER_CHARGES


@<TRIPOS>ATOM
      1 CA          3.0061  -12.3485  -46.5085 C.3       0 UNK        -0.1800 
      2 C           1.5102  -12.4951  -46.2752 C.2       0 UNK         0.5000 
      3 O           0.7302  -11.7191  -46.8257 O.2       0 UNK        -0.5000 
      4 N           1.1135  -13.4929  -45.4731 N.am      1 UNK        -0.5000 
      5 CA         -0.2737  -13.8761  -45.1666 C.3       1 UNK         0.1400 
      6 C6         -1.1218  -14.2459  -46.4185 C.3       23 UNK        -0.0398 
      7 S7         -0.4381  -15.6338  -47.3861 S.3       23 UNK        -0.2404 
      8 C8          0.2500  -14.7934  -48.8451 C.3       23 UNK        -0.0205 
      9 C9          0.5171  -15.7846  -49.9670 C.ar      23 UNK        -0.0193 
     10 C10        -0.2868  -15.7903  -51.1104 C.ar      23 UNK        -0.1150 
     11 C11        -0.0599  -16.7159  -52.1329 C.ar      23 UNK        -0.0193 
     12 C12         0.9796  -17.6414  -52.0065 C.ar      23 UNK        -0.1150 
     13 C13         1.7892  -17.6473  -50.8674 C.ar      23 UNK        -0.0193 
     14 C14         1.5619  -16.7065  -49.8576 C.ar      23 UNK        -0.1150 
     15 C15         2.9044  -18.6742  -50.7232 C.3       23 UNK        -0.0205 
     16 S16         2.2736  -20.3622  -50.4374 S.3       23 UNK        -0.2404 
     17 C17         1.3753  -20.1649  -48.8600 C.3       23 UNK        -0.0398 
     18 CA          0.0475  -20.9596  -48.7725 C.3       11 UNK         0.1400 
     19 N          -0.3499  -21.1013  -47.3691 N.am      11 UNK        -0.5000 
     20 C          -1.2464  -21.9677  -46.8783 C.2       10 UNK         0.5000 
     21 O          -1.8521  -22.7872  -47.5676 O.2       10 UNK        -0.5000 
     22 CA         -1.5618  -21.8582  -45.3704 C.3       10 UNK         0.1400 
     23 CB         -0.6688  -22.8155  -44.5682 C.3       10 UNK        -0.1800 
     24 N          -1.4129  -20.5021  -44.8319 N.am      10 UNK        -0.5000 
     25 C          -2.0626  -19.4147  -45.2741 C.2       9 UNK         0.5000 
     26 O          -2.9292  -19.4492  -46.1466 O.2       9 UNK        -0.5000 
     27 CA         -1.6304  -18.0496  -44.7049 C.3       9 UNK         0.1400 
     28 CB         -2.5736  -17.6159  -43.5749 C.3       9 UNK        -0.1800 
     29 N          -0.2363  -17.9672  -44.2449 N.am      9 UNK        -0.5000 
     30 C           0.8519  -18.2812  -44.9706 C.2       8 UNK         0.5000 
     31 O           0.7950  -18.7680  -46.0983 O.2       8 UNK        -0.5000 
     32 CA          2.2431  -18.0298  -44.3576 C.3       8 UNK         0.1400 
     33 CB          2.9803  -16.9366  -45.1476 C.3       8 UNK        -0.1800 
     34 N           2.2026  -17.6633  -42.9417 N.am      8 UNK        -0.5000 
     35 C           1.9885  -18.5296  -41.9388 C.2       7 UNK         0.5000 
     36 O           1.8349  -19.7391  -42.1117 O.2       7 UNK        -0.5000 
     37 CA          1.9064  -17.9585  -40.5063 C.3       7 UNK         0.1400 
     38 CB          3.2305  -18.1871  -39.7618 C.3       7 UNK        -0.1800 
     39 N           1.5766  -16.5325  -40.4534 N.am      7 UNK        -0.5000 
     40 C           0.4370  -15.9851  -40.8981 C.2       6 UNK         0.5000 
     41 O          -0.5013  -16.6428  -41.3444 O.2       6 UNK        -0.5000 
     42 CA          0.3566  -14.4464  -40.9115 C.3       6 UNK         0.1400 
     43 CB         -0.4260  -13.9333  -39.6956 C.3       6 UNK        -0.1800 
     44 N           1.6631  -13.7790  -40.9765 N.am      6 UNK        -0.5000 
     45 C           2.5497  -13.9182  -41.9757 C.2       5 UNK         0.5000 
     46 O           2.3333  -14.6193  -42.9655 O.2       5 UNK        -0.5000 
     47 CA          3.8963  -13.1777  -41.8590 C.3       5 UNK         0.1400 
     48 CB          4.3078  -12.5435  -43.1962 C.3       5 UNK        -0.1800 
     49 N           3.8650  -12.1334  -40.8374 N.am      5 UNK        -0.5000 
     50 C           4.3837  -12.2339  -39.6062 C.2       4 UNK         0.5000 
     51 O           4.9575  -13.2401  -39.1885 O.2       4 UNK        -0.5000 
     52 CA          4.2304  -11.0122  -38.6751 C.3       4 UNK         0.1400 
     53 CB          5.5531  -10.2351  -38.5876 C.3       4 UNK        -0.1800 
     54 N           3.1676  -10.0891  -39.0828 N.am      4 UNK        -0.5000 
     55 C           1.8588  -10.3717  -39.0608 C.2       3 UNK         0.5000 
     56 O           1.4085  -11.4436  -38.6538 O.2       3 UNK        -0.5000 
     57 CA          0.8863   -9.3064  -39.6121 C.3       3 UNK         0.1400 
     58 CB          1.5750   -8.0217  -40.1273 C.3       3 UNK        -0.1800 
     59 N           0.0059   -9.8590  -40.6476 N.am      3 UNK        -0.5000 
     60 C           0.3795  -10.4538  -41.7894 C.2       2 UNK         0.5000 
     61 O           1.5526  -10.6181  -42.1375 O.2       2 UNK        -0.5000 
     62 CA         -0.7589  -10.9266  -42.7029 C.3       2 UNK         0.1400 
     63 CB         -1.3403   -9.7489  -43.5067 C.3       2 UNK        -0.1800 
     64 N          -0.2552  -11.9487  -43.6141 N.am      2 UNK        -0.5000 
     65 C          -1.0014  -12.8553  -44.2572 C.2       1 UNK         0.5000 
     66 O          -2.2245  -12.9249  -44.1267 O.2       1 UNK        -0.5000 
     67 C          -1.0713  -20.3505  -49.6577 C.2       11 UNK         0.5000 
     68 O          -0.9810  -20.4453  -50.8811 O.2       11 UNK        -0.5000 
     69 N          -2.1129  -19.7760  -49.0382 N.am      12 UNK        -0.5000 
     70 CA         -3.2830  -19.2023  -49.7028 C.3       12 UNK         0.1400 
     71 CB         -3.3034  -17.6919  -49.4092 C.3       12 UNK        -0.1800 
     72 C          -4.5972  -19.8772  -49.2548 C.2       12 UNK         0.5000 
     73 O          -5.6732  -19.3790  -49.5900 O.2       12 UNK        -0.5000 
     74 N          -4.5099  -20.9770  -48.4923 N.am      13 UNK        -0.5000 
     75 CA         -5.6514  -21.6381  -47.8523 C.3       13 UNK         0.1400 
     76 CB         -5.2001  -22.1814  -46.4869 C.3       13 UNK        -0.1800 
     77 C          -6.2799  -22.7664  -48.6929 C.2       13 UNK         0.5000 
     78 O          -7.2205  -23.4020  -48.2146 O.2       13 UNK        -0.5000 
     79 N          -5.7488  -23.0281  -49.8968 N.am      14 UNK        -0.5000 
     80 CA         -6.0982  -24.1471  -50.7828 C.3       14 UNK         0.1400 
     81 CB         -7.5520  -24.0461  -51.2881 C.3       14 UNK        -0.1800 
     82 C          -5.7493  -25.5224  -50.1743 C.2       14 UNK         0.5000 
     83 O          -6.4441  -26.5108  -50.4210 O.2       14 UNK        -0.5000 
     84 N          -4.6584  -25.5630  -49.3953 N.am      15 UNK        -0.5000 
     85 CA         -4.0313  -26.7769  -48.8776 C.3       15 UNK         0.1400 
     86 CB         -2.9075  -26.3838  -47.9049 C.3       15 UNK        -0.1800 
     87 C          -3.4953  -27.6324  -50.0411 C.2       15 UNK         0.5000 
     88 O          -2.6479  -27.1599  -50.7998 O.2       15 UNK        -0.5000 
     89 N          -4.0437  -28.8462  -50.1887 N.am      16 UNK        -0.5000 
     90 CA         -3.8663  -29.7430  -51.3391 C.3       16 UNK         0.1400 
     91 CB         -2.4142  -30.2579  -51.4375 C.3       16 UNK        -0.1800 
     92 C          -4.3965  -29.1297  -52.6567 C.2       16 UNK         0.5000 
     93 O          -3.8195  -29.3489  -53.7239 O.2       16 UNK        -0.5000 
     94 N          -5.5031  -28.3780  -52.5452 N.am      17 UNK        -0.5000 
     95 CA         -6.2361  -27.6971  -53.6114 C.3       17 UNK         0.1400 
     96 CB         -6.9144  -28.7251  -54.5463 C.3       17 UNK        -0.1800 
     97 C          -5.3598  -26.6533  -54.3312 C.2       17 UNK         0.5000 
     98 O          -4.8777  -25.7217  -53.6828 O.2       17 UNK        -0.5000 
     99 N          -5.1713  -26.8255  -55.6477 N.am      18 UNK        -0.5000 
    100 CA        -4.4697  -25.9228  -56.5653 C.3       18 UNK         0.1400 
    101 CB        -4.4951  -26.5349  -57.9741 C.3       18 UNK        -0.1800 
    102 C         -3.0248  -25.5668  -56.1647 C.2       18 UNK         0.5000 
    103 O         -2.5354  -24.5095  -56.5631 O.2       18 UNK        -0.5000 
    104 N         -2.3830  -26.4312  -55.3668 N.am      19 UNK        -0.5000 
    105 CA        -1.0320  -26.2585  -54.8311 C.3       19 UNK         0.1400 
    106 CB        -0.6403  -27.5356  -54.0733 C.3       19 UNK        -0.1800 
    107 C         -0.8549  -25.0233  -53.9221 C.2       19 UNK         0.5000 
    108 O          0.2696  -24.5356  -53.7974 O.2       19 UNK        -0.5000 
    109 N         -1.9454  -24.5367  -53.3143 N.am      20 UNK        -0.5000 
    110 CA        -1.9461  -23.3873  -52.4085 C.3       20 UNK         0.1400 
    111 CB        -1.7404  -23.8810  -50.9661 C.3       20 UNK        -0.1800 
    112 C         -3.2227  -22.5441  -52.5765 C.2       20 UNK         0.5000 
    113 O         -3.6990  -21.9535  -51.6065 O.2       20 UNK        -0.5000 
    114 N         -3.7876  -22.5283  -53.7916 N.am      21 UNK        -0.5000 
    115 CA        -5.0134  -21.7904  -54.1161 C.3       21 UNK         0.1400 
    116 CB        -5.8198  -22.5964  -55.1457 C.3       21 UNK        -0.1800 
    117 C         -4.7406  -20.3723  -54.6545 C.2       21 UNK         0.5000 
    118 O         -5.6829  -19.5873  -54.7650 O.2       21 UNK        -0.5000 
    119 N         -3.4806  -20.0803  -55.0096 N.am      22 UNK        -0.5000 
    120 CA        -3.0136  -18.8244  -55.6327 C.3       22 UNK         0.1400 
    121 C         -3.5029  -18.6062  -57.0994 C.2       22 UNK         0.5000 
    122 N         -4.0023  -19.6236  -57.7909 N.am      22 UNK        -0.7600 
    123 O         -3.3998  -17.5071  -57.6379 O.2       22 UNK        -0.5000 
    124 C124       -3.2335  -17.5651  -54.7446 C.3       23 UNK        -0.0398 
    125 S125       -2.4412  -17.7065  -53.1086 S.3       23 UNK        -0.2404 
    126 C126       -0.9400  -16.7165  -53.3713 C.3       23 UNK        -0.0205 
    127 H127        3.3849  -11.4661  -45.9933 H         1 UNK         0.0600 
    128 H128        3.2088  -12.2345  -47.5734 H         1 UNK         0.0600 
    129 H129        3.5555  -13.2218  -46.1571 H         1 UNK         0.0600 
    130 H130        1.8112  -14.0480  -44.9919 H         1 UNK         0.3000 
    131 H131       -0.1909  -14.7794  -44.5598 H         1 UNK         0.0600 
    132 H132       -2.1221  -14.5594  -46.1155 H         1 UNK         0.0800 
    133 H133       -1.2717  -13.3784  -47.0617 H         1 UNK         0.0800 
    134 H134        1.1794  -14.2924  -48.5741 H         1 UNK         0.0800 
    135 H135       -0.4381  -14.0167  -49.1817 H         1 UNK         0.0800 
    136 H136       -1.0998  -15.0837  -51.2014 H         1 UNK         0.1150 
    137 H137        1.1485  -18.3712  -52.7859 H         1 UNK         0.1150 
    138 H138        2.1783  -16.7072  -48.9694 H         1 UNK         0.1150 
    139 H139        3.5099  -18.6734  -51.6305 H         1 UNK         0.0800 
    140 H140        3.5767  -18.4028  -49.9077 H         1 UNK         0.0800 
    141 H141        1.1900  -19.1118  -48.6531 H         1 UNK         0.0800 
    142 H142        2.0578  -20.4984  -48.0769 H         1 UNK         0.0800 
    143 H143        0.2347  -21.9668  -49.1504 H         1 UNK         0.0600 
    144 H144        0.0517  -20.4108  -46.7397 H         1 UNK         0.3000 
    145 H145       -2.5988  -22.1602  -45.2232 H         1 UNK         0.0600 
    146 H146       -0.9380  -22.8150  -43.5118 H         1 UNK         0.0600 
    147 H147        0.3847  -22.5438  -44.6470 H         1 UNK         0.0600 
    148 H148       -0.7724  -23.8401  -44.9283 H         1 UNK         0.0600 
    149 H149       -0.7061  -20.3726  -44.1224 H         1 UNK         0.3000 
    150 H150       -1.7431  -17.3322  -45.5169 H         1 UNK         0.0600 
    151 H151       -3.6175  -17.6861  -43.8840 H         1 UNK         0.0600 
    152 H152       -2.3935  -16.5793  -43.2895 H         1 UNK         0.0600 
    153 H153       -2.4499  -18.2379  -42.6876 H         1 UNK         0.0600 
    154 H154       -0.1010  -17.5922  -43.3141 H         1 UNK         0.3000 
    155 H155        2.8136  -18.9556  -44.4564 H         1 UNK         0.0600 
    156 H156        3.1583  -17.2540  -46.1759 H         1 UNK         0.0600 
    157 H157        3.9494  -16.7069  -44.7047 H         1 UNK         0.0600 
    158 H158        2.4015  -16.0153  -45.1929 H         1 UNK         0.0600 
    159 H159        2.2977  -16.6752  -42.7344 H         1 UNK         0.3000 
    160 H160        1.1181  -18.5035  -39.9831 H         1 UNK         0.0600 
    161 H161        4.0533  -17.6446  -40.2292 H         1 UNK         0.0600 
    162 H162        3.4973  -19.2449  -39.7534 H         1 UNK         0.0600 
    163 H163        3.1609  -17.8633  -38.7231 H         1 UNK         0.0600 
    164 H164        2.2947  -15.9153  -40.1040 H         1 UNK         0.3000 
    165 H165       -0.2006  -14.1723  -41.8069 H         1 UNK         0.0600 
    166 H166       -0.6235  -12.8648  -39.7783 H         1 UNK         0.0600 
    167 H167       -1.3922  -14.4325  -39.6101 H         1 UNK         0.0600 
    168 H168        0.1177  -14.1045  -38.7659 H         1 UNK         0.0600 
    169 H169        1.8949  -13.1659  -40.2056 H         1 UNK         0.3000 
    170 H170        4.6462  -13.9294  -41.6053 H         1 UNK         0.0600 
    171 H171        3.5582  -11.8370  -43.5530 H         1 UNK         0.0600 
    172 H172        5.2538  -12.0097  -43.1046 H         1 UNK         0.0600 
    173 H173        4.4437  -13.3061  -43.9631 H         1 UNK         0.0600 
    174 H174        3.3534  -11.2948  -41.0879 H         1 UNK         0.3000 
    175 H175        3.9885  -11.3896  -37.6794 H         1 UNK         0.0600 
    176 H176        5.8398   -9.8193  -39.5544 H         1 UNK         0.0600 
    177 H177        5.4821   -9.4131  -37.8751 H         1 UNK         0.0600 
    178 H178        6.3660  -10.8820  -38.2545 H         1 UNK         0.0600 
    179 H179        3.4615   -9.1938  -39.4457 H         1 UNK         0.3000 
    180 H180        0.2442   -9.0243  -38.7766 H         1 UNK         0.0600 
    181 H181        0.8356   -7.2980  -40.4708 H         1 UNK         0.0600 
    182 H182        2.2491   -8.2204  -40.9614 H         1 UNK         0.0600 
    183 H183        2.1498   -7.5355  -39.3380 H         1 UNK         0.0600 
    184 H184       -0.9818   -9.7957  -40.4445 H         1 UNK         0.3000 
    185 H185       -1.5385  -11.3627  -42.0746 H         1 UNK         0.0600 
    186 H186       -1.7052   -8.9613  -42.8464 H         1 UNK         0.0600 
    187 H187       -0.5907   -9.3067  -44.1642 H         1 UNK         0.0600 
    188 H188       -2.1807  -10.0654  -44.1247 H         1 UNK         0.0600 
    189 H189        0.7503  -11.9538  -43.7270 H         1 UNK         0.3000 
    190 H190       -2.1325  -19.7419  -48.0247 H         1 UNK         0.3000 
    191 H191       -3.2195  -19.3439  -50.7824 H         1 UNK         0.0600 
    192 H192       -4.1208  -17.1977  -49.9352 H         1 UNK         0.0600 
    193 H193       -2.3778  -17.2183  -49.7356 H         1 UNK         0.0600 
    194 H194       -3.4223  -17.4916  -48.3436 H         1 UNK         0.0600 
    195 H195       -3.5944  -21.3574  -48.2937 H         1 UNK         0.3000 
    196 H196       -6.4380  -20.9034  -47.6693 H         1 UNK         0.0600 
    197 H197       -4.7974  -21.3859  -45.8609 H         1 UNK         0.0600 
    198 H198       -4.4385  -22.9540  -46.5948 H         1 UNK         0.0600 
    199 H199       -6.0355  -22.6215  -45.9410 H         1 UNK         0.0600 
    200 H200       -4.9884  -22.4399  -50.2293 H         1 UNK         0.3000 
    201 H201       -5.4589  -24.0510  -51.6585 H         1 UNK         0.0600 
    202 H202       -7.7525  -23.0633  -51.7145 H         1 UNK         0.0600 
    203 H203       -8.2755  -24.2239  -50.4926 H         1 UNK         0.0600 
    204 H204       -7.7414  -24.7818  -52.0705 H         1 UNK         0.0600 
    205 H205       -4.1497  -24.7042  -49.2487 H         1 UNK         0.3000 
    206 H206       -4.7841  -27.3425  -48.3249 H         1 UNK         0.0600 
    207 H207       -2.1352  -25.7901  -48.3965 H         1 UNK         0.0600 
    208 H208       -3.2942  -25.7988  -47.0699 H         1 UNK         0.0600 
    209 H209       -2.4257  -27.2690  -47.4883 H         1 UNK         0.0600 
    210 H210       -4.7377  -29.1410  -49.5153 H         1 UNK         0.3000 
    211 H211       -4.5000  -30.6095  -51.1450 H         1 UNK         0.0600 
    212 H212       -1.7104  -29.4611  -51.6749 H         1 UNK         0.0600 
    213 H213       -2.3209  -31.0159  -52.2161 H         1 UNK         0.0600 
    214 H214       -2.0960  -30.7159  -50.5012 H         1 UNK         0.0600 
    215 H215       -5.8400  -28.1683  -51.6125 H         1 UNK         0.3000 
    216 H216       -7.0293  -27.1309  -53.1216 H         1 UNK         0.0600 
    217 H217       -7.5390  -28.2302  -55.2912 H         1 UNK         0.0600 
    218 H218       -7.5657  -29.3907  -53.9798 H         1 UNK         0.0600 
    219 H219       -6.1915  -29.3476  -55.0746 H         1 UNK         0.0600 
    220 H220       -5.5857  -27.6431  -56.0711 H         1 UNK         0.3000 
    221 H221       -5.0359  -24.9921  -56.5947 H         1 UNK         0.0600 
    222 H222       -4.0089  -25.8775  -58.6963 H         1 UNK         0.0600 
    223 H223       -3.9779  -27.4949  -58.0039 H         1 UNK         0.0600 
    224 H224       -5.5173  -26.6921  -58.3192 H         1 UNK         0.0600 
    225 H225       -2.8805  -27.2597  -55.0692 H         1 UNK         0.3000 
    226 H226       -0.3539  -26.1399  -55.6786 H         1 UNK         0.0600 
    227 H227       -0.6877  -28.4126  -54.7194 H         1 UNK         0.0600 
    228 H228        0.3781  -27.4684  -53.6881 H         1 UNK         0.0600 
    229 H229       -1.3023  -27.7077  -53.2242 H         1 UNK         0.0600 
    230 H230       -2.8376  -25.0019  -53.4517 H         1 UNK         0.3000 
    231 H231       -1.1206  -22.7176  -52.6588 H         1 UNK         0.0600 
    232 H232       -1.7381  -23.0578  -50.2544 H         1 UNK         0.0600 
    233 H233       -0.7923  -24.4080  -50.8566 H         1 UNK         0.0600 
    234 H234       -2.5365  -24.5593  -50.6713 H         1 UNK         0.0600 
    235 H235       -3.3525  -23.0510  -54.5394 H         1 UNK         0.3000 
    236 H236       -5.6309  -21.6850  -53.2210 H         1 UNK         0.0600 
    237 H237       -5.2656  -22.7249  -56.0757 H         1 UNK         0.0600 
    238 H238       -6.0782  -23.5819  -54.7602 H         1 UNK         0.0600 
    239 H239       -6.7568  -22.0941  -55.3901 H         1 UNK         0.0600 
    240 H240       -2.7748  -20.7873  -54.8703 H         1 UNK         0.3000 
    241 H241       -1.9349  -18.9475  -55.7349 H         1 UNK         0.0600 
    242 H242       -4.3048  -19.4751  -58.7410 H         1 UNK         0.3800 
    243 H243       -4.0789  -20.5383  -57.3774 H         1 UNK         0.3800 
    244 H244       -4.2973  -17.3784  -54.5962 H         1 UNK         0.0800 
    245 H245       -2.8464  -16.6721  -55.2376 H         1 UNK         0.0800 
    246 H246       -0.3882  -17.1132  -54.2248 H         1 UNK         0.0800 
    247 H247       -1.2175  -15.6931  -53.6284 H         1 UNK         0.0800 
@<TRIPOS>BOND
     1    1    2 1    
     2    1  127 1    
     3    1  128 1    
     4    1  129 1    
     5    2    3 2    
     6    2    4 am   BACKBONE|DICT|INTERRES
     7    4    5 1    
     8    4  130 1    
     9    5    6 1    
    10    5   65 1    
    11    5  131 1    
    12    6    7 1    
    13    6  132 1    
    14    6  133 1    
    15    7    8 1    
    16    8    9 1    
    17    8  134 1    
    18    8  135 1    
    19    9   10 ar   
    20    9   14 ar   
    21   10   11 ar   
    22   10  136 1    
    23   11   12 ar   
    24   11  126 1    
    25   12   13 ar   
    26   12  137 1    
    27   13   14 ar   
    28   13   15 1    
    29   14  138 1    
    30   15   16 1    
    31   15  139 1    
    32   15  140 1    
    33   16   17 1    
    34   17   18 1    
    35   17  141 1    
    36   17  142 1    
    37   18   19 1    
    38   18   67 1    
    39   18  143 1    
    40   19   20 am   BACKBONE|DICT|INTERRES
    41   19  144 1    
    42   20   21 2    
    43   20   22 1    
    44   22   23 1    
    45   22   24 1    
    46   22  145 1    
    47   23  146 1    
    48   23  147 1    
    49   23  148 1    
    50   24   25 am   BACKBONE|DICT|INTERRES
    51   24  149 1    
    52   25   26 2    
    53   25   27 1    
    54   27   28 1    
    55   27   29 1    
    56   27  150 1    
    57   28  151 1    
    58   28  152 1    
    59   28  153 1    
    60   29   30 am   BACKBONE|DICT|INTERRES
    61   29  154 1    
    62   30   31 2    
    63   30   32 1    
    64   32   33 1    
    65   32   34 1    
    66   32  155 1    
    67   33  156 1    
    68   33  157 1    
    69   33  158 1    
    70   34   35 am   BACKBONE|DICT|INTERRES
    71   34  159 1    
    72   35   36 2    
    73   35   37 1    
    74   37   38 1    
    75   37   39 1    
    76   37  160 1    
    77   38  161 1    
    78   38  162 1    
    79   38  163 1    
    80   39   40 am   BACKBONE|DICT|INTERRES
    81   39  164 1    
    82   40   41 2    
    83   40   42 1    
    84   42   43 1    
    85   42   44 1    
    86   42  165 1    
    87   43  166 1    
    88   43  167 1    
    89   43  168 1    
    90   44   45 am   BACKBONE|DICT|INTERRES
    91   44  169 1    
    92   45   46 2    
    93   45   47 1    
    94   47   48 1    
    95   47   49 1    
    96   47  170 1    
    97   48  171 1    
    98   48  172 1    
    99   48  173 1    
   100   49   50 am   BACKBONE|DICT|INTERRES
   101   49  174 1    
   102   50   51 2    
   103   50   52 1    
   104   52   53 1    
   105   52   54 1    
   106   52  175 1    
   107   53  176 1    
   108   53  177 1    
   109   53  178 1    
   110   54   55 am   BACKBONE|DICT|INTERRES
   111   54  179 1    
   112   55   56 2    
   113   55   57 1    
   114   57   58 1    
   115   57   59 1    
   116   57  180 1    
   117   58  181 1    
   118   58  182 1    
   119   58  183 1    
   120   59   60 am   BACKBONE|DICT|INTERRES
   121   59  184 1    
   122   60   61 2    
   123   60   62 1    
   124   62   63 1    
   125   62   64 1    
   126   62  185 1    
   127   63  186 1    
   128   63  187 1    
   129   63  188 1    
   130   64   65 am   BACKBONE|DICT|INTERRES
   131   64  189 1    
   132   65   66 2    
   133   67   68 2    
   134   67   69 am   BACKBONE|DICT|INTERRES
   135   69   70 1    
   136   69  190 1    
   137   70   71 1    
   138   70   72 1    
   139   70  191 1    
   140   71  192 1    
   141   71  193 1    
   142   71  194 1    
   143   72   73 2    
   144   72   74 am   BACKBONE|DICT|INTERRES
   145   74   75 1    
   146   74  195 1    
   147   75   76 1    
   148   75   77 1    
   149   75  196 1    
   150   76  197 1    
   151   76  198 1    
   152   76  199 1    
   153   77   78 2    
   154   77   79 am   BACKBONE|DICT|INTERRES
   155   79   80 1    
   156   79  200 1    
   157   80   81 1    
   158   80   82 1    
   159   80  201 1    
   160   81  202 1    
   161   81  203 1    
   162   81  204 1    
   163   82   83 2    
   164   82   84 am   BACKBONE|DICT|INTERRES
   165   84   85 1    
   166   84  205 1    
   167   85   86 1    
   168   85   87 1    
   169   85  206 1    
   170   86  207 1    
   171   86  208 1    
   172   86  209 1    
   173   87   88 2    
   174   87   89 am   BACKBONE|DICT|INTERRES
   175   89   90 1    
   176   89  210 1    
   177   90   91 1    
   178   90   92 1    
   179   90  211 1    
   180   91  212 1    
   181   91  213 1    
   182   91  214 1    
   183   92   93 2    
   184   92   94 am   BACKBONE|DICT|INTERRES
   185   94   95 1    
   186   94  215 1    
   187   95   96 1    
   188   95   97 1    
   189   95  216 1    
   190   96  217 1    
   191   96  218 1    
   192   96  219 1    
   193   97   98 2    
   194   97   99 am   BACKBONE|DICT|INTERRES
   195   99  100 1    
   196   99  220 1    
   197  100  101 1    
   198  100  102 1    
   199  100  221 1    
   200  101  222 1    
   201  101  223 1    
   202  101  224 1    
   203  102  103 2    
   204  102  104 am   BACKBONE|DICT|INTERRES
   205  104  105 1    
   206  104  225 1    
   207  105  106 1    
   208  105  107 1    
   209  105  226 1    
   210  106  227 1    
   211  106  228 1    
   212  106  229 1    
   213  107  108 2    
   214  107  109 am   BACKBONE|DICT|INTERRES
   215  109  110 1    
   216  109  230 1    
   217  110  111 1    
   218  110  112 1    
   219  110  231 1    
   220  111  232 1    
   221  111  233 1    
   222  111  234 1    
   223  112  113 2    
   224  112  114 am   BACKBONE|DICT|INTERRES
   225  114  115 1    
   226  114  235 1    
   227  115  116 1    
   228  115  117 1    
   229  115  236 1    
   230  116  237 1    
   231  116  238 1    
   232  116  239 1    
   233  117  118 2    
   234  117  119 am   BACKBONE|DICT|INTERRES
   235  119  120 1    
   236  119  240 1    
   237  120  121 1    
   238  120  124 1    
   239  120  241 1    
   240  121  122 am   BACKBONE|DICT|INTERRES
   241  121  123 2    
   242  122  242 1    
   243  122  243 1    
   244  124  125 1    
   245  124  244 1    
   246  124  245 1    
   247  125  126 1    
   248  126  246 1    
   249  126  247 1    
@<TRIPOS>SUBSTRUCTURE
     1 UNK         1 GROUP             0       ****    0 ROOT    
