@<TRIPOS>MOLECULE
3R540
247   249    1
SMALL
USER_CHARGES


@<TRIPOS>ATOM
      1 CA         -3.1320  -11.6788  -47.4900 C.3       0 UNK        -0.1800 
      2 C          -2.9571  -13.1951  -47.4519 C.2       0 UNK         0.5000 
      3 O          -3.7169  -13.8740  -46.7658 O.2       0 UNK        -0.5000 
      4 N          -1.9791  -13.7759  -48.1607 N.am      1 UNK        -0.5000 
      5 CA         -0.9707  -13.1107  -49.0025 C.3       1 UNK         0.1400 
      6 C6         -0.3601  -14.0870  -50.0381 C.3       23 UNK        -0.0398 
      7 S7         -1.6025  -14.6932  -51.2312 S.3       23 UNK        -0.2404 
      8 C8         -1.9816  -16.3567  -50.5950 C.3       23 UNK        -0.0205 
      9 C9         -0.8819  -17.3596  -50.9104 C.ar      23 UNK        -0.0193 
     10 C10        -0.7950  -17.9173  -52.1892 C.ar      23 UNK        -0.1150 
     11 C11         0.2000  -18.8509  -52.4904 C.ar      23 UNK        -0.0193 
     12 C12         1.1118  -19.2265  -51.5016 C.ar      23 UNK        -0.1150 
     13 C13         1.0223  -18.6948  -50.2128 C.ar      23 UNK        -0.0193 
     14 C14         0.0256  -17.7575  -49.9228 C.ar      23 UNK        -0.1150 
     15 C15         1.9865  -19.1625  -49.1313 C.3       23 UNK        -0.0205 
     16 S16         1.7297  -20.9175  -48.7124 S.3       23 UNK        -0.2404 
     17 C17        -0.0184  -20.8829  -48.2036 C.3       23 UNK        -0.0398 
     18 CA         -0.4220  -22.1077  -47.3570 C.3       11 UNK         0.1400 
     19 N           0.2386  -22.1415  -46.0485 N.am      11 UNK        -0.5000 
     20 C           0.2101  -23.1927  -45.2173 C.2       10 UNK         0.5000 
     21 O          -0.3523  -24.2541  -45.4841 O.2       10 UNK        -0.5000 
     22 CA          0.8642  -23.0129  -43.8356 C.3       10 UNK         0.1400 
     23 CB          2.3926  -23.1341  -43.9247 C.3       10 UNK        -0.1800 
     24 N           0.5004  -21.7426  -43.2076 N.am      10 UNK        -0.5000 
     25 C          -0.7454  -21.4036  -42.8466 C.2       9 UNK         0.5000 
     26 O          -1.7150  -22.1539  -42.9565 O.2       9 UNK        -0.5000 
     27 CA         -0.9546  -19.9678  -42.3303 C.3       9 UNK         0.1400 
     28 CB         -0.5708  -19.8474  -40.8479 C.3       9 UNK        -0.1800 
     29 N          -0.2122  -18.9827  -43.1180 N.am      9 UNK        -0.5000 
     30 C          -0.4636  -18.7052  -44.4056 C.2       8 UNK         0.5000 
     31 O          -1.3818  -19.2104  -45.0492 O.2       8 UNK        -0.5000 
     32 CA          0.5081  -17.7462  -45.1120 C.3       8 UNK         0.1400 
     33 CB          0.1021  -16.2854  -44.8859 C.3       8 UNK        -0.1800 
     34 N           1.8954  -17.9488  -44.6919 N.am      8 UNK        -0.5000 
     35 C           2.5978  -19.0563  -44.9712 C.2       7 UNK         0.5000 
     36 O           2.1436  -20.0035  -45.6085 O.2       7 UNK        -0.5000 
     37 CA          4.0222  -19.1471  -44.3976 C.3       7 UNK         0.1400 
     38 CB          5.0038  -18.3380  -45.2585 C.3       7 UNK        -0.1800 
     39 N           4.1022  -18.6924  -43.0100 N.am      7 UNK        -0.5000 
     40 C           3.4395  -19.2405  -41.9806 C.2       6 UNK         0.5000 
     41 O           2.7191  -20.2324  -42.0853 O.2       6 UNK        -0.5000 
     42 CA          3.5747  -18.5445  -40.6120 C.3       6 UNK         0.1400 
     43 CB          4.6282  -19.2553  -39.7498 C.3       6 UNK        -0.1800 
     44 N           3.9164  -17.1225  -40.7170 N.am      6 UNK        -0.5000 
     45 C           3.1122  -16.1853  -41.2351 C.2       5 UNK         0.5000 
     46 O           1.9798  -16.4176  -41.6674 O.2       5 UNK        -0.5000 
     47 CA          3.7138  -14.7761  -41.3601 C.3       5 UNK         0.1400 
     48 CB          4.4097  -14.6221  -42.7226 C.3       5 UNK        -0.1800 
     49 N           2.6825  -13.7507  -41.2464 N.am      5 UNK        -0.5000 
     50 C           2.1578  -13.3159  -40.0903 C.2       4 UNK         0.5000 
     51 O           2.5396  -13.6976  -38.9832 O.2       4 UNK        -0.5000 
     52 CA          1.0135  -12.2909  -40.1805 C.3       4 UNK         0.1400 
     53 CB          1.5782  -10.8574  -40.1383 C.3       4 UNK        -0.1800 
     54 N           0.2437  -12.5184  -41.3994 N.am      4 UNK        -0.5000 
     55 C          -0.8955  -11.9468  -41.7872 C.2       3 UNK         0.5000 
     56 O          -1.4931  -11.0890  -41.1347 O.2       3 UNK        -0.5000 
     57 CA         -1.4473  -12.4379  -43.1459 C.3       3 UNK         0.1400 
     58 CB         -2.8431  -11.8672  -43.4559 C.3       3 UNK        -0.1800 
     59 N          -0.5687  -12.1608  -44.2900 N.am      3 UNK        -0.5000 
     60 C           0.6404  -12.6867  -44.5379 C.2       2 UNK         0.5000 
     61 O           1.2326  -13.4495  -43.7729 O.2       2 UNK        -0.5000 
     62 CA          1.2330  -12.3733  -45.9181 C.3       2 UNK         0.1400 
     63 CB          2.6370  -12.9749  -46.1301 C.3       2 UNK        -0.1800 
     64 N           0.3029  -12.8971  -46.9125 N.am      2 UNK        -0.5000 
     65 C           0.1458  -12.4495  -48.1629 C.2       1 UNK         0.5000 
     66 O           0.8168  -11.5407  -48.6521 O.2       1 UNK        -0.5000 
     67 C          -1.9578  -22.1913  -47.2465 C.2       11 UNK         0.5000 
     68 O          -2.5835  -22.7891  -48.1215 O.2       11 UNK        -0.5000 
     69 N          -2.5468  -21.6088  -46.1933 N.am      12 UNK        -0.5000 
     70 CA         -3.9741  -21.7173  -45.8893 C.3       12 UNK         0.1400 
     71 CB         -4.3707  -20.6746  -44.8345 C.3       12 UNK        -0.1800 
     72 C          -4.3635  -23.1374  -45.4469 C.2       12 UNK         0.5000 
     73 O          -5.3653  -23.6629  -45.9311 O.2       12 UNK        -0.5000 
     74 N          -3.5433  -23.7531  -44.5831 N.am      13 UNK        -0.5000 
     75 CA         -3.7017  -25.1358  -44.1231 C.3       13 UNK         0.1400 
     76 CB         -2.6994  -25.4192  -42.9939 C.3       13 UNK        -0.1800 
     77 C          -3.5550  -26.1672  -45.2592 C.2       13 UNK         0.5000 
     78 O          -4.3068  -27.1415  -45.2992 O.2       13 UNK        -0.5000 
     79 N          -2.6185  -25.9115  -46.1826 N.am      14 UNK        -0.5000 
     80 CA         -2.4013  -26.6926  -47.4030 C.3       14 UNK         0.1400 
     81 CB         -1.0019  -26.3661  -47.9490 C.3       14 UNK        -0.1800 
     82 C          -3.4647  -26.4455  -48.4945 C.2       14 UNK         0.5000 
     83 O          -3.4998  -27.1910  -49.4735 O.2       14 UNK        -0.5000 
     84 N          -4.2781  -25.3916  -48.3274 N.am      15 UNK        -0.5000 
     85 CA         -5.2988  -24.8686  -49.2439 C.3       15 UNK         0.1400 
     86 CB         -6.3896  -25.9174  -49.5392 C.3       15 UNK        -0.1800 
     87 C          -4.7297  -24.2349  -50.5314 C.2       15 UNK         0.5000 
     88 O          -5.5006  -23.8833  -51.4243 O.2       15 UNK        -0.5000 
     89 N          -3.4069  -24.0342  -50.5900 N.am      16 UNK        -0.5000 
     90 CA         -2.6976  -23.3618  -51.6775 C.3       16 UNK         0.1400 
     91 CB         -1.1841  -23.5376  -51.4838 C.3       16 UNK        -0.1800 
     92 C          -3.0576  -21.8707  -51.7710 C.2       16 UNK         0.5000 
     93 O          -3.1996  -21.3518  -52.8787 O.2       16 UNK        -0.5000 
     94 N          -3.2403  -21.2259  -50.6091 N.am      17 UNK        -0.5000 
     95 CA         -3.6957  -19.8385  -50.5074 C.3       17 UNK         0.1400 
     96 CB         -3.4059  -19.2919  -49.1012 C.3       17 UNK        -0.1800 
     97 C          -5.1898  -19.6868  -50.8378 C.2       17 UNK         0.5000 
     98 O          -5.5801  -18.6752  -51.4188 O.2       17 UNK        -0.5000 
     99 N          -5.9911  -20.6978  -50.4722 N.am      18 UNK        -0.5000 
    100 CA        -7.4318  -20.7496  -50.7245 C.3       18 UNK         0.1400 
    101 CB        -8.0652  -21.8528  -49.8620 C.3       18 UNK        -0.1800 
    102 C         -7.7473  -20.9627  -52.2149 C.2       18 UNK         0.5000 
    103 O         -8.6233  -20.2880  -52.7566 O.2       18 UNK        -0.5000 
    104 N         -7.0045  -21.8761  -52.8543 N.am      19 UNK        -0.5000 
    105 CA        -7.0787  -22.1494  -54.2893 C.3       19 UNK         0.1400 
    106 CB        -6.4192  -23.5100  -54.5652 C.3       19 UNK        -0.1800 
    107 C         -6.4107  -21.0592  -55.1492 C.2       19 UNK         0.5000 
    108 O         -6.7297  -20.9565  -56.3341 O.2       19 UNK        -0.5000 
    109 N         -5.4803  -20.2995  -54.5479 N.am      20 UNK        -0.5000 
    110 CA        -4.5561  -19.3512  -55.1805 C.3       20 UNK         0.1400 
    111 CB        -5.3082  -18.1337  -55.7547 C.3       20 UNK        -0.1800 
    112 C         -3.6606  -20.0672  -56.2124 C.2       20 UNK         0.5000 
    113 O         -3.5363  -19.6266  -57.3568 O.2       20 UNK        -0.5000 
    114 N         -3.0823  -21.1960  -55.7775 N.am      21 UNK        -0.5000 
    115 CA        -2.3891  -22.1919  -56.6014 C.3       21 UNK         0.1400 
    116 CB        -1.9829  -23.3693  -55.7013 C.3       21 UNK        -0.1800 
    117 C         -1.1691  -21.6603  -57.3785 C.2       21 UNK         0.5000 
    118 O         -0.8255  -22.2124  -58.4244 O.2       21 UNK        -0.5000 
    119 N         -0.5500  -20.5987  -56.8554 N.am      22 UNK        -0.5000 
    120 CA         0.5609  -19.8623  -57.4703 C.3       22 UNK         0.1400 
    121 C          0.1208  -18.7355  -58.4530 C.2       22 UNK         0.5000 
    122 N         -1.1671  -18.4768  -58.6515 N.am      22 UNK        -0.7600 
    123 O          0.9680  -18.0938  -59.0686 O.2       22 UNK        -0.5000 
    124 C124        1.5628  -19.3678  -56.3946 C.3       23 UNK        -0.0398 
    125 S125        0.8418  -18.2720  -55.1190 S.3       23 UNK        -0.2404 
    126 C126        0.2770  -19.4751  -53.8726 C.3       23 UNK        -0.0205 
    127 H127       -3.3190  -11.3350  -48.5071 H         1 UNK         0.0600 
    128 H128       -3.9831  -11.3787  -46.8783 H         1 UNK         0.0600 
    129 H129       -2.2509  -11.1700  -47.1012 H         1 UNK         0.0600 
    130 H130       -1.9112  -14.7814  -48.1288 H         1 UNK         0.3000 
    131 H131       -1.4587  -12.3092  -49.5601 H         1 UNK         0.0600 
    132 H132        0.4175  -13.5874  -50.6190 H         1 UNK         0.0800 
    133 H133        0.1298  -14.9261  -49.5432 H         1 UNK         0.0800 
    134 H134       -2.9145  -16.6939  -51.0494 H         1 UNK         0.0800 
    135 H135       -2.1702  -16.3124  -49.5223 H         1 UNK         0.0800 
    136 H136       -1.5017  -17.6231  -52.9526 H         1 UNK         0.1150 
    137 H137        1.8791  -19.9550  -51.7234 H         1 UNK         0.1150 
    138 H138       -0.0511  -17.3476  -48.9258 H         1 UNK         0.1150 
    139 H139        1.8849  -18.5601  -48.2274 H         1 UNK         0.0800 
    140 H140        3.0115  -19.0259  -49.4782 H         1 UNK         0.0800 
    141 H141       -0.6067  -20.8398  -49.1221 H         1 UNK         0.0800 
    142 H142       -0.2198  -19.9604  -47.6563 H         1 UNK         0.0800 
    143 H143       -0.1047  -23.0009  -47.8989 H         1 UNK         0.0600 
    144 H144        0.7819  -21.3209  -45.7909 H         1 UNK         0.3000 
    145 H145        0.5007  -23.8159  -43.1910 H         1 UNK         0.0600 
    146 H146        2.8510  -23.0651  -42.9380 H         1 UNK         0.0600 
    147 H147        2.6825  -24.0943  -44.3530 H         1 UNK         0.0600 
    148 H148        2.8263  -22.3530  -44.5486 H         1 UNK         0.0600 
    149 H149        1.2560  -21.0859  -43.0346 H         1 UNK         0.3000 
    150 H150       -2.0174  -19.7345  -42.4217 H         1 UNK         0.0600 
    151 H151        0.4795  -20.0824  -40.6779 H         1 UNK         0.0600 
    152 H152       -1.1607  -20.5332  -40.2385 H         1 UNK         0.0600 
    153 H153       -0.7537  -18.8401  -40.4734 H         1 UNK         0.0600 
    154 H154        0.5727  -18.5310  -42.6703 H         1 UNK         0.3000 
    155 H155        0.4469  -17.9477  -46.1835 H         1 UNK         0.0600 
    156 H156        0.1779  -16.0043  -43.8347 H         1 UNK         0.0600 
    157 H157       -0.9272  -16.1091  -45.2011 H         1 UNK         0.0600 
    158 H158        0.7390  -15.6151  -45.4614 H         1 UNK         0.0600 
    159 H159        2.3080  -17.2329  -44.1112 H         1 UNK         0.3000 
    160 H160        4.3253  -20.1958  -44.4242 H         1 UNK         0.0600 
    161 H161        4.7743  -17.2718  -45.2407 H         1 UNK         0.0600 
    162 H162        4.9694  -18.6642  -46.2990 H         1 UNK         0.0600 
    163 H163        6.0297  -18.4665  -44.9128 H         1 UNK         0.0600 
    164 H164        4.6804  -17.8864  -42.8283 H         1 UNK         0.3000 
    165 H165        2.6092  -18.6242  -40.1080 H         1 UNK         0.0600 
    166 H166        4.6787  -18.8218  -38.7508 H         1 UNK         0.0600 
    167 H167        5.6221  -19.1932  -40.1949 H         1 UNK         0.0600 
    168 H168        4.3869  -20.3126  -39.6316 H         1 UNK         0.0600 
    169 H169        4.8346  -16.8566  -40.3904 H         1 UNK         0.3000 
    170 H170        4.4529  -14.6284  -40.5696 H         1 UNK         0.0600 
    171 H171        5.2224  -15.3407  -42.8336 H         1 UNK         0.0600 
    172 H172        3.7160  -14.7798  -43.5499 H         1 UNK         0.0600 
    173 H173        4.8404  -13.6270  -42.8348 H         1 UNK         0.0600 
    174 H174        2.2971  -13.4321  -42.1282 H         1 UNK         0.3000 
    175 H175        0.3552  -12.4441  -39.3233 H         1 UNK         0.0600 
    176 H176        2.1847  -10.6407  -41.0185 H         1 UNK         0.0600 
    177 H177        0.7842  -10.1129  -40.0870 H         1 UNK         0.0600 
    178 H178        2.2087  -10.7121  -39.2602 H         1 UNK         0.0600 
    179 H179        0.6396  -13.1957  -42.0455 H         1 UNK         0.3000 
    180 H180       -1.5505  -13.5223  -43.0667 H         1 UNK         0.0600 
    181 H181       -3.5420  -12.0764  -42.6450 H         1 UNK         0.0600 
    182 H182       -3.2598  -12.3124  -44.3593 H         1 UNK         0.0600 
    183 H183       -2.8144  -10.7859  -43.5959 H         1 UNK         0.0600 
    184 H184       -0.9482  -11.5262  -44.9765 H         1 UNK         0.3000 
    185 H185        1.2973  -11.2870  -46.0078 H         1 UNK         0.0600 
    186 H186        3.3346  -12.6142  -45.3733 H         1 UNK         0.0600 
    187 H187        2.6226  -14.0638  -46.0722 H         1 UNK         0.0600 
    188 H188        3.0428  -12.6981  -47.1030 H         1 UNK         0.0600 
    189 H189       -0.3160  -13.6257  -46.5847 H         1 UNK         0.3000 
    190 H190       -1.9867  -21.0482  -45.5593 H         1 UNK         0.3000 
    191 H191       -4.5355  -21.4983  -46.7992 H         1 UNK         0.0600 
    192 H192       -5.4374  -20.7291  -44.6142 H         1 UNK         0.0600 
    193 H193       -4.1623  -19.6636  -45.1849 H         1 UNK         0.0600 
    194 H194       -3.8344  -20.8202  -43.8973 H         1 UNK         0.0600 
    195 H195       -2.7616  -23.2319  -44.1951 H         1 UNK         0.3000 
    196 H196       -4.7093  -25.2360  -43.7144 H         1 UNK         0.0600 
    197 H197       -1.6688  -25.3126  -43.3329 H         1 UNK         0.0600 
    198 H198       -2.8469  -24.7371  -42.1564 H         1 UNK         0.0600 
    199 H199       -2.8170  -26.4342  -42.6125 H         1 UNK         0.0600 
    200 H200       -1.9815  -25.1354  -46.0225 H         1 UNK         0.3000 
    201 H201       -2.4319  -27.7536  -47.1472 H         1 UNK         0.0600 
    202 H202       -0.9162  -25.3157  -48.2289 H         1 UNK         0.0600 
    203 H203       -0.7753  -26.9616  -48.8342 H         1 UNK         0.0600 
    204 H204       -0.2300  -26.5790  -47.2091 H         1 UNK         0.0600 
    205 H205       -4.1546  -24.8465  -47.4839 H         1 UNK         0.3000 
    206 H206       -5.7773  -24.0502  -48.7046 H         1 UNK         0.0600 
    207 H207       -6.7865  -26.3430  -48.6175 H         1 UNK         0.0600 
    208 H208       -7.2271  -25.4695  -50.0752 H         1 UNK         0.0600 
    209 H209       -6.0134  -26.7351  -50.1541 H         1 UNK         0.0600 
    210 H210       -2.8680  -24.2528  -49.7631 H         1 UNK         0.3000 
    211 H211       -2.9858  -23.8367  -52.6174 H         1 UNK         0.0600 
    212 H212       -0.6282  -23.0533  -52.2878 H         1 UNK         0.0600 
    213 H213       -0.9071  -24.5919  -51.4859 H         1 UNK         0.0600 
    214 H214       -0.8435  -23.1041  -50.5426 H         1 UNK         0.0600 
    215 H215       -3.1035  -21.7415  -49.7459 H         1 UNK         0.3000 
    216 H216       -3.1382  -19.2406  -51.2299 H         1 UNK         0.0600 
    217 H217       -3.8894  -19.8874  -48.3288 H         1 UNK         0.0600 
    218 H218       -3.7717  -18.2699  -48.9962 H         1 UNK         0.0600 
    219 H219       -2.3382  -19.2704  -48.8937 H         1 UNK         0.0600 
    220 H220       -5.5782  -21.5003  -50.0241 H         1 UNK         0.3000 
    221 H221       -7.8653  -19.7935  -50.4229 H         1 UNK         0.0600 
    222 H222       -7.8705  -21.6872  -48.8022 H         1 UNK         0.0600 
    223 H223       -7.6870  -22.8413  -50.1226 H         1 UNK         0.0600 
    224 H224       -9.1477  -21.8736  -49.9936 H         1 UNK         0.0600 
    225 H225       -6.3538  -22.4470  -52.3204 H         1 UNK         0.3000 
    226 H226       -8.1293  -22.2098  -54.5811 H         1 UNK         0.0600 
    227 H227       -5.3641  -23.5076  -54.2875 H         1 UNK         0.0600 
    228 H228       -6.9097  -24.3069  -54.0057 H         1 UNK         0.0600 
    229 H229       -6.4804  -23.7693  -55.6229 H         1 UNK         0.0600 
    230 H230       -5.2811  -20.5035  -53.5783 H         1 UNK         0.3000 
    231 H231       -3.8946  -18.9893  -54.3917 H         1 UNK         0.0600 
    232 H232       -5.9569  -18.4082  -56.5868 H         1 UNK         0.0600 
    233 H233       -4.6074  -17.3832  -56.1220 H         1 UNK         0.0600 
    234 H234       -5.9241  -17.6579  -54.9915 H         1 UNK         0.0600 
    235 H235       -3.2056  -21.4306  -54.7960 H         1 UNK         0.3000 
    236 H236       -3.1059  -22.5567  -57.3397 H         1 UNK         0.0600 
    237 H237       -2.8550  -23.8269  -55.2338 H         1 UNK         0.0600 
    238 H238       -1.4779  -24.1473  -56.2754 H         1 UNK         0.0600 
    239 H239       -1.3046  -23.0518  -54.9083 H         1 UNK         0.0600 
    240 H240       -0.9312  -20.1935  -56.0150 H         1 UNK         0.3000 
    241 H241        1.1150  -20.5649  -58.0955 H         1 UNK         0.0600 
    242 H242       -1.4264  -17.7496  -59.2987 H         1 UNK         0.3800 
    243 H243       -1.8964  -18.9938  -58.1692 H         1 UNK         0.3800 
    244 H244        2.3906  -18.8358  -56.8664 H         1 UNK         0.0800 
    245 H245        2.0243  -20.2267  -55.9063 H         1 UNK         0.0800 
    246 H246       -0.7091  -19.8544  -54.1426 H         1 UNK         0.0800 
    247 H247        0.9445  -20.3379  -53.8561 H         1 UNK         0.0800 
@<TRIPOS>BOND
     1    1    2 1    
     2    1  127 1    
     3    1  128 1    
     4    1  129 1    
     5    2    3 2    
     6    2    4 am   BACKBONE|DICT|INTERRES
     7    4    5 1    
     8    4  130 1    
     9    5    6 1    
    10    5   65 1    
    11    5  131 1    
    12    6    7 1    
    13    6  132 1    
    14    6  133 1    
    15    7    8 1    
    16    8    9 1    
    17    8  134 1    
    18    8  135 1    
    19    9   10 ar   
    20    9   14 ar   
    21   10   11 ar   
    22   10  136 1    
    23   11   12 ar   
    24   11  126 1    
    25   12   13 ar   
    26   12  137 1    
    27   13   14 ar   
    28   13   15 1    
    29   14  138 1    
    30   15   16 1    
    31   15  139 1    
    32   15  140 1    
    33   16   17 1    
    34   17   18 1    
    35   17  141 1    
    36   17  142 1    
    37   18   19 1    
    38   18   67 1    
    39   18  143 1    
    40   19   20 am   BACKBONE|DICT|INTERRES
    41   19  144 1    
    42   20   21 2    
    43   20   22 1    
    44   22   23 1    
    45   22   24 1    
    46   22  145 1    
    47   23  146 1    
    48   23  147 1    
    49   23  148 1    
    50   24   25 am   BACKBONE|DICT|INTERRES
    51   24  149 1    
    52   25   26 2    
    53   25   27 1    
    54   27   28 1    
    55   27   29 1    
    56   27  150 1    
    57   28  151 1    
    58   28  152 1    
    59   28  153 1    
    60   29   30 am   BACKBONE|DICT|INTERRES
    61   29  154 1    
    62   30   31 2    
    63   30   32 1    
    64   32   33 1    
    65   32   34 1    
    66   32  155 1    
    67   33  156 1    
    68   33  157 1    
    69   33  158 1    
    70   34   35 am   BACKBONE|DICT|INTERRES
    71   34  159 1    
    72   35   36 2    
    73   35   37 1    
    74   37   38 1    
    75   37   39 1    
    76   37  160 1    
    77   38  161 1    
    78   38  162 1    
    79   38  163 1    
    80   39   40 am   BACKBONE|DICT|INTERRES
    81   39  164 1    
    82   40   41 2    
    83   40   42 1    
    84   42   43 1    
    85   42   44 1    
    86   42  165 1    
    87   43  166 1    
    88   43  167 1    
    89   43  168 1    
    90   44   45 am   BACKBONE|DICT|INTERRES
    91   44  169 1    
    92   45   46 2    
    93   45   47 1    
    94   47   48 1    
    95   47   49 1    
    96   47  170 1    
    97   48  171 1    
    98   48  172 1    
    99   48  173 1    
   100   49   50 am   BACKBONE|DICT|INTERRES
   101   49  174 1    
   102   50   51 2    
   103   50   52 1    
   104   52   53 1    
   105   52   54 1    
   106   52  175 1    
   107   53  176 1    
   108   53  177 1    
   109   53  178 1    
   110   54   55 am   BACKBONE|DICT|INTERRES
   111   54  179 1    
   112   55   56 2    
   113   55   57 1    
   114   57   58 1    
   115   57   59 1    
   116   57  180 1    
   117   58  181 1    
   118   58  182 1    
   119   58  183 1    
   120   59   60 am   BACKBONE|DICT|INTERRES
   121   59  184 1    
   122   60   61 2    
   123   60   62 1    
   124   62   63 1    
   125   62   64 1    
   126   62  185 1    
   127   63  186 1    
   128   63  187 1    
   129   63  188 1    
   130   64   65 am   BACKBONE|DICT|INTERRES
   131   64  189 1    
   132   65   66 2    
   133   67   68 2    
   134   67   69 am   BACKBONE|DICT|INTERRES
   135   69   70 1    
   136   69  190 1    
   137   70   71 1    
   138   70   72 1    
   139   70  191 1    
   140   71  192 1    
   141   71  193 1    
   142   71  194 1    
   143   72   73 2    
   144   72   74 am   BACKBONE|DICT|INTERRES
   145   74   75 1    
   146   74  195 1    
   147   75   76 1    
   148   75   77 1    
   149   75  196 1    
   150   76  197 1    
   151   76  198 1    
   152   76  199 1    
   153   77   78 2    
   154   77   79 am   BACKBONE|DICT|INTERRES
   155   79   80 1    
   156   79  200 1    
   157   80   81 1    
   158   80   82 1    
   159   80  201 1    
   160   81  202 1    
   161   81  203 1    
   162   81  204 1    
   163   82   83 2    
   164   82   84 am   BACKBONE|DICT|INTERRES
   165   84   85 1    
   166   84  205 1    
   167   85   86 1    
   168   85   87 1    
   169   85  206 1    
   170   86  207 1    
   171   86  208 1    
   172   86  209 1    
   173   87   88 2    
   174   87   89 am   BACKBONE|DICT|INTERRES
   175   89   90 1    
   176   89  210 1    
   177   90   91 1    
   178   90   92 1    
   179   90  211 1    
   180   91  212 1    
   181   91  213 1    
   182   91  214 1    
   183   92   93 2    
   184   92   94 am   BACKBONE|DICT|INTERRES
   185   94   95 1    
   186   94  215 1    
   187   95   96 1    
   188   95   97 1    
   189   95  216 1    
   190   96  217 1    
   191   96  218 1    
   192   96  219 1    
   193   97   98 2    
   194   97   99 am   BACKBONE|DICT|INTERRES
   195   99  100 1    
   196   99  220 1    
   197  100  101 1    
   198  100  102 1    
   199  100  221 1    
   200  101  222 1    
   201  101  223 1    
   202  101  224 1    
   203  102  103 2    
   204  102  104 am   BACKBONE|DICT|INTERRES
   205  104  105 1    
   206  104  225 1    
   207  105  106 1    
   208  105  107 1    
   209  105  226 1    
   210  106  227 1    
   211  106  228 1    
   212  106  229 1    
   213  107  108 2    
   214  107  109 am   BACKBONE|DICT|INTERRES
   215  109  110 1    
   216  109  230 1    
   217  110  111 1    
   218  110  112 1    
   219  110  231 1    
   220  111  232 1    
   221  111  233 1    
   222  111  234 1    
   223  112  113 2    
   224  112  114 am   BACKBONE|DICT|INTERRES
   225  114  115 1    
   226  114  235 1    
   227  115  116 1    
   228  115  117 1    
   229  115  236 1    
   230  116  237 1    
   231  116  238 1    
   232  116  239 1    
   233  117  118 2    
   234  117  119 am   BACKBONE|DICT|INTERRES
   235  119  120 1    
   236  119  240 1    
   237  120  121 1    
   238  120  124 1    
   239  120  241 1    
   240  121  122 am   BACKBONE|DICT|INTERRES
   241  121  123 2    
   242  122  242 1    
   243  122  243 1    
   244  124  125 1    
   245  124  244 1    
   246  124  245 1    
   247  125  126 1    
   248  126  246 1    
   249  126  247 1    
@<TRIPOS>SUBSTRUCTURE
     1 UNK         1 GROUP             0       ****    0 ROOT    
