@<TRIPOS>MOLECULE
3R540
247   249    1
SMALL
USER_CHARGES


@<TRIPOS>ATOM
      1 CA          1.7929  -14.3934  -51.3901 C.3       0 UNK        -0.1800 
      2 C           2.4332  -13.9630  -50.0795 C.2       0 UNK         0.5000 
      3 O           3.5016  -13.3505  -50.0935 O.2       0 UNK        -0.5000 
      4 N           1.7872  -14.2750  -48.9491 N.am      1 UNK        -0.5000 
      5 CA          2.1942  -13.8303  -47.6148 C.3       1 UNK         0.1400 
      6 C6          1.5464  -14.6793  -46.4855 C.3       23 UNK        -0.0398 
      7 S7         -0.2839  -14.6224  -46.4048 S.3       23 UNK        -0.2404 
      8 C8         -0.7693  -16.3364  -46.7913 C.3       23 UNK        -0.0205 
      9 C9         -0.4840  -16.7016  -48.2394 C.ar      23 UNK        -0.0193 
     10 C10        -1.3413  -16.2846  -49.2621 C.ar      23 UNK        -0.1150 
     11 C11        -1.0602  -16.5920  -50.5985 C.ar      23 UNK        -0.0193 
     12 C12         0.0795  -17.3462  -50.8998 C.ar      23 UNK        -0.1150 
     13 C13         0.9433  -17.7693  -49.8839 C.ar      23 UNK        -0.0193 
     14 C14         0.6542  -17.4429  -48.5575 C.ar      23 UNK        -0.1150 
     15 C15         2.2192  -18.5248  -50.2228 C.3       23 UNK        -0.0205 
     16 S16         1.9832  -20.3285  -50.2193 S.3       23 UNK        -0.2404 
     17 C17         2.0427  -20.7326  -48.4374 C.3       23 UNK        -0.0398 
     18 CA          0.9389  -21.7350  -48.0305 C.3       11 UNK         0.1400 
     19 N           1.3000  -22.4999  -46.8373 N.am      11 UNK        -0.5000 
     20 C           0.7754  -23.6926  -46.5267 C.2       10 UNK         0.5000 
     21 O          -0.0552  -24.2769  -47.2232 O.2       10 UNK        -0.5000 
     22 CA          1.2318  -24.3151  -45.1950 C.3       10 UNK         0.1400 
     23 CB          2.5887  -25.0159  -45.3580 C.3       10 UNK        -0.1800 
     24 N           1.3185  -23.3281  -44.1168 N.am      10 UNK        -0.5000 
     25 C           0.2562  -22.7040  -43.5908 C.2       9 UNK         0.5000 
     26 O          -0.9021  -22.9070  -43.9544 O.2       9 UNK        -0.5000 
     27 CA          0.5324  -21.6545  -42.5005 C.3       9 UNK         0.1400 
     28 CB          0.6686  -22.3236  -41.1251 C.3       9 UNK        -0.1800 
     29 N           1.7028  -20.8051  -42.7393 N.am      9 UNK        -0.5000 
     30 C           1.9216  -20.0408  -43.8181 C.2       8 UNK         0.5000 
     31 O           1.2413  -20.1029  -44.8416 O.2       8 UNK        -0.5000 
     32 CA          3.0819  -19.0258  -43.7350 C.3       8 UNK         0.1400 
     33 CB          2.9954  -17.9569  -44.8409 C.3       8 UNK        -0.1800 
     34 N           3.1246  -18.3443  -42.4405 N.am      8 UNK        -0.5000 
     35 C           3.6781  -18.8218  -41.3185 C.2       7 UNK         0.5000 
     36 O           4.2199  -19.9246  -41.2422 O.2       7 UNK        -0.5000 
     37 CA          3.5468  -17.9441  -40.0654 C.3       7 UNK         0.1400 
     38 CB          4.4835  -16.7281  -40.1433 C.3       7 UNK        -0.1800 
     39 N           2.1659  -17.4927  -39.9008 N.am      7 UNK        -0.5000 
     40 C           1.2119  -18.1908  -39.2678 C.2       6 UNK         0.5000 
     41 O           1.4135  -19.2660  -38.7027 O.2       6 UNK        -0.5000 
     42 CA         -0.2082  -17.5904  -39.2593 C.3       6 UNK         0.1400 
     43 CB         -0.4184  -16.7249  -38.0076 C.3       6 UNK        -0.1800 
     44 N          -0.4917  -16.7863  -40.4483 N.am      6 UNK        -0.5000 
     45 C          -0.6931  -17.2922  -41.6728 C.2       5 UNK         0.5000 
     46 O          -0.7510  -18.4968  -41.9088 O.2       5 UNK        -0.5000 
     47 CA         -0.8272  -16.2880  -42.8338 C.3       5 UNK         0.1400 
     48 CB         -2.3039  -16.0455  -43.1778 C.3       5 UNK        -0.1800 
     49 N          -0.1808  -14.9978  -42.5824 N.am      5 UNK        -0.5000 
     50 C           1.1322  -14.8077  -42.4106 C.2       4 UNK         0.5000 
     51 O           1.9484  -15.7309  -42.4013 O.2       4 UNK        -0.5000 
     52 CA          1.6010  -13.3522  -42.2064 C.3       4 UNK         0.1400 
     53 CB          3.1322  -13.2144  -42.2787 C.3       4 UNK        -0.1800 
     54 N           1.0108  -12.4294  -43.1760 N.am      4 UNK        -0.5000 
     55 C          -0.2158  -11.8928  -43.1343 C.2       3 UNK         0.5000 
     56 O          -1.0455  -12.1901  -42.2739 O.2       3 UNK        -0.5000 
     57 CA         -0.6014  -10.8959  -44.2518 C.3       3 UNK         0.1400 
     58 CB         -1.1224   -9.5638  -43.6766 C.3       3 UNK        -0.1800 
     59 N           0.4514  -10.6714  -45.2539 N.am      3 UNK        -0.5000 
     60 C           1.6458  -10.0785  -45.1065 C.2       2 UNK         0.5000 
     61 O           2.0162   -9.5295  -44.0685 O.2       2 UNK        -0.5000 
     62 CA          2.6151  -10.2202  -46.3009 C.3       2 UNK         0.1400 
     63 CB          4.0050   -9.6233  -46.0148 C.3       2 UNK        -0.1800 
     64 N           2.7762  -11.6300  -46.6778 N.am      2 UNK        -0.5000 
     65 C           1.9174  -12.3211  -47.4385 C.2       1 UNK         0.5000 
     66 O           0.9104  -11.8145  -47.9413 O.2       1 UNK        -0.5000 
     67 C          -0.4475  -21.0786  -47.8739 C.2       11 UNK         0.5000 
     68 O          -1.2011  -21.0430  -48.8408 O.2       11 UNK        -0.5000 
     69 N          -0.7996  -20.6412  -46.6565 N.am      12 UNK        -0.5000 
     70 CA         -2.1277  -20.1336  -46.3083 C.3       12 UNK         0.1400 
     71 CB         -2.1041  -19.5506  -44.8896 C.3       12 UNK        -0.1800 
     72 C          -3.2285  -21.2045  -46.4401 C.2       12 UNK         0.5000 
     73 O          -4.3135  -20.9004  -46.9346 O.2       12 UNK        -0.5000 
     74 N          -2.9249  -22.4484  -46.0422 N.am      13 UNK        -0.5000 
     75 CA         -3.7965  -23.6086  -46.2404 C.3       13 UNK         0.1400 
     76 CB         -3.2455  -24.8104  -45.4593 C.3       13 UNK        -0.1800 
     77 C          -3.9757  -23.9559  -47.7303 C.2       13 UNK         0.5000 
     78 O          -5.0899  -24.2567  -48.1589 O.2       13 UNK        -0.5000 
     79 N          -2.8865  -23.8642  -48.5043 N.am      14 UNK        -0.5000 
     80 CA         -2.8958  -24.0343  -49.9562 C.3       14 UNK         0.1400 
     81 CB         -1.4531  -24.1716  -50.4562 C.3       14 UNK        -0.1800 
     82 C          -3.6475  -22.9003  -50.6839 C.2       14 UNK         0.5000 
     83 O          -4.3479  -23.1678  -51.6578 O.2       14 UNK        -0.5000 
     84 N          -3.5314  -21.6661  -50.1767 N.am      15 UNK        -0.5000 
     85 CA         -4.2660  -20.4857  -50.6310 C.3       15 UNK         0.1400 
     86 CB         -3.6976  -19.2304  -49.9543 C.3       15 UNK        -0.1800 
     87 C          -5.7773  -20.5956  -50.3695 C.2       15 UNK         0.5000 
     88 O          -6.5661  -20.1855  -51.2193 O.2       15 UNK        -0.5000 
     89 N          -6.1625  -21.1888  -49.2301 N.am      16 UNK        -0.5000 
     90 CA         -7.5530  -21.5044  -48.8902 C.3       16 UNK         0.1400 
     91 CB         -7.6434  -21.9235  -47.4153 C.3       16 UNK        -0.1800 
     92 C          -8.1621  -22.5807  -49.8125 C.2       16 UNK         0.5000 
     93 O          -9.3545  -22.5182  -50.1128 O.2       16 UNK        -0.5000 
     94 N          -7.3253  -23.5161  -50.2840 N.am      17 UNK        -0.5000 
     95 CA         -7.6589  -24.5016  -51.3174 C.3       17 UNK         0.1400 
     96 CB         -6.7171  -25.7082  -51.1742 C.3       17 UNK        -0.1800 
     97 C          -7.6008  -23.9239  -52.7506 C.2       17 UNK         0.5000 
     98 O          -7.9983  -24.6112  -53.6925 O.2       17 UNK        -0.5000 
     99 N          -7.1117  -22.6834  -52.8891 N.am      18 UNK        -0.5000 
    100 CA        -6.9109  -21.8879  -54.0997 C.3       18 UNK         0.1400 
    101 CB        -8.2459  -21.5927  -54.8136 C.3       18 UNK        -0.1800 
    102 C         -5.8516  -22.4811  -55.0419 C.2       18 UNK         0.5000 
    103 O         -4.7284  -21.9760  -55.0891 O.2       18 UNK        -0.5000 
    104 N         -6.2283  -23.5329  -55.7791 N.am      19 UNK        -0.5000 
    105 CA        -5.4637  -24.1416  -56.8717 C.3       19 UNK         0.1400 
    106 CB        -6.3404  -25.2063  -57.5488 C.3       19 UNK        -0.1800 
    107 C         -4.1058  -24.7435  -56.4616 C.2       19 UNK         0.5000 
    108 O         -3.2467  -24.9365  -57.3228 O.2       19 UNK        -0.5000 
    109 N         -3.9311  -25.0250  -55.1649 N.am      20 UNK        -0.5000 
    110 CA        -2.6857  -25.5206  -54.5850 C.3       20 UNK         0.1400 
    111 CB        -3.0010  -26.1925  -53.2402 C.3       20 UNK        -0.1800 
    112 C         -1.6011  -24.4327  -54.4299 C.2       20 UNK         0.5000 
    113 O         -0.4356  -24.7881  -54.2486 O.2       20 UNK        -0.5000 
    114 N         -1.9751  -23.1470  -54.5009 N.am      21 UNK        -0.5000 
    115 CA        -1.0562  -22.0147  -54.4124 C.3       21 UNK         0.1400 
    116 CB        -0.7727  -21.6544  -52.9371 C.3       21 UNK        -0.1800 
    117 C         -1.5711  -20.8457  -55.2688 C.2       21 UNK         0.5000 
    118 O         -1.6623  -20.9860  -56.4891 O.2       21 UNK        -0.5000 
    119 N         -1.8448  -19.7048  -54.6279 N.am      22 UNK        -0.5000 
    120 CA        -2.1456  -18.4051  -55.2467 C.3       22 UNK         0.1400 
    121 C         -3.5456  -18.2498  -55.9149 C.2       22 UNK         0.5000 
    122 N         -4.4231  -19.2432  -55.9005 N.am      22 UNK        -0.7600 
    123 O         -3.8386  -17.2005  -56.4823 O.2       22 UNK        -0.5000 
    124 C124       -1.8249  -17.2463  -54.2653 C.3       23 UNK        -0.0398 
    125 S125       -2.7593  -17.3379  -52.6976 S.3       23 UNK        -0.2404 
    126 C126       -1.9472  -16.0402  -51.7108 C.3       23 UNK        -0.0205 
    127 H127        2.1739  -15.3679  -51.6951 H         1 UNK         0.0600 
    128 H128        0.7097  -14.4538  -51.2953 H         1 UNK         0.0600 
    129 H129        2.0183  -13.6752  -52.1785 H         1 UNK         0.0600 
    130 H130        0.9028  -14.7630  -48.9926 H         1 UNK         0.3000 
    131 H131        3.2744  -13.9754  -47.5413 H         1 UNK         0.0600 
    132 H132        1.9296  -14.3612  -45.5147 H         1 UNK         0.0800 
    133 H133        1.8702  -15.7142  -46.5874 H         1 UNK         0.0800 
    134 H134       -0.2559  -17.0218  -46.1159 H         1 UNK         0.0800 
    135 H135       -1.8352  -16.4554  -46.5922 H         1 UNK         0.0800 
    136 H136       -2.2132  -15.6950  -49.0155 H         1 UNK         0.1150 
    137 H137        0.3117  -17.5792  -51.9286 H         1 UNK         0.1150 
    138 H138        1.3266  -17.7447  -47.7688 H         1 UNK         0.1150 
    139 H139        2.5676  -18.2240  -51.2120 H         1 UNK         0.0800 
    140 H140        3.0181  -18.2549  -49.5303 H         1 UNK         0.0800 
    141 H141        2.0090  -19.8380  -47.8180 H         1 UNK         0.0800 
    142 H142        3.0241  -21.1736  -48.2581 H         1 UNK         0.0800 
    143 H143        0.8524  -22.4588  -48.8439 H         1 UNK         0.0600 
    144 H144        1.9141  -22.0494  -46.1743 H         1 UNK         0.3000 
    145 H145        0.4926  -25.0670  -44.9100 H         1 UNK         0.0600 
    146 H146        2.8808  -25.5269  -44.4404 H         1 UNK         0.0600 
    147 H147        2.5468  -25.7672  -46.1478 H         1 UNK         0.0600 
    148 H148        3.3801  -24.3113  -45.6166 H         1 UNK         0.0600 
    149 H149        2.2377  -23.1007  -43.7672 H         1 UNK         0.3000 
    150 H150       -0.3382  -20.9995  -42.4657 H         1 UNK         0.0600 
    151 H151       -0.1965  -22.9514  -40.9073 H         1 UNK         0.0600 
    152 H152        0.7356  -21.5790  -40.3314 H         1 UNK         0.0600 
    153 H153        1.5565  -22.9545  -41.0700 H         1 UNK         0.0600 
    154 H154        2.3474  -20.7014  -41.9660 H         1 UNK         0.3000 
    155 H155        4.0102  -19.5827  -43.8764 H         1 UNK         0.0600 
    156 H156        2.0619  -17.3964  -44.7781 H         1 UNK         0.0600 
    157 H157        3.0452  -18.4081  -45.8325 H         1 UNK         0.0600 
    158 H158        3.8175  -17.2448  -44.7678 H         1 UNK         0.0600 
    159 H159        2.6789  -17.4300  -42.4083 H         1 UNK         0.3000 
    160 H160        3.8431  -18.5391  -39.1987 H         1 UNK         0.0600 
    161 H161        4.3987  -16.1077  -39.2510 H         1 UNK         0.0600 
    162 H162        4.2677  -16.1015  -41.0087 H         1 UNK         0.0600 
    163 H163        5.5241  -17.0448  -40.2217 H         1 UNK         0.0600 
    164 H164        1.9058  -16.6519  -40.3981 H         1 UNK         0.3000 
    165 H165       -0.9189  -18.4191  -39.2245 H         1 UNK         0.0600 
    166 H166       -1.4403  -16.3488  -37.9551 H         1 UNK         0.0600 
    167 H167       -0.2388  -17.3022  -37.0996 H         1 UNK         0.0600 
    168 H168        0.2570  -15.8685  -37.9911 H         1 UNK         0.0600 
    169 H169       -0.4819  -15.7833  -40.3382 H         1 UNK         0.3000 
    170 H170       -0.3404  -16.7368  -43.7013 H         1 UNK         0.0600 
    171 H171       -2.8210  -16.9843  -43.3773 H         1 UNK         0.0600 
    172 H172       -2.8293  -15.5489  -42.3612 H         1 UNK         0.0600 
    173 H173       -2.4038  -15.4245  -44.0682 H         1 UNK         0.0600 
    174 H174       -0.7798  -14.1798  -42.5498 H         1 UNK         0.3000 
    175 H175        1.2859  -13.0526  -41.2049 H         1 UNK         0.0600 
    176 H176        3.5221  -13.5476  -43.2414 H         1 UNK         0.0600 
    177 H177        3.4429  -12.1798  -42.1308 H         1 UNK         0.0600 
    178 H178        3.6166  -13.8079  -41.5029 H         1 UNK         0.0600 
    179 H179        1.6137  -12.1318  -43.9266 H         1 UNK         0.3000 
    180 H180       -1.4253  -11.3635  -44.7930 H         1 UNK         0.0600 
    181 H181       -0.3778   -9.0692  -43.0526 H         1 UNK         0.0600 
    182 H182       -2.0057   -9.7259  -43.0578 H         1 UNK         0.0600 
    183 H183       -1.4070   -8.8748  -44.4718 H         1 UNK         0.0600 
    184 H184        0.2784  -11.1017  -46.1579 H         1 UNK         0.3000 
    185 H185        2.1831   -9.6672  -47.1378 H         1 UNK         0.0600 
    186 H186        3.9323   -8.5639  -45.7652 H         1 UNK         0.0600 
    187 H187        4.4969  -10.1253  -45.1806 H         1 UNK         0.0600 
    188 H188        4.6553   -9.7051  -46.8859 H         1 UNK         0.0600 
    189 H189        3.5814  -12.1014  -46.2908 H         1 UNK         0.3000 
    190 H190       -0.1011  -20.6379  -45.9157 H         1 UNK         0.3000 
    191 H191       -2.3603  -19.3226  -47.0007 H         1 UNK         0.0600 
    192 H192       -1.9002  -20.3167  -44.1422 H         1 UNK         0.0600 
    193 H193       -3.0641  -19.0979  -44.6399 H         1 UNK         0.0600 
    194 H194       -1.3412  -18.7797  -44.7901 H         1 UNK         0.0600 
    195 H195       -2.0415  -22.6133  -45.5697 H         1 UNK         0.3000 
    196 H196       -4.7810  -23.3640  -45.8361 H         1 UNK         0.0600 
    197 H197       -2.2452  -25.0862  -45.7941 H         1 UNK         0.0600 
    198 H198       -3.8867  -25.6839  -45.5829 H         1 UNK         0.0600 
    199 H199       -3.1917  -24.5942  -44.3922 H         1 UNK         0.0600 
    200 H200       -1.9959  -23.6481  -48.0732 H         1 UNK         0.3000 
    201 H201       -3.4162  -24.9684  -50.1762 H         1 UNK         0.0600 
    202 H202       -0.9427  -25.0021  -49.9684 H         1 UNK         0.0600 
    203 H203       -0.8749  -23.2682  -50.2691 H         1 UNK         0.0600 
    204 H204       -1.4285  -24.3615  -51.5274 H         1 UNK         0.0600 
    205 H205       -2.8363  -21.5075  -49.4502 H         1 UNK         0.3000 
    206 H206       -4.1163  -20.3922  -51.7089 H         1 UNK         0.0600 
    207 H207       -2.6352  -19.1123  -50.1683 H         1 UNK         0.0600 
    208 H208       -4.2055  -18.3330  -50.3083 H         1 UNK         0.0600 
    209 H209       -3.8186  -19.2588  -48.8737 H         1 UNK         0.0600 
    210 H210       -5.4549  -21.4273  -48.5428 H         1 UNK         0.3000 
    211 H211       -8.1408  -20.5928  -49.0164 H         1 UNK         0.0600 
    212 H212       -7.0870  -22.8392  -47.2183 H         1 UNK         0.0600 
    213 H213       -8.6794  -22.1021  -47.1248 H         1 UNK         0.0600 
    214 H214       -7.2505  -21.1462  -46.7597 H         1 UNK         0.0600 
    215 H215       -6.3701  -23.5192  -49.9484 H         1 UNK         0.3000 
    216 H216       -8.6799  -24.8512  -51.1518 H         1 UNK         0.0600 
    217 H217       -6.9738  -26.4927  -51.8871 H         1 UNK         0.0600 
    218 H218       -6.7817  -26.1423  -50.1763 H         1 UNK         0.0600 
    219 H219       -5.6780  -25.4340  -51.3513 H         1 UNK         0.0600 
    220 H220       -6.7860  -22.2305  -52.0455 H         1 UNK         0.3000 
    221 H221       -6.5124  -20.9293  -53.7654 H         1 UNK         0.0600 
    222 H222       -8.7541  -22.4981  -55.1452 H         1 UNK         0.0600 
    223 H223       -8.9270  -21.0540  -54.1547 H         1 UNK         0.0600 
    224 H224       -8.0854  -20.9682  -55.6933 H         1 UNK         0.0600 
    225 H225       -7.1363  -23.9354  -55.5809 H         1 UNK         0.3000 
    226 H226       -5.2555  -23.3558  -57.6006 H         1 UNK         0.0600 
    227 H227       -7.2617  -24.7711  -57.9365 H         1 UNK         0.0600 
    228 H228       -5.8210  -25.6661  -58.3907 H         1 UNK         0.0600 
    229 H229       -6.6107  -26.0027  -56.8542 H         1 UNK         0.0600 
    230 H230       -4.6832  -24.8150  -54.5248 H         1 UNK         0.3000 
    231 H231       -2.2760  -26.2851  -55.2486 H         1 UNK         0.0600 
    232 H232       -3.6679  -27.0444  -53.3733 H         1 UNK         0.0600 
    233 H233       -3.4810  -25.5001  -52.5516 H         1 UNK         0.0600 
    234 H234       -2.0940  -26.5626  -52.7605 H         1 UNK         0.0600 
    235 H235       -2.9458  -22.9155  -54.6907 H         1 UNK         0.3000 
    236 H236       -0.1047  -22.2978  -54.8673 H         1 UNK         0.0600 
    237 H237       -0.1193  -20.7848  -52.8534 H         1 UNK         0.0600 
    238 H238       -1.6878  -21.4411  -52.3856 H         1 UNK         0.0600 
    239 H239       -0.2572  -22.4705  -52.4340 H         1 UNK         0.0600 
    240 H240       -1.7844  -19.6928  -53.6203 H         1 UNK         0.3000 
    241 H241       -1.4454  -18.2999  -56.0776 H         1 UNK         0.0600 
    242 H242       -5.3115  -19.1083  -56.3539 H         1 UNK         0.3800 
    243 H243       -4.2044  -20.1456  -55.4915 H         1 UNK         0.3800 
    244 H244       -0.7596  -17.2587  -54.0331 H         1 UNK         0.0800 
    245 H245       -2.0113  -16.2774  -54.7317 H         1 UNK         0.0800 
    246 H246       -1.3527  -15.3933  -52.3567 H         1 UNK         0.0800 
    247 H247       -2.7271  -15.4040  -51.2899 H         1 UNK         0.0800 
@<TRIPOS>BOND
     1    1    2 1    
     2    1  127 1    
     3    1  128 1    
     4    1  129 1    
     5    2    3 2    
     6    2    4 am   BACKBONE|DICT|INTERRES
     7    4    5 1    
     8    4  130 1    
     9    5    6 1    
    10    5   65 1    
    11    5  131 1    
    12    6    7 1    
    13    6  132 1    
    14    6  133 1    
    15    7    8 1    
    16    8    9 1    
    17    8  134 1    
    18    8  135 1    
    19    9   10 ar   
    20    9   14 ar   
    21   10   11 ar   
    22   10  136 1    
    23   11   12 ar   
    24   11  126 1    
    25   12   13 ar   
    26   12  137 1    
    27   13   14 ar   
    28   13   15 1    
    29   14  138 1    
    30   15   16 1    
    31   15  139 1    
    32   15  140 1    
    33   16   17 1    
    34   17   18 1    
    35   17  141 1    
    36   17  142 1    
    37   18   19 1    
    38   18   67 1    
    39   18  143 1    
    40   19   20 am   BACKBONE|DICT|INTERRES
    41   19  144 1    
    42   20   21 2    
    43   20   22 1    
    44   22   23 1    
    45   22   24 1    
    46   22  145 1    
    47   23  146 1    
    48   23  147 1    
    49   23  148 1    
    50   24   25 am   BACKBONE|DICT|INTERRES
    51   24  149 1    
    52   25   26 2    
    53   25   27 1    
    54   27   28 1    
    55   27   29 1    
    56   27  150 1    
    57   28  151 1    
    58   28  152 1    
    59   28  153 1    
    60   29   30 am   BACKBONE|DICT|INTERRES
    61   29  154 1    
    62   30   31 2    
    63   30   32 1    
    64   32   33 1    
    65   32   34 1    
    66   32  155 1    
    67   33  156 1    
    68   33  157 1    
    69   33  158 1    
    70   34   35 am   BACKBONE|DICT|INTERRES
    71   34  159 1    
    72   35   36 2    
    73   35   37 1    
    74   37   38 1    
    75   37   39 1    
    76   37  160 1    
    77   38  161 1    
    78   38  162 1    
    79   38  163 1    
    80   39   40 am   BACKBONE|DICT|INTERRES
    81   39  164 1    
    82   40   41 2    
    83   40   42 1    
    84   42   43 1    
    85   42   44 1    
    86   42  165 1    
    87   43  166 1    
    88   43  167 1    
    89   43  168 1    
    90   44   45 am   BACKBONE|DICT|INTERRES
    91   44  169 1    
    92   45   46 2    
    93   45   47 1    
    94   47   48 1    
    95   47   49 1    
    96   47  170 1    
    97   48  171 1    
    98   48  172 1    
    99   48  173 1    
   100   49   50 am   BACKBONE|DICT|INTERRES
   101   49  174 1    
   102   50   51 2    
   103   50   52 1    
   104   52   53 1    
   105   52   54 1    
   106   52  175 1    
   107   53  176 1    
   108   53  177 1    
   109   53  178 1    
   110   54   55 am   BACKBONE|DICT|INTERRES
   111   54  179 1    
   112   55   56 2    
   113   55   57 1    
   114   57   58 1    
   115   57   59 1    
   116   57  180 1    
   117   58  181 1    
   118   58  182 1    
   119   58  183 1    
   120   59   60 am   BACKBONE|DICT|INTERRES
   121   59  184 1    
   122   60   61 2    
   123   60   62 1    
   124   62   63 1    
   125   62   64 1    
   126   62  185 1    
   127   63  186 1    
   128   63  187 1    
   129   63  188 1    
   130   64   65 am   BACKBONE|DICT|INTERRES
   131   64  189 1    
   132   65   66 2    
   133   67   68 2    
   134   67   69 am   BACKBONE|DICT|INTERRES
   135   69   70 1    
   136   69  190 1    
   137   70   71 1    
   138   70   72 1    
   139   70  191 1    
   140   71  192 1    
   141   71  193 1    
   142   71  194 1    
   143   72   73 2    
   144   72   74 am   BACKBONE|DICT|INTERRES
   145   74   75 1    
   146   74  195 1    
   147   75   76 1    
   148   75   77 1    
   149   75  196 1    
   150   76  197 1    
   151   76  198 1    
   152   76  199 1    
   153   77   78 2    
   154   77   79 am   BACKBONE|DICT|INTERRES
   155   79   80 1    
   156   79  200 1    
   157   80   81 1    
   158   80   82 1    
   159   80  201 1    
   160   81  202 1    
   161   81  203 1    
   162   81  204 1    
   163   82   83 2    
   164   82   84 am   BACKBONE|DICT|INTERRES
   165   84   85 1    
   166   84  205 1    
   167   85   86 1    
   168   85   87 1    
   169   85  206 1    
   170   86  207 1    
   171   86  208 1    
   172   86  209 1    
   173   87   88 2    
   174   87   89 am   BACKBONE|DICT|INTERRES
   175   89   90 1    
   176   89  210 1    
   177   90   91 1    
   178   90   92 1    
   179   90  211 1    
   180   91  212 1    
   181   91  213 1    
   182   91  214 1    
   183   92   93 2    
   184   92   94 am   BACKBONE|DICT|INTERRES
   185   94   95 1    
   186   94  215 1    
   187   95   96 1    
   188   95   97 1    
   189   95  216 1    
   190   96  217 1    
   191   96  218 1    
   192   96  219 1    
   193   97   98 2    
   194   97   99 am   BACKBONE|DICT|INTERRES
   195   99  100 1    
   196   99  220 1    
   197  100  101 1    
   198  100  102 1    
   199  100  221 1    
   200  101  222 1    
   201  101  223 1    
   202  101  224 1    
   203  102  103 2    
   204  102  104 am   BACKBONE|DICT|INTERRES
   205  104  105 1    
   206  104  225 1    
   207  105  106 1    
   208  105  107 1    
   209  105  226 1    
   210  106  227 1    
   211  106  228 1    
   212  106  229 1    
   213  107  108 2    
   214  107  109 am   BACKBONE|DICT|INTERRES
   215  109  110 1    
   216  109  230 1    
   217  110  111 1    
   218  110  112 1    
   219  110  231 1    
   220  111  232 1    
   221  111  233 1    
   222  111  234 1    
   223  112  113 2    
   224  112  114 am   BACKBONE|DICT|INTERRES
   225  114  115 1    
   226  114  235 1    
   227  115  116 1    
   228  115  117 1    
   229  115  236 1    
   230  116  237 1    
   231  116  238 1    
   232  116  239 1    
   233  117  118 2    
   234  117  119 am   BACKBONE|DICT|INTERRES
   235  119  120 1    
   236  119  240 1    
   237  120  121 1    
   238  120  124 1    
   239  120  241 1    
   240  121  122 am   BACKBONE|DICT|INTERRES
   241  121  123 2    
   242  122  242 1    
   243  122  243 1    
   244  124  125 1    
   245  124  244 1    
   246  124  245 1    
   247  125  126 1    
   248  126  246 1    
   249  126  247 1    
@<TRIPOS>SUBSTRUCTURE
     1 UNK         1 GROUP             0       ****    0 ROOT    
