@<TRIPOS>MOLECULE
3R540
247   249    1
SMALL
USER_CHARGES


@<TRIPOS>ATOM
      1 CA         -2.1357  -13.9412  -48.7107 C.3       0 UNK        -0.1800 
      2 C          -0.8195  -13.3332  -49.1637 C.2       0 UNK         0.5000 
      3 O          -0.7184  -12.1138  -49.3027 O.2       0 UNK        -0.5000 
      4 N           0.1939  -14.1785  -49.3821 N.am      1 UNK        -0.5000 
      5 CA          1.5799  -13.7927  -49.6638 C.3       1 UNK         0.1400 
      6 C6          2.4863  -14.9984  -50.0415 C.3       23 UNK        -0.0398 
      7 S7          2.0679  -16.5877  -49.2296 S.3       23 UNK        -0.2404 
      8 C8          1.3630  -17.4712  -50.6569 C.3       23 UNK        -0.0205 
      9 C9          0.8130  -18.8384  -50.2867 C.ar      23 UNK        -0.0193 
     10 C10        -0.5687  -19.0544  -50.2413 C.ar      23 UNK        -0.1150 
     11 C11        -1.0779  -20.3250  -49.9612 C.ar      23 UNK        -0.0193 
     12 C12        -0.1951  -21.3805  -49.7236 C.ar      23 UNK        -0.1150 
     13 C13         1.1868  -21.1761  -49.7514 C.ar      23 UNK        -0.0193 
     14 C14         1.6861  -19.9029  -50.0391 C.ar      23 UNK        -0.1150 
     15 C15         2.1310  -22.3353  -49.4639 C.3       23 UNK        -0.0205 
     16 S16         2.9462  -22.2213  -47.8347 S.3       23 UNK        -0.2404 
     17 C17         1.5668  -21.8775  -46.6872 C.3       23 UNK        -0.0398 
     18 CA          0.9799  -23.1158  -45.9689 C.3       11 UNK         0.1400 
     19 N           0.2514  -22.7099  -44.7622 N.am      11 UNK        -0.5000 
     20 C          -0.3071  -23.5198  -43.8526 C.2       10 UNK         0.5000 
     21 O          -0.2673  -24.7487  -43.9117 O.2       10 UNK        -0.5000 
     22 CA         -1.0721  -22.8320  -42.7061 C.3       10 UNK         0.1400 
     23 CB         -0.1084  -22.2897  -41.6393 C.3       10 UNK        -0.1800 
     24 N          -1.9198  -21.7469  -43.2034 N.am      10 UNK        -0.5000 
     25 C          -3.0834  -21.9424  -43.8389 C.2       9 UNK         0.5000 
     26 O          -3.6087  -23.0484  -43.9660 O.2       9 UNK        -0.5000 
     27 CA         -3.7722  -20.7101  -44.4592 C.3       9 UNK         0.1400 
     28 CB         -4.7541  -20.0752  -43.4640 C.3       9 UNK        -0.1800 
     29 N          -2.8430  -19.6876  -44.9464 N.am      9 UNK        -0.5000 
     30 C          -1.9539  -19.8763  -45.9318 C.2       8 UNK         0.5000 
     31 O          -1.8407  -20.9342  -46.5460 O.2       8 UNK        -0.5000 
     32 CA         -0.9809  -18.7197  -46.2309 C.3       8 UNK         0.1400 
     33 CB         -1.6533  -17.6359  -47.0854 C.3       8 UNK        -0.1800 
     34 N          -0.4365  -18.1192  -45.0118 N.am      8 UNK        -0.5000 
     35 C           0.2666  -18.7806  -44.0810 C.2       7 UNK         0.5000 
     36 O           0.5837  -19.9643  -44.1754 O.2       7 UNK        -0.5000 
     37 CA          0.6145  -18.0144  -42.7968 C.3       7 UNK         0.1400 
     38 CB          1.8516  -17.1285  -43.0014 C.3       7 UNK        -0.1800 
     39 N          -0.5192  -17.2112  -42.3398 N.am      7 UNK        -0.5000 
     40 C          -1.6216  -17.7280  -41.7768 C.2       6 UNK         0.5000 
     41 O          -1.7627  -18.9258  -41.5290 O.2       6 UNK        -0.5000 
     42 CA         -2.7699  -16.7490  -41.4657 C.3       6 UNK         0.1400 
     43 CB         -2.5752  -16.1102  -40.0826 C.3       6 UNK        -0.1800 
     44 N          -2.9042  -15.6932  -42.4712 N.am      6 UNK        -0.5000 
     45 C          -3.3092  -15.8978  -43.7325 C.2       5 UNK         0.5000 
     46 O          -3.6556  -16.9952  -44.1675 O.2       5 UNK        -0.5000 
     47 CA         -3.2704  -14.6839  -44.6820 C.3       5 UNK         0.1400 
     48 CB         -4.5952  -13.9100  -44.6322 C.3       5 UNK        -0.1800 
     49 N          -2.1589  -13.7636  -44.4228 N.am      5 UNK        -0.5000 
     50 C          -0.8626  -14.0974  -44.4647 C.2       4 UNK         0.5000 
     51 O          -0.4646  -15.2332  -44.7266 O.2       4 UNK        -0.5000 
     52 CA          0.1371  -12.9679  -44.1681 C.3       4 UNK         0.1400 
     53 CB          1.5639  -13.4814  -43.9101 C.3       4 UNK        -0.1800 
     54 N           0.1693  -12.0277  -45.2822 N.am      4 UNK        -0.5000 
     55 C          -0.6288  -10.9590  -45.4115 C.2       3 UNK         0.5000 
     56 O          -1.5242  -10.6946  -44.6068 O.2       3 UNK        -0.5000 
     57 CA         -0.4199  -10.0464  -46.6414 C.3       3 UNK         0.1400 
     58 CB         -0.5317   -8.5488  -46.2880 C.3       3 UNK        -0.1800 
     59 N           0.8107  -10.3275  -47.3915 N.am      3 UNK        -0.5000 
     60 C           2.0836  -10.1746  -46.9881 C.2       2 UNK         0.5000 
     61 O           2.4034   -9.6526  -45.9194 O.2       2 UNK        -0.5000 
     62 CA          3.1815  -10.7270  -47.9297 C.3       2 UNK         0.1400 
     63 CB          4.4313  -11.2058  -47.1612 C.3       2 UNK        -0.1800 
     64 N           2.7037  -11.7766  -48.8431 N.am      2 UNK        -0.5000 
     65 C           2.1588  -12.9554  -48.5037 C.2       1 UNK         0.5000 
     66 O           2.0389  -13.3493  -47.3422 O.2       1 UNK        -0.5000 
     67 C           0.1205  -23.9830  -46.9159 C.2       11 UNK         0.5000 
     68 O           0.6397  -24.9423  -47.4866 O.2       11 UNK        -0.5000 
     69 N          -1.1850  -23.6797  -47.0045 N.am      12 UNK        -0.5000 
     70 CA         -2.2030  -24.3935  -47.7856 C.3       12 UNK         0.1400 
     71 CB         -3.5818  -23.7750  -47.5027 C.3       12 UNK        -0.1800 
     72 C          -2.2670  -25.9131  -47.5314 C.2       12 UNK         0.5000 
     73 O          -2.6376  -26.6624  -48.4357 O.2       12 UNK        -0.5000 
     74 N          -1.9058  -26.3434  -46.3137 N.am      13 UNK        -0.5000 
     75 CA         -1.8352  -27.7505  -45.9230 C.3       13 UNK         0.1400 
     76 CB         -1.8062  -27.8441  -44.3901 C.3       13 UNK        -0.1800 
     77 C          -0.6270  -28.4895  -46.5322 C.2       13 UNK         0.5000 
     78 O          -0.6839  -29.7124  -46.6686 O.2       13 UNK        -0.5000 
     79 N           0.4387  -27.7543  -46.8799 N.am      14 UNK        -0.5000 
     80 CA          1.6397  -28.2931  -47.5137 C.3       14 UNK         0.1400 
     81 CB          2.8676  -27.4719  -47.0867 C.3       14 UNK        -0.1800 
     82 C           1.4942  -28.3145  -49.0432 C.2       14 UNK         0.5000 
     83 O           1.7946  -29.3364  -49.6622 O.2       14 UNK        -0.5000 
     84 N           1.0247  -27.2036  -49.6246 N.am      15 UNK        -0.5000 
     85 CA          0.8125  -27.0327  -51.0602 C.3       15 UNK         0.1400 
     86 CB          2.1637  -26.8603  -51.7820 C.3       15 UNK        -0.1800 
     87 C          -0.0784  -25.8091  -51.3050 C.2       15 UNK         0.5000 
     88 O          -0.1067  -24.8997  -50.4771 O.2       15 UNK        -0.5000 
     89 N          -0.7634  -25.7861  -52.4524 N.am      16 UNK        -0.5000 
     90 CA         -1.5130  -24.6223  -52.9218 C.3       16 UNK         0.1400 
     91 CB         -2.6634  -25.0980  -53.8223 C.3       16 UNK        -0.1800 
     92 C          -0.5901  -23.6565  -53.6879 C.2       16 UNK         0.5000 
     93 O           0.3839  -24.0966  -54.3052 O.2       16 UNK        -0.5000 
     94 N          -0.9397  -22.3679  -53.6683 N.am      17 UNK        -0.5000 
     95 CA         -0.2664  -21.3006  -54.4023 C.3       17 UNK         0.1400 
     96 CB          0.8284  -20.6698  -53.5225 C.3       17 UNK        -0.1800 
     97 C          -1.3363  -20.3166  -54.9031 C.2       17 UNK         0.5000 
     98 O          -2.1559  -20.7090  -55.7349 O.2       17 UNK        -0.5000 
     99 N          -1.3420  -19.0804  -54.3916 N.am      18 UNK        -0.5000 
    100 CA        -2.3134  -18.0386  -54.7135 C.3       18 UNK         0.1400 
    101 CB        -1.8615  -17.2789  -55.9730 C.3       18 UNK        -0.1800 
    102 C         -2.4552  -17.0865  -53.5168 C.2       18 UNK         0.5000 
    103 O         -1.5204  -16.9763  -52.7216 O.2       18 UNK        -0.5000 
    104 N         -3.6106  -16.4108  -53.4462 N.am      19 UNK        -0.5000 
    105 CA        -4.0539  -15.4476  -52.4289 C.3       19 UNK         0.1400 
    106 CB        -3.0203  -14.3229  -52.2164 C.3       19 UNK        -0.1800 
    107 C         -4.4771  -16.0940  -51.0930 C.2       19 UNK         0.5000 
    108 O         -4.0547  -17.2047  -50.7616 O.2       19 UNK        -0.5000 
    109 N         -5.3405  -15.3727  -50.3592 N.am      20 UNK        -0.5000 
    110 CA        -5.9944  -15.7645  -49.1035 C.3       20 UNK         0.1400 
    111 CB        -4.9955  -15.7155  -47.9274 C.3       20 UNK        -0.1800 
    112 C         -6.7360  -17.1092  -49.2453 C.2       20 UNK         0.5000 
    113 O         -7.6473  -17.2062  -50.0697 O.2       20 UNK        -0.5000 
    114 N         -6.3058  -18.1294  -48.4901 N.am      21 UNK        -0.5000 
    115 CA        -6.8106  -19.5052  -48.5342 C.3       21 UNK         0.1400 
    116 CB        -6.0878  -20.3224  -47.4521 C.3       21 UNK        -0.1800 
    117 C         -6.6597  -20.1904  -49.9087 C.2       21 UNK         0.5000 
    118 O         -7.3991  -21.1317  -50.1983 O.2       21 UNK        -0.5000 
    119 N         -5.7219  -19.6968  -50.7239 N.am      22 UNK        -0.5000 
    120 CA        -5.4561  -20.1389  -52.0970 C.3       22 UNK         0.1400 
    121 C         -6.0792  -19.1912  -53.1654 C.2       22 UNK         0.5000 
    122 N         -6.8859  -18.1990  -52.8031 N.am      22 UNK        -0.7600 
    123 O         -5.8358  -19.3607  -54.3562 O.2       22 UNK        -0.5000 
    124 C124       -3.9376  -20.3451  -52.3284 C.3       23 UNK        -0.0398 
    125 S125       -3.2163  -21.5967  -51.2170 S.3       23 UNK        -0.2404 
    126 C126       -2.5763  -20.5580  -49.8643 C.3       23 UNK        -0.0205 
    127 H127       -2.1769  -15.0100  -48.9225 H         1 UNK         0.0600 
    128 H128       -2.9711  -13.4609  -49.2191 H         1 UNK         0.0600 
    129 H129       -2.2591  -13.7956  -47.6379 H         1 UNK         0.0600 
    130 H130        0.0636  -15.1663  -49.2164 H         1 UNK         0.3000 
    131 H131        1.5394  -13.1420  -50.5403 H         1 UNK         0.0600 
    132 H132        2.4371  -15.1407  -51.1218 H         1 UNK         0.0800 
    133 H133        3.5378  -14.7811  -49.8440 H         1 UNK         0.0800 
    134 H134        0.5785  -16.8580  -51.1025 H         1 UNK         0.0800 
    135 H135        2.1303  -17.5918  -51.4231 H         1 UNK         0.0800 
    136 H136       -1.2491  -18.2351  -50.4294 H         1 UNK         0.1150 
    137 H137       -0.5883  -22.3623  -49.5029 H         1 UNK         0.1150 
    138 H138        2.7542  -19.7403  -50.0708 H         1 UNK         0.1150 
    139 H139        1.6000  -23.2844  -49.5179 H         1 UNK         0.0800 
    140 H140        2.8958  -22.3761  -50.2403 H         1 UNK         0.0800 
    141 H141        1.9932  -21.2052  -45.9427 H         1 UNK         0.0800 
    142 H142        0.7816  -21.2980  -47.1681 H         1 UNK         0.0800 
    143 H143        1.8112  -23.7372  -45.6299 H         1 UNK         0.0600 
    144 H144        0.1966  -21.7066  -44.6008 H         1 UNK         0.3000 
    145 H145       -1.7071  -23.5822  -42.2297 H         1 UNK         0.0600 
    146 H146       -0.6539  -21.8340  -40.8127 H         1 UNK         0.0600 
    147 H147        0.5026  -23.0921  -41.2243 H         1 UNK         0.0600 
    148 H148        0.5696  -21.5385  -42.0440 H         1 UNK         0.0600 
    149 H149       -1.5599  -20.8053  -43.1208 H         1 UNK         0.3000 
    150 H150       -4.3437  -21.0685  -45.3164 H         1 UNK         0.0600 
    151 H151       -5.4738  -20.8099  -43.1008 H         1 UNK         0.0600 
    152 H152       -5.3204  -19.2686  -43.9299 H         1 UNK         0.0600 
    153 H153       -4.2366  -19.6640  -42.5970 H         1 UNK         0.0600 
    154 H154       -2.9164  -18.7676  -44.5219 H         1 UNK         0.3000 
    155 H155       -0.1449  -19.1258  -46.8031 H         1 UNK         0.0600 
    156 H156       -0.9391  -16.8656  -47.3775 H         1 UNK         0.0600 
    157 H157       -2.4675  -17.1532  -46.5490 H         1 UNK         0.0600 
    158 H158       -2.0718  -18.0581  -47.9989 H         1 UNK         0.0600 
    159 H159       -0.6063  -17.1264  -44.8735 H         1 UNK         0.3000 
    160 H160        0.8518  -18.7457  -42.0208 H         1 UNK         0.0600 
    161 H161        1.7214  -16.4343  -43.8308 H         1 UNK         0.0600 
    162 H162        2.7275  -17.7380  -43.2268 H         1 UNK         0.0600 
    163 H163        2.0794  -16.5503  -42.1059 H         1 UNK         0.0600 
    164 H164       -0.5046  -16.2303  -42.5770 H         1 UNK         0.3000 
    165 H165       -3.6991  -17.3227  -41.4485 H         1 UNK         0.0600 
    166 H166       -1.6704  -15.5024  -40.0419 H         1 UNK         0.0600 
    167 H167       -3.4202  -15.4736  -39.8197 H         1 UNK         0.0600 
    168 H168       -2.4924  -16.8744  -39.3085 H         1 UNK         0.0600 
    169 H169       -2.6410  -14.7591  -42.1943 H         1 UNK         0.3000 
    170 H170       -3.1424  -15.0693  -45.6940 H         1 UNK         0.0600 
    171 H171       -5.4414  -14.5688  -44.8319 H         1 UNK         0.0600 
    172 H172       -4.7580  -13.4529  -43.6555 H         1 UNK         0.0600 
    173 H173       -4.6172  -13.1189  -45.3820 H         1 UNK         0.0600 
    174 H174       -2.3965  -12.7977  -44.2339 H         1 UNK         0.3000 
    175 H175       -0.1935  -12.4561  -43.2618 H         1 UNK         0.0600 
    176 H176        2.2525  -12.6556  -43.7303 H         1 UNK         0.0600 
    177 H177        1.5910  -14.1224  -43.0289 H         1 UNK         0.0600 
    178 H178        1.9492  -14.0575  -44.7521 H         1 UNK         0.0600 
    179 H179        0.8416  -12.2345  -46.0131 H         1 UNK         0.3000 
    180 H180       -1.2400  -10.2791  -47.3216 H         1 UNK         0.0600 
    181 H181       -0.3802   -7.9231  -47.1675 H         1 UNK         0.0600 
    182 H182       -1.5204   -8.3142  -45.8919 H         1 UNK         0.0600 
    183 H183        0.1970   -8.2520  -45.5335 H         1 UNK         0.0600 
    184 H184        0.6517  -10.7986  -48.2751 H         1 UNK         0.3000 
    185 H185        3.4836   -9.8894  -48.5598 H         1 UNK         0.0600 
    186 H186        5.1896  -11.5918  -47.8423 H         1 UNK         0.0600 
    187 H187        4.8865  -10.3868  -46.6032 H         1 UNK         0.0600 
    188 H188        4.1907  -11.9929  -46.4457 H         1 UNK         0.0600 
    189 H189        2.7335  -11.5305  -49.8233 H         1 UNK         0.3000 
    190 H190       -1.4953  -22.8213  -46.5571 H         1 UNK         0.3000 
    191 H191       -1.9734  -24.2386  -48.8396 H         1 UNK         0.0600 
    192 H192       -4.3422  -24.2055  -48.1553 H         1 UNK         0.0600 
    193 H193       -3.5886  -22.7001  -47.6670 H         1 UNK         0.0600 
    194 H194       -3.8957  -23.9526  -46.4741 H         1 UNK         0.0600 
    195 H195       -1.5916  -25.6653  -45.6310 H         1 UNK         0.3000 
    196 H196       -2.7401  -28.2501  -46.2751 H         1 UNK         0.0600 
    197 H197       -1.8257  -28.8844  -44.0628 H         1 UNK         0.0600 
    198 H198       -2.6690  -27.3471  -43.9462 H         1 UNK         0.0600 
    199 H199       -0.9060  -27.3883  -43.9764 H         1 UNK         0.0600 
    200 H200        0.3859  -26.7425  -46.8114 H         1 UNK         0.3000 
    201 H201        1.7991  -29.3193  -47.1753 H         1 UNK         0.0600 
    202 H202        2.9793  -27.4656  -46.0024 H         1 UNK         0.0600 
    203 H203        2.8065  -26.4365  -47.4224 H         1 UNK         0.0600 
    204 H204        3.7810  -27.8957  -47.5056 H         1 UNK         0.0600 
    205 H205        0.7815  -26.3941  -49.0589 H         1 UNK         0.3000 
    206 H206        0.2984  -27.9145  -51.4482 H         1 UNK         0.0600 
    207 H207        2.7891  -27.7473  -51.6833 H         1 UNK         0.0600 
    208 H208        2.0201  -26.6864  -52.8492 H         1 UNK         0.0600 
    209 H209        2.7212  -26.0112  -51.3842 H         1 UNK         0.0600 
    210 H210       -0.6463  -26.5395  -53.1142 H         1 UNK         0.3000 
    211 H211       -1.9429  -24.1000  -52.0652 H         1 UNK         0.0600 
    212 H212       -2.2951  -25.6232  -54.7045 H         1 UNK         0.0600 
    213 H213       -3.2624  -24.2544  -54.1681 H         1 UNK         0.0600 
    214 H214       -3.3318  -25.7708  -53.2846 H         1 UNK         0.0600 
    215 H215       -1.7610  -22.0901  -53.1470 H         1 UNK         0.3000 
    216 H216        0.2096  -21.7110  -55.2953 H         1 UNK         0.0600 
    217 H217        1.3453  -19.8639  -54.0447 H         1 UNK         0.0600 
    218 H218        1.5798  -21.4077  -53.2410 H         1 UNK         0.0600 
    219 H219        0.4093  -20.2640  -52.6051 H         1 UNK         0.0600 
    220 H220       -0.6845  -18.8252  -53.6648 H         1 UNK         0.3000 
    221 H221       -3.2866  -18.4972  -54.8992 H         1 UNK         0.0600 
    222 H222       -0.8851  -16.8141  -55.8306 H         1 UNK         0.0600 
    223 H223       -1.7933  -17.9446  -56.8336 H         1 UNK         0.0600 
    224 H224       -2.5680  -16.4890  -56.2305 H         1 UNK         0.0600 
    225 H225       -4.3046  -16.6116  -54.1525 H         1 UNK         0.3000 
    226 H226       -4.9494  -14.9901  -52.8524 H         1 UNK         0.0600 
    227 H227       -2.7004  -13.8948  -53.1663 H         1 UNK         0.0600 
    228 H228       -3.4426  -13.5111  -51.6241 H         1 UNK         0.0600 
    229 H229       -2.1326  -14.6777  -51.6927 H         1 UNK         0.0600 
    230 H230       -5.6500  -14.4875  -50.7346 H         1 UNK         0.3000 
    231 H231       -6.7665  -15.0193  -48.9069 H         1 UNK         0.0600 
    232 H232       -5.4609  -16.0263  -46.9911 H         1 UNK         0.0600 
    233 H233       -4.6403  -14.6981  -47.7727 H         1 UNK         0.0600 
    234 H234       -4.1284  -16.3519  -48.1013 H         1 UNK         0.0600 
    235 H235       -5.5366  -17.9585  -47.8600 H         1 UNK         0.3000 
    236 H236       -7.8758  -19.4778  -48.2967 H         1 UNK         0.0600 
    237 H237       -6.2591  -19.9019  -46.4611 H         1 UNK         0.0600 
    238 H238       -6.4447  -21.3530  -47.4330 H         1 UNK         0.0600 
    239 H239       -5.0110  -20.3521  -47.6251 H         1 UNK         0.0600 
    240 H240       -5.1852  -18.8894  -50.4253 H         1 UNK         0.3000 
    241 H241       -5.9381  -21.1041  -52.2608 H         1 UNK         0.0600 
    242 H242       -7.1249  -18.0400  -51.8304 H         1 UNK         0.3800 
    243 H243       -7.2996  -17.6190  -53.5150 H         1 UNK         0.3800 
    244 H244       -3.7609  -20.6817  -53.3500 H         1 UNK         0.0800 
    245 H245       -3.3953  -19.4083  -52.2093 H         1 UNK         0.0800 
    246 H246       -2.7884  -21.0584  -48.9235 H         1 UNK         0.0800 
    247 H247       -3.1113  -19.6095  -49.8195 H         1 UNK         0.0800 
@<TRIPOS>BOND
     1    1    2 1    
     2    1  127 1    
     3    1  128 1    
     4    1  129 1    
     5    2    3 2    
     6    2    4 am   BACKBONE|DICT|INTERRES
     7    4    5 1    
     8    4  130 1    
     9    5    6 1    
    10    5   65 1    
    11    5  131 1    
    12    6    7 1    
    13    6  132 1    
    14    6  133 1    
    15    7    8 1    
    16    8    9 1    
    17    8  134 1    
    18    8  135 1    
    19    9   10 ar   
    20    9   14 ar   
    21   10   11 ar   
    22   10  136 1    
    23   11   12 ar   
    24   11  126 1    
    25   12   13 ar   
    26   12  137 1    
    27   13   14 ar   
    28   13   15 1    
    29   14  138 1    
    30   15   16 1    
    31   15  139 1    
    32   15  140 1    
    33   16   17 1    
    34   17   18 1    
    35   17  141 1    
    36   17  142 1    
    37   18   19 1    
    38   18   67 1    
    39   18  143 1    
    40   19   20 am   BACKBONE|DICT|INTERRES
    41   19  144 1    
    42   20   21 2    
    43   20   22 1    
    44   22   23 1    
    45   22   24 1    
    46   22  145 1    
    47   23  146 1    
    48   23  147 1    
    49   23  148 1    
    50   24   25 am   BACKBONE|DICT|INTERRES
    51   24  149 1    
    52   25   26 2    
    53   25   27 1    
    54   27   28 1    
    55   27   29 1    
    56   27  150 1    
    57   28  151 1    
    58   28  152 1    
    59   28  153 1    
    60   29   30 am   BACKBONE|DICT|INTERRES
    61   29  154 1    
    62   30   31 2    
    63   30   32 1    
    64   32   33 1    
    65   32   34 1    
    66   32  155 1    
    67   33  156 1    
    68   33  157 1    
    69   33  158 1    
    70   34   35 am   BACKBONE|DICT|INTERRES
    71   34  159 1    
    72   35   36 2    
    73   35   37 1    
    74   37   38 1    
    75   37   39 1    
    76   37  160 1    
    77   38  161 1    
    78   38  162 1    
    79   38  163 1    
    80   39   40 am   BACKBONE|DICT|INTERRES
    81   39  164 1    
    82   40   41 2    
    83   40   42 1    
    84   42   43 1    
    85   42   44 1    
    86   42  165 1    
    87   43  166 1    
    88   43  167 1    
    89   43  168 1    
    90   44   45 am   BACKBONE|DICT|INTERRES
    91   44  169 1    
    92   45   46 2    
    93   45   47 1    
    94   47   48 1    
    95   47   49 1    
    96   47  170 1    
    97   48  171 1    
    98   48  172 1    
    99   48  173 1    
   100   49   50 am   BACKBONE|DICT|INTERRES
   101   49  174 1    
   102   50   51 2    
   103   50   52 1    
   104   52   53 1    
   105   52   54 1    
   106   52  175 1    
   107   53  176 1    
   108   53  177 1    
   109   53  178 1    
   110   54   55 am   BACKBONE|DICT|INTERRES
   111   54  179 1    
   112   55   56 2    
   113   55   57 1    
   114   57   58 1    
   115   57   59 1    
   116   57  180 1    
   117   58  181 1    
   118   58  182 1    
   119   58  183 1    
   120   59   60 am   BACKBONE|DICT|INTERRES
   121   59  184 1    
   122   60   61 2    
   123   60   62 1    
   124   62   63 1    
   125   62   64 1    
   126   62  185 1    
   127   63  186 1    
   128   63  187 1    
   129   63  188 1    
   130   64   65 am   BACKBONE|DICT|INTERRES
   131   64  189 1    
   132   65   66 2    
   133   67   68 2    
   134   67   69 am   BACKBONE|DICT|INTERRES
   135   69   70 1    
   136   69  190 1    
   137   70   71 1    
   138   70   72 1    
   139   70  191 1    
   140   71  192 1    
   141   71  193 1    
   142   71  194 1    
   143   72   73 2    
   144   72   74 am   BACKBONE|DICT|INTERRES
   145   74   75 1    
   146   74  195 1    
   147   75   76 1    
   148   75   77 1    
   149   75  196 1    
   150   76  197 1    
   151   76  198 1    
   152   76  199 1    
   153   77   78 2    
   154   77   79 am   BACKBONE|DICT|INTERRES
   155   79   80 1    
   156   79  200 1    
   157   80   81 1    
   158   80   82 1    
   159   80  201 1    
   160   81  202 1    
   161   81  203 1    
   162   81  204 1    
   163   82   83 2    
   164   82   84 am   BACKBONE|DICT|INTERRES
   165   84   85 1    
   166   84  205 1    
   167   85   86 1    
   168   85   87 1    
   169   85  206 1    
   170   86  207 1    
   171   86  208 1    
   172   86  209 1    
   173   87   88 2    
   174   87   89 am   BACKBONE|DICT|INTERRES
   175   89   90 1    
   176   89  210 1    
   177   90   91 1    
   178   90   92 1    
   179   90  211 1    
   180   91  212 1    
   181   91  213 1    
   182   91  214 1    
   183   92   93 2    
   184   92   94 am   BACKBONE|DICT|INTERRES
   185   94   95 1    
   186   94  215 1    
   187   95   96 1    
   188   95   97 1    
   189   95  216 1    
   190   96  217 1    
   191   96  218 1    
   192   96  219 1    
   193   97   98 2    
   194   97   99 am   BACKBONE|DICT|INTERRES
   195   99  100 1    
   196   99  220 1    
   197  100  101 1    
   198  100  102 1    
   199  100  221 1    
   200  101  222 1    
   201  101  223 1    
   202  101  224 1    
   203  102  103 2    
   204  102  104 am   BACKBONE|DICT|INTERRES
   205  104  105 1    
   206  104  225 1    
   207  105  106 1    
   208  105  107 1    
   209  105  226 1    
   210  106  227 1    
   211  106  228 1    
   212  106  229 1    
   213  107  108 2    
   214  107  109 am   BACKBONE|DICT|INTERRES
   215  109  110 1    
   216  109  230 1    
   217  110  111 1    
   218  110  112 1    
   219  110  231 1    
   220  111  232 1    
   221  111  233 1    
   222  111  234 1    
   223  112  113 2    
   224  112  114 am   BACKBONE|DICT|INTERRES
   225  114  115 1    
   226  114  235 1    
   227  115  116 1    
   228  115  117 1    
   229  115  236 1    
   230  116  237 1    
   231  116  238 1    
   232  116  239 1    
   233  117  118 2    
   234  117  119 am   BACKBONE|DICT|INTERRES
   235  119  120 1    
   236  119  240 1    
   237  120  121 1    
   238  120  124 1    
   239  120  241 1    
   240  121  122 am   BACKBONE|DICT|INTERRES
   241  121  123 2    
   242  122  242 1    
   243  122  243 1    
   244  124  125 1    
   245  124  244 1    
   246  124  245 1    
   247  125  126 1    
   248  126  246 1    
   249  126  247 1    
@<TRIPOS>SUBSTRUCTURE
     1 UNK         1 GROUP             0       ****    0 ROOT    
