@<TRIPOS>MOLECULE
3R540
247   249    1
SMALL
USER_CHARGES


@<TRIPOS>ATOM
      1 CA          3.8230  -15.8448  -47.5474 C.3       0 UNK        -0.1800 
      2 C           2.5213  -15.2792  -48.0971 C.2       0 UNK         0.5000 
      3 O           2.5213  -14.1785  -48.6468 O.2       0 UNK        -0.5000 
      4 N           1.4227  -16.0365  -47.9664 N.am      1 UNK        -0.5000 
      5 CA          0.0926  -15.7116  -48.4985 C.3       1 UNK         0.1400 
      6 C6          0.0852  -15.5709  -50.0504 C.3       23 UNK        -0.0398 
      7 S7         -1.4633  -16.1154  -50.8537 S.3       23 UNK        -0.2404 
      8 C8         -1.5068  -17.9057  -50.5132 C.3       23 UNK        -0.0205 
      9 C9         -0.2848  -18.6478  -51.0314 C.ar      23 UNK        -0.0193 
     10 C10        -0.2594  -19.1043  -52.3499 C.ar      23 UNK        -0.1150 
     11 C11         0.8662  -19.7594  -52.8562 C.ar      23 UNK        -0.0193 
     12 C12         1.9743  -19.9585  -52.0265 C.ar      23 UNK        -0.1150 
     13 C13         1.9590  -19.5141  -50.6995 C.ar      23 UNK        -0.0193 
     14 C14         0.8182  -18.8776  -50.2022 C.ar      23 UNK        -0.1150 
     15 C15         3.1969  -19.6744  -49.8278 C.3       23 UNK        -0.0205 
     16 S16         3.2054  -21.2438  -48.9050 S.3       23 UNK        -0.2404 
     17 C17         2.4893  -20.7642  -47.2945 C.3       23 UNK        -0.0398 
     18 CA          1.4029  -21.7566  -46.8136 C.3       11 UNK         0.1400 
     19 N           1.2653  -21.7733  -45.3544 N.am      11 UNK        -0.5000 
     20 C           0.5124  -22.6511  -44.6738 C.2       10 UNK         0.5000 
     21 O          -0.0920  -23.5855  -45.1984 O.2       10 UNK        -0.5000 
     22 CA          0.3550  -22.4124  -43.1627 C.3       10 UNK         0.1400 
     23 CB          1.5544  -22.9818  -42.3914 C.3       10 UNK        -0.1800 
     24 N           0.1732  -20.9966  -42.8398 N.am      10 UNK        -0.5000 
     25 C          -0.8722  -20.2570  -43.2385 C.2       9 UNK         0.5000 
     26 O          -1.8275  -20.7153  -43.8640 O.2       9 UNK        -0.5000 
     27 CA         -0.8219  -18.7494  -42.9326 C.3       9 UNK         0.1400 
     28 CB         -1.2807  -18.4645  -41.4952 C.3       9 UNK        -0.1800 
     29 N           0.5100  -18.1863  -43.1383 N.am      9 UNK        -0.5000 
     30 C           1.1245  -18.0778  -44.3243 C.2       8 UNK         0.5000 
     31 O           0.6241  -18.4079  -45.4019 O.2       8 UNK        -0.5000 
     32 CA          2.5738  -17.5644  -44.2924 C.3       8 UNK         0.1400 
     33 CB          2.6273  -16.0317  -44.2077 C.3       8 UNK        -0.1800 
     34 N           3.3356  -18.1433  -43.1874 N.am      8 UNK        -0.5000 
     35 C           3.6878  -19.4340  -43.1078 C.2       7 UNK         0.5000 
     36 O           3.4319  -20.2667  -43.9775 O.2       7 UNK        -0.5000 
     37 CA          4.4114  -19.8706  -41.8213 C.3       7 UNK         0.1400 
     38 CB          5.9161  -19.5797  -41.9214 C.3       7 UNK        -0.1800 
     39 N           3.8690  -19.2205  -40.6267 N.am      7 UNK        -0.5000 
     40 C           2.6399  -19.4418  -40.1393 C.2       6 UNK         0.5000 
     41 O           1.8452  -20.2418  -40.6289 O.2       6 UNK        -0.5000 
     42 CA          2.2083  -18.5894  -38.9333 C.3       6 UNK         0.1400 
     43 CB          2.6920  -19.2230  -37.6205 C.3       6 UNK        -0.1800 
     44 N           2.6821  -17.2054  -39.0126 N.am      6 UNK        -0.5000 
     45 C           2.3154  -16.3339  -39.9604 C.2       5 UNK         0.5000 
     46 O           1.5551  -16.6097  -40.8918 O.2       5 UNK        -0.5000 
     47 CA          2.9378  -14.9371  -39.8785 C.3       5 UNK         0.1400 
     48 CB          4.2697  -14.8845  -40.6457 C.3       5 UNK        -0.1800 
     49 N           2.0047  -13.9733  -40.4494 N.am      5 UNK        -0.5000 
     50 C           1.8273  -12.7236  -40.0078 C.2       4 UNK         0.5000 
     51 O           2.4894  -12.2254  -39.0960 O.2       4 UNK        -0.5000 
     52 CA          0.7370  -11.8714  -40.6886 C.3       4 UNK         0.1400 
     53 CB          1.3769  -10.8531  -41.6459 C.3       4 UNK        -0.1800 
     54 N          -0.2712  -12.6315  -41.4308 N.am      4 UNK        -0.5000 
     55 C          -1.1799  -13.4678  -40.9087 C.2       3 UNK         0.5000 
     56 O          -1.2326  -13.7501  -39.7113 O.2       3 UNK        -0.5000 
     57 CA         -2.2242  -14.0665  -41.8780 C.3       3 UNK         0.1400 
     58 CB         -3.6498  -13.6779  -41.4523 C.3       3 UNK        -0.1800 
     59 N          -2.0247  -13.6479  -43.2705 N.am      3 UNK        -0.5000 
     60 C          -1.1654  -14.2254  -44.1166 C.2       2 UNK         0.5000 
     61 O          -0.4730  -15.2009  -43.8267 O.2       2 UNK        -0.5000 
     62 CA         -1.0185  -13.5731  -45.4964 C.3       2 UNK         0.1400 
     63 CB         -0.0973  -12.3411  -45.4200 C.3       2 UNK        -0.1800 
     64 N          -0.4552  -14.5549  -46.4145 N.am      2 UNK        -0.5000 
     65 C          -0.5655  -14.5317  -47.7473 C.2       1 UNK         0.5000 
     66 O          -1.1503  -13.6384  -48.3627 O.2       1 UNK        -0.5000 
     67 C           0.0492  -21.5024  -47.5051 C.2       11 UNK         0.5000 
     68 O          -0.3024  -22.2340  -48.4277 O.2       11 UNK        -0.5000 
     69 N          -0.7120  -20.5169  -47.0069 N.am      12 UNK        -0.5000 
     70 CA         -2.0563  -20.1900  -47.4831 C.3       12 UNK         0.1400 
     71 CB         -2.5455  -18.9070  -46.7917 C.3       12 UNK        -0.1800 
     72 C          -3.0702  -21.3346  -47.3119 C.2       12 UNK         0.5000 
     73 O          -3.8763  -21.5679  -48.2147 O.2       12 UNK        -0.5000 
     74 N          -2.9926  -22.0453  -46.1804 N.am      13 UNK        -0.5000 
     75 CA         -3.7884  -23.2386  -45.9016 C.3       13 UNK         0.1400 
     76 CB         -3.6441  -23.6189  -44.4201 C.3       13 UNK        -0.1800 
     77 C          -3.4124  -24.4196  -46.8157 C.2       13 UNK         0.5000 
     78 O          -4.3053  -25.0705  -47.3585 O.2       13 UNK        -0.5000 
     79 N          -2.1046  -24.6616  -46.9836 N.am      14 UNK        -0.5000 
     80 CA         -1.5536  -25.7358  -47.8113 C.3       14 UNK         0.1400 
     81 CB         -0.0493  -25.8784  -47.5331 C.3       14 UNK        -0.1800 
     82 C          -1.8092  -25.5340  -49.3153 C.2       14 UNK         0.5000 
     83 O          -2.1866  -26.4865  -49.9990 O.2       14 UNK        -0.5000 
     84 N          -1.6075  -24.3023  -49.8017 N.am      15 UNK        -0.5000 
     85 CA         -1.8146  -23.9198  -51.1992 C.3       15 UNK         0.1400 
     86 CB         -1.0334  -22.6285  -51.4899 C.3       15 UNK        -0.1800 
     87 C          -3.3009  -23.7489  -51.5670 C.2       15 UNK         0.5000 
     88 O          -3.6225  -23.7838  -52.7529 O.2       15 UNK        -0.5000 
     89 N          -4.1661  -23.5766  -50.5560 N.am      16 UNK        -0.5000 
     90 CA         -5.6054  -23.3190  -50.6389 C.3       16 UNK         0.1400 
     91 CB         -6.3543  -24.4693  -51.3444 C.3       16 UNK        -0.1800 
     92 C          -5.8881  -21.9375  -51.2571 C.2       16 UNK         0.5000 
     93 O          -6.4234  -21.8379  -52.3622 O.2       16 UNK        -0.5000 
     94 N          -5.5197  -20.8907  -50.5060 N.am      17 UNK        -0.5000 
     95 CA         -5.6122  -19.4652  -50.8524 C.3       17 UNK         0.1400 
     96 CB         -5.0697  -18.6496  -49.6703 C.3       17 UNK        -0.1800 
     97 C          -7.0080  -18.9397  -51.2574 C.2       17 UNK         0.5000 
     98 O          -7.0968  -17.8390  -51.8021 O.2       17 UNK        -0.5000 
     99 N          -8.0692  -19.7123  -50.9884 N.am      18 UNK        -0.5000 
    100 CA        -9.4315  -19.4530  -51.4586 C.3       18 UNK         0.1400 
    101 CB       -10.4025  -20.3607  -50.6876 C.3       18 UNK        -0.1800 
    102 C         -9.5978  -19.6545  -52.9810 C.2       18 UNK         0.5000 
    103 O        -10.4937  -19.0504  -53.5730 O.2       18 UNK        -0.5000 
    104 N         -8.7434  -20.4930  -53.5822 N.am      19 UNK        -0.5000 
    105 CA        -8.6574  -20.7330  -55.0215 C.3       19 UNK         0.1400 
    106 CB        -8.4059  -22.2378  -55.2385 C.3       19 UNK        -0.1800 
    107 C         -7.5402  -19.8678  -55.6429 C.2       19 UNK         0.5000 
    108 O         -7.0235  -18.9564  -54.9925 O.2       19 UNK        -0.5000 
    109 N         -7.1634  -20.1764  -56.8937 N.am      20 UNK        -0.5000 
    110 CA        -6.0119  -19.5807  -57.5869 C.3       20 UNK         0.1400 
    111 CB        -6.0064  -20.0451  -59.0512 C.3       20 UNK        -0.1800 
    112 C         -4.6651  -19.9116  -56.9077 C.2       20 UNK         0.5000 
    113 O         -3.7389  -19.1012  -56.9626 O.2       20 UNK        -0.5000 
    114 N         -4.6187  -21.0768  -56.2455 N.am      21 UNK        -0.5000 
    115 CA        -3.5908  -21.5858  -55.3374 C.3       21 UNK         0.1400 
    116 CB        -3.4058  -20.6396  -54.1336 C.3       21 UNK        -0.1800 
    117 C         -2.2527  -21.9285  -56.0138 C.2       21 UNK         0.5000 
    118 O         -1.8592  -23.0955  -56.0256 O.2       21 UNK        -0.5000 
    119 N         -1.5653  -20.9110  -56.5372 N.am      22 UNK        -0.5000 
    120 CA        -0.2423  -21.0271  -57.1630 C.3       22 UNK         0.1400 
    121 C         -0.3277  -21.5715  -58.6157 C.2       22 UNK         0.5000 
    122 N          0.6855  -22.2954  -59.0723 N.am      22 UNK        -0.7600 
    123 O         -1.2813  -21.3141  -59.3479 O.2       22 UNK        -0.5000 
    124 C124        0.5264  -19.6801  -57.1239 C.3       23 UNK        -0.0398 
    125 S125        0.7111  -18.8816  -55.4832 S.3       23 UNK        -0.2404 
    126 C126        0.8670  -20.2586  -54.2936 C.3       23 UNK        -0.0205 
    127 H127        4.6004  -15.7993  -48.3101 H         1 UNK         0.0600 
    128 H128        3.7174  -16.8852  -47.2424 H         1 UNK         0.0600 
    129 H129        4.1558  -15.2616  -46.6893 H         1 UNK         0.0600 
    130 H130        1.4842  -16.9144  -47.4708 H         1 UNK         0.3000 
    131 H131       -0.5111  -16.5759  -48.2312 H         1 UNK         0.0600 
    132 H132        0.8970  -16.1500  -50.4903 H         1 UNK         0.0800 
    133 H133        0.2918  -14.5426  -50.3515 H         1 UNK         0.0800 
    134 H134       -2.4011  -18.3214  -50.9785 H         1 UNK         0.0800 
    135 H135       -1.6237  -18.0563  -49.4444 H         1 UNK         0.0800 
    136 H136       -1.1124  -18.9357  -52.9915 H         1 UNK         0.1150 
    137 H137        2.8532  -20.4544  -52.4137 H         1 UNK         0.1150 
    138 H138        0.8006  -18.5362  -49.1784 H         1 UNK         0.1150 
    139 H139        4.0866  -19.6463  -50.4586 H         1 UNK         0.0800 
    140 H140        3.2964  -18.8292  -49.1455 H         1 UNK         0.0800 
    141 H141        2.1107  -19.7416  -47.3225 H         1 UNK         0.0800 
    142 H142        3.3190  -20.7517  -46.5872 H         1 UNK         0.0800 
    143 H143        1.7213  -22.7637  -47.0922 H         1 UNK         0.0600 
    144 H144        1.7757  -21.0646  -44.8380 H         1 UNK         0.3000 
    145 H145       -0.5401  -22.9451  -42.8350 H         1 UNK         0.0600 
    146 H146        1.4081  -22.8932  -41.3149 H         1 UNK         0.0600 
    147 H147        2.4805  -22.4675  -42.6473 H         1 UNK         0.0600 
    148 H148        1.6942  -24.0404  -42.6138 H         1 UNK         0.0600 
    149 H149        0.8864  -20.5678  -42.2567 H         1 UNK         0.3000 
    150 H150       -1.5065  -18.2424  -43.6156 H         1 UNK         0.0600 
    151 H151       -2.2967  -18.8252  -41.3311 H         1 UNK         0.0600 
    152 H152       -1.2746  -17.3950  -41.2855 H         1 UNK         0.0600 
    153 H153       -0.6357  -18.9501  -40.7627 H         1 UNK         0.0600 
    154 H154        0.9767  -17.8150  -42.3164 H         1 UNK         0.3000 
    155 H155        3.0511  -17.8722  -45.2239 H         1 UNK         0.0600 
    156 H156        2.0818  -15.5733  -45.0320 H         1 UNK         0.0600 
    157 H157        3.6539  -15.6690  -44.2538 H         1 UNK         0.0600 
    158 H158        2.1837  -15.6604  -43.2843 H         1 UNK         0.0600 
    159 H159        3.5394  -17.5371  -42.4078 H         1 UNK         0.3000 
    160 H160        4.2787  -20.9490  -41.7129 H         1 UNK         0.0600 
    161 H161        6.1171  -18.5110  -42.0064 H         1 UNK         0.0600 
    162 H162        6.3496  -20.0661  -42.7963 H         1 UNK         0.0600 
    163 H163        6.4486  -19.9531  -41.0465 H         1 UNK         0.0600 
    164 H164        4.4595  -18.5473  -40.1614 H         1 UNK         0.3000 
    165 H165        1.1165  -18.5683  -38.9189 H         1 UNK         0.0600 
    166 H166        2.3176  -18.6742  -36.7563 H         1 UNK         0.0600 
    167 H167        2.3371  -20.2506  -37.5296 H         1 UNK         0.0600 
    168 H168        3.7808  -19.2452  -37.5592 H         1 UNK         0.0600 
    169 H169        3.3172  -16.9053  -38.2869 H         1 UNK         0.3000 
    170 H170        3.1157  -14.7059  -38.8260 H         1 UNK         0.0600 
    171 H171        4.1341  -15.1026  -41.7053 H         1 UNK         0.0600 
    172 H172        4.7296  -13.8994  -40.5656 H         1 UNK         0.0600 
    173 H173        4.9824  -15.6078  -40.2479 H         1 UNK         0.0600 
    174 H174        1.3853  -14.3460  -41.1576 H         1 UNK         0.3000 
    175 H175        0.2213  -11.3208  -39.8993 H         1 UNK         0.0600 
    176 H176        1.8868  -11.3466  -42.4744 H         1 UNK         0.0600 
    177 H177        0.6291  -10.1792  -42.0645 H         1 UNK         0.0600 
    178 H178        2.1129  -10.2364  -41.1283 H         1 UNK         0.0600 
    179 H179       -0.3079  -12.4684  -42.4248 H         1 UNK         0.3000 
    180 H180       -2.1379  -15.1531  -41.8146 H         1 UNK         0.0600 
    181 H181       -4.3940  -14.1322  -42.1066 H         1 UNK         0.0600 
    182 H182       -3.7962  -12.5974  -41.4750 H         1 UNK         0.0600 
    183 H183       -3.8637  -14.0171  -40.4379 H         1 UNK         0.0600 
    184 H184       -2.5559  -12.8447  -43.5764 H         1 UNK         0.3000 
    185 H185       -2.0095  -13.2756  -45.8459 H         1 UNK         0.0600 
    186 H186       -0.4984  -11.5880  -44.7409 H         1 UNK         0.0600 
    187 H187        0.8998  -12.6081  -45.0665 H         1 UNK         0.0600 
    188 H188        0.0124  -11.8671  -46.3955 H         1 UNK         0.0600 
    189 H189       -0.0026  -15.3342  -45.9536 H         1 UNK         0.3000 
    190 H190       -0.3436  -19.9451  -46.2534 H         1 UNK         0.3000 
    191 H191       -1.9796  -20.0126  -48.5550 H         1 UNK         0.0600 
    192 H192       -1.8602  -18.0773  -46.9596 H         1 UNK         0.0600 
    193 H193       -2.6395  -19.0413  -45.7151 H         1 UNK         0.0600 
    194 H194       -3.5245  -18.6038  -47.1615 H         1 UNK         0.0600 
    195 H195       -2.3490  -21.7403  -45.4562 H         1 UNK         0.3000 
    196 H196       -4.8367  -22.9944  -46.0862 H         1 UNK         0.0600 
    197 H197       -3.9690  -22.8048  -43.7719 H         1 UNK         0.0600 
    198 H198       -2.6123  -23.8579  -44.1620 H         1 UNK         0.0600 
    199 H199       -4.2536  -24.4908  -44.1798 H         1 UNK         0.0600 
    200 H200       -1.4316  -24.0991  -46.4693 H         1 UNK         0.3000 
    201 H201       -2.0402  -26.6675  -47.5153 H         1 UNK         0.0600 
    202 H202        0.1364  -26.1162  -46.4856 H         1 UNK         0.0600 
    203 H203        0.4918  -24.9611  -47.7682 H         1 UNK         0.0600 
    204 H204        0.3857  -26.6803  -48.1309 H         1 UNK         0.0600 
    205 H205       -1.2432  -23.5761  -49.1859 H         1 UNK         0.3000 
    206 H206       -1.4061  -24.7085  -51.8345 H         1 UNK         0.0600 
    207 H207       -1.4528  -21.7731  -50.9581 H         1 UNK         0.0600 
    208 H208       -1.0470  -22.3986  -52.5549 H         1 UNK         0.0600 
    209 H209        0.0130  -22.7209  -51.1980 H         1 UNK         0.0600 
    210 H210       -3.7775  -23.5315  -49.6233 H         1 UNK         0.3000 
    211 H211       -5.9660  -23.2849  -49.6095 H         1 UNK         0.0600 
    212 H212       -6.0915  -24.5496  -52.3993 H         1 UNK         0.0600 
    213 H213       -7.4326  -24.3154  -51.2929 H         1 UNK         0.0600 
    214 H214       -6.1385  -25.4271  -50.8709 H         1 UNK         0.0600 
    215 H215       -5.0499  -21.0960  -49.6269 H         1 UNK         0.3000 
    216 H216       -4.9544  -19.2986  -51.7063 H         1 UNK         0.0600 
    217 H217       -5.0429  -17.5838  -49.9015 H         1 UNK         0.0600 
    218 H218       -4.0545  -18.9526  -49.4251 H         1 UNK         0.0600 
    219 H219       -5.6829  -18.7807  -48.7779 H         1 UNK         0.0600 
    220 H220       -7.9073  -20.5959  -50.5295 H         1 UNK         0.3000 
    221 H221       -9.6813  -18.4142  -51.2329 H         1 UNK         0.0600 
    222 H222      -10.1922  -21.4163  -50.8641 H         1 UNK         0.0600 
    223 H223      -10.3440  -20.1802  -49.6141 H         1 UNK         0.0600 
    224 H224      -11.4338  -20.1762  -50.9914 H         1 UNK         0.0600 
    225 H225       -7.9922  -20.9003  -53.0318 H         1 UNK         0.3000 
    226 H226       -9.5979  -20.4648  -55.5066 H         1 UNK         0.0600 
    227 H227       -8.4572  -22.5072  -56.2936 H         1 UNK         0.0600 
    228 H228       -7.4268  -22.5406  -54.8644 H         1 UNK         0.0600 
    229 H229       -9.1558  -22.8379  -54.7225 H         1 UNK         0.0600 
    230 H230       -7.6476  -20.9163  -57.3812 H         1 UNK         0.3000 
    231 H231       -6.1316  -18.4954  -57.5711 H         1 UNK         0.0600 
    232 H232       -6.9222  -19.7490  -59.5631 H         1 UNK         0.0600 
    233 H233       -5.9110  -21.1288  -59.1304 H         1 UNK         0.0600 
    234 H234       -5.1722  -19.6021  -59.5971 H         1 UNK         0.0600 
    235 H235       -5.4378  -21.6623  -56.3150 H         1 UNK         0.3000 
    236 H236       -3.9953  -22.5226  -54.9544 H         1 UNK         0.0600 
    237 H237       -3.0006  -19.6707  -54.4250 H         1 UNK         0.0600 
    238 H238       -4.3583  -20.4650  -53.6359 H         1 UNK         0.0600 
    239 H239       -2.7293  -21.0684  -53.3965 H         1 UNK         0.0600 
    240 H240       -2.0177  -20.0037  -56.5784 H         1 UNK         0.3000 
    241 H241        0.3351  -21.7549  -56.5903 H         1 UNK         0.0600 
    242 H242        0.6499  -22.6433  -60.0183 H         1 UNK         0.3800 
    243 H243        1.4835  -22.5167  -58.4966 H         1 UNK         0.3800 
    244 H244        0.0381  -18.9564  -57.7791 H         1 UNK         0.0800 
    245 H245        1.5302  -19.8165  -57.5297 H         1 UNK         0.0800 
    246 H246        1.7761  -20.8207  -54.5122 H         1 UNK         0.0800 
    247 H247        0.0357  -20.9535  -54.3949 H         1 UNK         0.0800 
@<TRIPOS>BOND
     1    1    2 1    
     2    1  127 1    
     3    1  128 1    
     4    1  129 1    
     5    2    3 2    
     6    2    4 am   BACKBONE|DICT|INTERRES
     7    4    5 1    
     8    4  130 1    
     9    5    6 1    
    10    5   65 1    
    11    5  131 1    
    12    6    7 1    
    13    6  132 1    
    14    6  133 1    
    15    7    8 1    
    16    8    9 1    
    17    8  134 1    
    18    8  135 1    
    19    9   10 ar   
    20    9   14 ar   
    21   10   11 ar   
    22   10  136 1    
    23   11   12 ar   
    24   11  126 1    
    25   12   13 ar   
    26   12  137 1    
    27   13   14 ar   
    28   13   15 1    
    29   14  138 1    
    30   15   16 1    
    31   15  139 1    
    32   15  140 1    
    33   16   17 1    
    34   17   18 1    
    35   17  141 1    
    36   17  142 1    
    37   18   19 1    
    38   18   67 1    
    39   18  143 1    
    40   19   20 am   BACKBONE|DICT|INTERRES
    41   19  144 1    
    42   20   21 2    
    43   20   22 1    
    44   22   23 1    
    45   22   24 1    
    46   22  145 1    
    47   23  146 1    
    48   23  147 1    
    49   23  148 1    
    50   24   25 am   BACKBONE|DICT|INTERRES
    51   24  149 1    
    52   25   26 2    
    53   25   27 1    
    54   27   28 1    
    55   27   29 1    
    56   27  150 1    
    57   28  151 1    
    58   28  152 1    
    59   28  153 1    
    60   29   30 am   BACKBONE|DICT|INTERRES
    61   29  154 1    
    62   30   31 2    
    63   30   32 1    
    64   32   33 1    
    65   32   34 1    
    66   32  155 1    
    67   33  156 1    
    68   33  157 1    
    69   33  158 1    
    70   34   35 am   BACKBONE|DICT|INTERRES
    71   34  159 1    
    72   35   36 2    
    73   35   37 1    
    74   37   38 1    
    75   37   39 1    
    76   37  160 1    
    77   38  161 1    
    78   38  162 1    
    79   38  163 1    
    80   39   40 am   BACKBONE|DICT|INTERRES
    81   39  164 1    
    82   40   41 2    
    83   40   42 1    
    84   42   43 1    
    85   42   44 1    
    86   42  165 1    
    87   43  166 1    
    88   43  167 1    
    89   43  168 1    
    90   44   45 am   BACKBONE|DICT|INTERRES
    91   44  169 1    
    92   45   46 2    
    93   45   47 1    
    94   47   48 1    
    95   47   49 1    
    96   47  170 1    
    97   48  171 1    
    98   48  172 1    
    99   48  173 1    
   100   49   50 am   BACKBONE|DICT|INTERRES
   101   49  174 1    
   102   50   51 2    
   103   50   52 1    
   104   52   53 1    
   105   52   54 1    
   106   52  175 1    
   107   53  176 1    
   108   53  177 1    
   109   53  178 1    
   110   54   55 am   BACKBONE|DICT|INTERRES
   111   54  179 1    
   112   55   56 2    
   113   55   57 1    
   114   57   58 1    
   115   57   59 1    
   116   57  180 1    
   117   58  181 1    
   118   58  182 1    
   119   58  183 1    
   120   59   60 am   BACKBONE|DICT|INTERRES
   121   59  184 1    
   122   60   61 2    
   123   60   62 1    
   124   62   63 1    
   125   62   64 1    
   126   62  185 1    
   127   63  186 1    
   128   63  187 1    
   129   63  188 1    
   130   64   65 am   BACKBONE|DICT|INTERRES
   131   64  189 1    
   132   65   66 2    
   133   67   68 2    
   134   67   69 am   BACKBONE|DICT|INTERRES
   135   69   70 1    
   136   69  190 1    
   137   70   71 1    
   138   70   72 1    
   139   70  191 1    
   140   71  192 1    
   141   71  193 1    
   142   71  194 1    
   143   72   73 2    
   144   72   74 am   BACKBONE|DICT|INTERRES
   145   74   75 1    
   146   74  195 1    
   147   75   76 1    
   148   75   77 1    
   149   75  196 1    
   150   76  197 1    
   151   76  198 1    
   152   76  199 1    
   153   77   78 2    
   154   77   79 am   BACKBONE|DICT|INTERRES
   155   79   80 1    
   156   79  200 1    
   157   80   81 1    
   158   80   82 1    
   159   80  201 1    
   160   81  202 1    
   161   81  203 1    
   162   81  204 1    
   163   82   83 2    
   164   82   84 am   BACKBONE|DICT|INTERRES
   165   84   85 1    
   166   84  205 1    
   167   85   86 1    
   168   85   87 1    
   169   85  206 1    
   170   86  207 1    
   171   86  208 1    
   172   86  209 1    
   173   87   88 2    
   174   87   89 am   BACKBONE|DICT|INTERRES
   175   89   90 1    
   176   89  210 1    
   177   90   91 1    
   178   90   92 1    
   179   90  211 1    
   180   91  212 1    
   181   91  213 1    
   182   91  214 1    
   183   92   93 2    
   184   92   94 am   BACKBONE|DICT|INTERRES
   185   94   95 1    
   186   94  215 1    
   187   95   96 1    
   188   95   97 1    
   189   95  216 1    
   190   96  217 1    
   191   96  218 1    
   192   96  219 1    
   193   97   98 2    
   194   97   99 am   BACKBONE|DICT|INTERRES
   195   99  100 1    
   196   99  220 1    
   197  100  101 1    
   198  100  102 1    
   199  100  221 1    
   200  101  222 1    
   201  101  223 1    
   202  101  224 1    
   203  102  103 2    
   204  102  104 am   BACKBONE|DICT|INTERRES
   205  104  105 1    
   206  104  225 1    
   207  105  106 1    
   208  105  107 1    
   209  105  226 1    
   210  106  227 1    
   211  106  228 1    
   212  106  229 1    
   213  107  108 2    
   214  107  109 am   BACKBONE|DICT|INTERRES
   215  109  110 1    
   216  109  230 1    
   217  110  111 1    
   218  110  112 1    
   219  110  231 1    
   220  111  232 1    
   221  111  233 1    
   222  111  234 1    
   223  112  113 2    
   224  112  114 am   BACKBONE|DICT|INTERRES
   225  114  115 1    
   226  114  235 1    
   227  115  116 1    
   228  115  117 1    
   229  115  236 1    
   230  116  237 1    
   231  116  238 1    
   232  116  239 1    
   233  117  118 2    
   234  117  119 am   BACKBONE|DICT|INTERRES
   235  119  120 1    
   236  119  240 1    
   237  120  121 1    
   238  120  124 1    
   239  120  241 1    
   240  121  122 am   BACKBONE|DICT|INTERRES
   241  121  123 2    
   242  122  242 1    
   243  122  243 1    
   244  124  125 1    
   245  124  244 1    
   246  124  245 1    
   247  125  126 1    
   248  126  246 1    
   249  126  247 1    
@<TRIPOS>SUBSTRUCTURE
     1 UNK         1 GROUP             0       ****    0 ROOT    
