@<TRIPOS>MOLECULE
3R540
247   249    1
SMALL
USER_CHARGES


@<TRIPOS>ATOM
      1 CA         -4.4272  -12.0158  -50.3012 C.3       0 UNK        -0.1800 
      2 C          -2.9196  -11.9625  -50.5055 C.2       0 UNK         0.5000 
      3 O          -2.4449  -11.2142  -51.3593 O.2       0 UNK        -0.5000 
      4 N          -2.1723  -12.7625  -49.7344 N.am      1 UNK        -0.5000 
      5 CA         -0.7077  -12.8339  -49.7567 C.3       1 UNK         0.1400 
      6 C6         -0.1823  -14.0177  -48.9044 C.3       23 UNK        -0.0398 
      7 S7         -0.6495  -15.6524  -49.5632 S.3       23 UNK        -0.2404 
      8 C8          0.8543  -16.0920  -50.4922 C.3       23 UNK        -0.0205 
      9 C9          0.8677  -17.5674  -50.8578 C.ar      23 UNK        -0.0193 
     10 C10         0.0854  -18.0432  -51.9124 C.ar      23 UNK        -0.1150 
     11 C11         0.0807  -19.4018  -52.2400 C.ar      23 UNK        -0.0193 
     12 C12         0.8754  -20.2884  -51.5085 C.ar      23 UNK        -0.1150 
     13 C13         1.6692  -19.8241  -50.4549 C.ar      23 UNK        -0.0193 
     14 C14         1.6632  -18.4623  -50.1378 C.ar      23 UNK        -0.1150 
     15 C15         2.5297  -20.7929  -49.6546 C.3       23 UNK        -0.0205 
     16 S16         2.0644  -20.8351  -47.8937 S.3       23 UNK        -0.2404 
     17 C17         0.3487  -21.4468  -47.9801 C.3       23 UNK        -0.0398 
     18 CA          0.1142  -22.6552  -47.0461 C.3       11 UNK         0.1400 
     19 N           0.2014  -22.3117  -45.6225 N.am      11 UNK        -0.5000 
     20 C           0.1564  -23.2017  -44.6199 C.2       10 UNK         0.5000 
     21 O           0.1118  -24.4200  -44.7887 O.2       10 UNK        -0.5000 
     22 CA          0.0793  -22.6424  -43.1880 C.3       10 UNK         0.1400 
     23 CB          1.4680  -22.2399  -42.6702 C.3       10 UNK        -0.1800 
     24 N          -0.8493  -21.5158  -43.0813 N.am      10 UNK        -0.5000 
     25 C          -2.1708  -21.6113  -43.2910 C.2       9 UNK         0.5000 
     26 O          -2.7463  -22.6731  -43.5295 O.2       9 UNK        -0.5000 
     27 CA         -2.9833  -20.3036  -43.2717 C.3       9 UNK         0.1400 
     28 CB         -3.3462  -19.9118  -41.8320 C.3       9 UNK        -0.1800 
     29 N          -2.2936  -19.1930  -43.9301 N.am      9 UNK        -0.5000 
     30 C          -1.9789  -19.1579  -45.2332 C.2       8 UNK         0.5000 
     31 O          -2.2863  -20.0434  -46.0299 O.2       8 UNK        -0.5000 
     32 CA         -1.1242  -17.9687  -45.7160 C.3       8 UNK         0.1400 
     33 CB         -1.9886  -16.7233  -45.9600 C.3       8 UNK        -0.1800 
     34 N          -0.0399  -17.6441  -44.7869 N.am      8 UNK        -0.5000 
     35 C           0.9498  -18.4887  -44.4623 C.2       7 UNK         0.5000 
     36 O           1.0740  -19.6125  -44.9446 O.2       7 UNK        -0.5000 
     37 CA          1.9211  -18.0303  -43.3636 C.3       7 UNK         0.1400 
     38 CB          2.9851  -17.0725  -43.9221 C.3       7 UNK        -0.1800 
     39 N           1.2068  -17.4006  -42.2535 N.am      7 UNK        -0.5000 
     40 C           0.4449  -18.0707  -41.3763 C.2       6 UNK         0.5000 
     41 O           0.3076  -19.2937  -41.3879 O.2       6 UNK        -0.5000 
     42 CA         -0.3201  -17.2336  -40.3336 C.3       6 UNK         0.1400 
     43 CB          0.5676  -16.9502  -39.1127 C.3       6 UNK        -0.1800 
     44 N          -0.8151  -15.9674  -40.8747 N.am      6 UNK        -0.5000 
     45 C          -1.7566  -15.8623  -41.8233 C.2       5 UNK         0.5000 
     46 O          -2.3480  -16.8253  -42.3074 O.2       5 UNK        -0.5000 
     47 CA         -2.0453  -14.4481  -42.3618 C.3       5 UNK         0.1400 
     48 CB         -3.1460  -13.7700  -41.5329 C.3       5 UNK        -0.1800 
     49 N          -0.8608  -13.5845  -42.3976 N.am      5 UNK        -0.5000 
     50 C           0.2511  -13.8448  -43.0979 C.2       4 UNK         0.5000 
     51 O           0.4069  -14.8643  -43.7751 O.2       4 UNK        -0.5000 
     52 CA          1.3994  -12.8278  -42.9482 C.3       4 UNK         0.1400 
     53 CB          2.1981  -13.1272  -41.6691 C.3       4 UNK        -0.1800 
     54 N           2.3259  -12.8241  -44.0819 N.am      4 UNK        -0.5000 
     55 C           1.9984  -12.5317  -45.3465 C.2       3 UNK         0.5000 
     56 O           0.8604  -12.2184  -45.7052 O.2       3 UNK        -0.5000 
     57 CA          3.1428  -12.6275  -46.3769 C.3       3 UNK         0.1400 
     58 CB          3.4846  -14.0996  -46.6656 C.3       3 UNK        -0.1800 
     59 N           2.7967  -11.9788  -47.6406 N.am      3 UNK        -0.5000 
     60 C           2.6618  -10.6588  -47.8356 C.2       2 UNK         0.5000 
     61 O           2.9763   -9.8053  -47.0050 O.2       2 UNK        -0.5000 
     62 CA          2.0535  -10.2272  -49.1875 C.3       2 UNK         0.1400 
     63 CB          3.1617   -9.9183  -50.2059 C.3       2 UNK        -0.1800 
     64 N           1.1630  -11.2540  -49.7403 N.am      2 UNK        -0.5000 
     65 C          -0.0599  -11.5229  -49.2599 C.2       1 UNK         0.5000 
     66 O          -0.6350  -10.8250  -48.4210 O.2       1 UNK        -0.5000 
     67 C          -1.2214  -23.3446  -47.3796 C.2       11 UNK         0.5000 
     68 O          -1.2035  -24.4025  -48.0055 O.2       11 UNK        -0.5000 
     69 N          -2.3438  -22.7796  -46.9103 N.am      12 UNK        -0.5000 
     70 CA         -3.6827  -23.3438  -47.0881 C.3       12 UNK         0.1400 
     71 CB         -4.7374  -22.3881  -46.5108 C.3       12 UNK        -0.1800 
     72 C          -3.8338  -24.7498  -46.4777 C.2       12 UNK         0.5000 
     73 O          -4.4554  -25.6118  -47.0983 O.2       12 UNK        -0.5000 
     74 N          -3.2420  -24.9696  -45.2976 N.am      13 UNK        -0.5000 
     75 CA         -3.1963  -26.2717  -44.6366 C.3       13 UNK         0.1400 
     76 CB         -2.7151  -26.0948  -43.1880 C.3       13 UNK        -0.1800 
     77 C          -2.3177  -27.2885  -45.3903 C.2       13 UNK         0.5000 
     78 O          -2.7495  -28.4221  -45.6028 O.2       13 UNK        -0.5000 
     79 N          -1.1043  -26.8707  -45.7747 N.am      14 UNK        -0.5000 
     80 CA         -0.0996  -27.7255  -46.4071 C.3       14 UNK         0.1400 
     81 CB          1.2754  -27.0458  -46.3140 C.3       14 UNK        -0.1800 
     82 C          -0.4181  -28.0835  -47.8693 C.2       14 UNK         0.5000 
     83 O          -0.2342  -29.2363  -48.2619 O.2       14 UNK        -0.5000 
     84 N          -0.8640  -27.0933  -48.6513 N.am      15 UNK        -0.5000 
     85 CA         -1.0423  -27.1861  -50.1019 C.3       15 UNK         0.1400 
     86 CB         -0.3557  -25.9772  -50.7613 C.3       15 UNK        -0.1800 
     87 C          -2.5196  -27.3152  -50.5219 C.2       15 UNK         0.5000 
     88 O          -2.8209  -27.1482  -51.7038 O.2       15 UNK        -0.5000 
     89 N          -3.4054  -27.6345  -49.5660 N.am      16 UNK        -0.5000 
     90 CA         -4.8314  -27.9371  -49.7379 C.3       16 UNK         0.1400 
     91 CB         -5.0165  -29.2485  -50.5301 C.3       16 UNK        -0.1800 
     92 C          -5.6260  -26.7578  -50.3352 C.2       16 UNK         0.5000 
     93 O          -6.1045  -26.8278  -51.4684 O.2       16 UNK        -0.5000 
     94 N          -5.7324  -25.6889  -49.5373 N.am      17 UNK        -0.5000 
     95 CA         -6.4599  -24.4362  -49.7737 C.3       17 UNK         0.1400 
     96 CB         -7.9520  -24.6926  -50.0714 C.3       17 UNK        -0.1800 
     97 C          -5.8088  -23.4917  -50.8043 C.2       17 UNK         0.5000 
     98 O          -6.3908  -22.4501  -51.1106 O.2       17 UNK        -0.5000 
     99 N          -4.6094  -23.8292  -51.2960 N.am      18 UNK        -0.5000 
    100 CA        -3.7975  -22.9645  -52.1477 C.3       18 UNK         0.1400 
    101 CB        -2.7952  -23.8166  -52.9405 C.3       18 UNK        -0.1800 
    102 C         -3.1004  -21.8987  -51.2838 C.2       18 UNK         0.5000 
    103 O         -2.1031  -22.1939  -50.6248 O.2       18 UNK        -0.5000 
    104 N         -3.6627  -20.6890  -51.2898 N.am      19 UNK        -0.5000 
    105 CA        -3.2164  -19.5127  -50.5523 C.3       19 UNK         0.1400 
    106 CB        -3.6147  -19.6404  -49.0704 C.3       19 UNK        -0.1800 
    107 C         -3.8327  -18.2678  -51.2159 C.2       19 UNK         0.5000 
    108 O         -4.5364  -18.3989  -52.2214 O.2       19 UNK        -0.5000 
    109 N         -3.5698  -17.0900  -50.6343 N.am      20 UNK        -0.5000 
    110 CA        -4.1143  -15.7809  -51.0135 C.3       20 UNK         0.1400 
    111 CB        -5.6420  -15.7339  -50.7976 C.3       20 UNK        -0.1800 
    112 C         -3.6793  -15.3274  -52.4229 C.2       20 UNK         0.5000 
    113 O         -4.5211  -14.9699  -53.2478 O.2       20 UNK        -0.5000 
    114 N         -2.3562  -15.3375  -52.6444 N.am      21 UNK        -0.5000 
    115 CA        -1.6493  -14.8916  -53.8522 C.3       21 UNK         0.1400 
    116 CB        -1.7437  -13.3602  -54.0038 C.3       21 UNK        -0.1800 
    117 C         -2.0787  -15.6473  -55.1275 C.2       21 UNK         0.5000 
    118 O         -2.6717  -15.0625  -56.0367 O.2       21 UNK        -0.5000 
    119 N         -1.7596  -16.9457  -55.1626 N.am      22 UNK        -0.5000 
    120 CA        -1.8770  -17.8188  -56.3412 C.3       22 UNK         0.1400 
    121 C         -0.9735  -17.3815  -57.5333 C.2       22 UNK         0.5000 
    122 N         -1.3520  -17.7205  -58.7586 N.am      22 UNK        -0.7600 
    123 O          0.0772  -16.7666  -57.3609 O.2       22 UNK        -0.5000 
    124 C124       -1.6449  -19.3099  -55.9698 C.3       23 UNK        -0.0398 
    125 S125       -0.1219  -19.6061  -54.9956 S.3       23 UNK        -0.2404 
    126 C126       -0.8260  -19.9106  -53.3481 C.3       23 UNK        -0.0205 
    127 H127       -4.8040  -11.0292  -50.0315 H         1 UNK         0.0600 
    128 H128       -4.7068  -12.7139  -49.5117 H         1 UNK         0.0600 
    129 H129       -4.9181  -12.3294  -51.2228 H         1 UNK         0.0600 
    130 H130       -2.6185  -13.3142  -49.0170 H         1 UNK         0.3000 
    131 H131       -0.4000  -12.9880  -50.7930 H         1 UNK         0.0600 
    132 H132       -0.5580  -13.9436  -47.8818 H         1 UNK         0.0800 
    133 H133        0.9037  -13.9858  -48.8147 H         1 UNK         0.0800 
    134 H134        0.9178  -15.4840  -51.3958 H         1 UNK         0.0800 
    135 H135        1.7380  -15.8545  -49.8979 H         1 UNK         0.0800 
    136 H136       -0.5323  -17.3585  -52.4695 H         1 UNK         0.1150 
    137 H137        0.8634  -21.3419  -51.7511 H         1 UNK         0.1150 
    138 H138        2.2704  -18.1042  -49.3181 H         1 UNK         0.1150 
    139 H139        2.4692  -21.8023  -50.0644 H         1 UNK         0.0800 
    140 H140        3.5741  -20.4891  -49.7367 H         1 UNK         0.0800 
    141 H141        0.1257  -21.7223  -49.0127 H         1 UNK         0.0800 
    142 H142       -0.3262  -20.6256  -47.7372 H         1 UNK         0.0800 
    143 H143        0.9002  -23.3869  -47.2459 H         1 UNK         0.0600 
    144 H144        0.3004  -21.3249  -45.3986 H         1 UNK         0.3000 
    145 H145       -0.2967  -23.4401  -42.5439 H         1 UNK         0.0600 
    146 H146        1.4192  -21.8993  -41.6358 H         1 UNK         0.0600 
    147 H147        2.1540  -23.0871  -42.7017 H         1 UNK         0.0600 
    148 H148        1.9093  -21.4410  -43.2647 H         1 UNK         0.0600 
    149 H149       -0.4502  -20.6146  -42.8449 H         1 UNK         0.3000 
    150 H150       -3.9123  -20.4841  -43.8158 H         1 UNK         0.0600 
    151 H151       -3.8738  -20.7223  -41.3275 H         1 UNK         0.0600 
    152 H152       -3.9988  -19.0389  -41.8141 H         1 UNK         0.0600 
    153 H153       -2.4595  -19.6791  -41.2422 H         1 UNK         0.0600 
    154 H154       -2.0643  -18.3924  -43.3473 H         1 UNK         0.3000 
    155 H155       -0.6680  -18.2532  -46.6667 H         1 UNK         0.0600 
    156 H156       -2.7620  -16.9253  -46.7018 H         1 UNK         0.0600 
    157 H157       -1.3875  -15.8939  -46.3333 H         1 UNK         0.0600 
    158 H158       -2.4860  -16.3927  -45.0484 H         1 UNK         0.0600 
    159 H159       -0.0497  -16.7216  -44.3625 H         1 UNK         0.3000 
    160 H160        2.4361  -18.9142  -42.9809 H         1 UNK         0.0600 
    161 H161        2.5424  -16.1773  -44.3570 H         1 UNK         0.0600 
    162 H162        3.5683  -17.5581  -44.7055 H         1 UNK         0.0600 
    163 H163        3.6818  -16.7588  -43.1447 H         1 UNK         0.0600 
    164 H164        1.2033  -16.3910  -42.2339 H         1 UNK         0.3000 
    165 H165       -1.1799  -17.8197  -40.0025 H         1 UNK         0.0600 
    166 H166        0.0125  -16.4258  -38.3348 H         1 UNK         0.0600 
    167 H167        0.9380  -17.8788  -38.6762 H         1 UNK         0.0600 
    168 H168        1.4342  -16.3422  -39.3758 H         1 UNK         0.0600 
    169 H169       -0.3833  -15.1228  -40.5306 H         1 UNK         0.3000 
    170 H170       -2.4067  -14.5546  -43.3864 H         1 UNK         0.0600 
    171 H171       -4.0481  -14.3829  -41.5067 H         1 UNK         0.0600 
    172 H172       -2.8310  -13.6052  -40.5017 H         1 UNK         0.0600 
    173 H173       -3.4231  -12.8053  -41.9585 H         1 UNK         0.0600 
    174 H174       -0.9096  -12.7350  -41.8536 H         1 UNK         0.3000 
    175 H175        0.9660  -11.8286  -42.8695 H         1 UNK         0.0600 
    176 H176        2.6648  -14.1127  -41.7078 H         1 UNK         0.0600 
    177 H177        2.9855  -12.3894  -41.5136 H         1 UNK         0.0600 
    178 H178        1.5571  -13.1022  -40.7869 H         1 UNK         0.0600 
    179 H179        3.2748  -13.1005  -43.8786 H         1 UNK         0.3000 
    180 H180        4.0242  -12.1314  -45.9652 H         1 UNK         0.0600 
    181 H181        2.6146  -14.6558  -47.0177 H         1 UNK         0.0600 
    182 H182        3.8506  -14.6005  -45.7689 H         1 UNK         0.0600 
    183 H183        4.2667  -14.1846  -47.4204 H         1 UNK         0.0600 
    184 H184        2.5143  -12.5913  -48.3876 H         1 UNK         0.3000 
    185 H185        1.4782   -9.3141  -49.0200 H         1 UNK         0.0600 
    186 H186        3.7718  -10.7969  -50.4189 H         1 UNK         0.0600 
    187 H187        2.7436   -9.5623  -51.1477 H         1 UNK         0.0600 
    188 H188        3.8276   -9.1393  -49.8322 H         1 UNK         0.0600 
    189 H189        1.5547  -11.8431  -50.4612 H         1 UNK         0.3000 
    190 H190       -2.2830  -21.8857  -46.4285 H         1 UNK         0.3000 
    191 H191       -3.8535  -23.4295  -48.1630 H         1 UNK         0.0600 
    192 H192       -4.6092  -22.2488  -45.4378 H         1 UNK         0.0600 
    193 H193       -5.7447  -22.7740  -46.6707 H         1 UNK         0.0600 
    194 H194       -4.6880  -21.4068  -46.9805 H         1 UNK         0.0600 
    195 H195       -2.7991  -24.1918  -44.8178 H         1 UNK         0.3000 
    196 H196       -4.2128  -26.6697  -44.6052 H         1 UNK         0.0600 
    197 H197       -2.6885  -27.0516  -42.6652 H         1 UNK         0.0600 
    198 H198       -3.3817  -25.4368  -42.6303 H         1 UNK         0.0600 
    199 H199       -1.7131  -25.6674  -43.1435 H         1 UNK         0.0600 
    200 H200       -0.8118  -25.9249  -45.5422 H         1 UNK         0.3000 
    201 H201       -0.0477  -28.6594  -45.8431 H         1 UNK         0.0600 
    202 H202        1.5588  -26.8716  -45.2758 H         1 UNK         0.0600 
    203 H203        1.2831  -26.0836  -46.8279 H         1 UNK         0.0600 
    204 H204        2.0517  -27.6662  -46.7635 H         1 UNK         0.0600 
    205 H205       -1.0020  -26.1643  -48.2530 H         1 UNK         0.3000 
    206 H206       -0.5429  -28.0806  -50.4791 H         1 UNK         0.0600 
    207 H207       -0.8398  -25.0397  -50.4889 H         1 UNK         0.0600 
    208 H208       -0.3756  -26.0565  -51.8487 H         1 UNK         0.0600 
    209 H209        0.6907  -25.9088  -50.4637 H         1 UNK         0.0600 
    210 H210       -3.0546  -27.7041  -48.6206 H         1 UNK         0.3000 
    211 H211       -5.2309  -28.1068  -48.7366 H         1 UNK         0.0600 
    212 H212       -4.6423  -29.1670  -51.5511 H         1 UNK         0.0600 
    213 H213       -6.0711  -29.5198  -50.5907 H         1 UNK         0.0600 
    214 H214       -4.4957  -30.0759  -50.0481 H         1 UNK         0.0600 
    215 H215       -5.2658  -25.7408  -48.6305 H         1 UNK         0.3000 
    216 H216       -6.4157  -23.8999  -48.8253 H         1 UNK         0.0600 
    217 H217       -8.5179  -23.7604  -50.0611 H         1 UNK         0.0600 
    218 H218       -8.3976  -25.3480  -49.3230 H         1 UNK         0.0600 
    219 H219       -8.1001  -25.1485  -51.0505 H         1 UNK         0.0600 
    220 H220       -4.1908  -24.6984  -50.9982 H         1 UNK         0.3000 
    221 H221       -4.4448  -22.4663  -52.8730 H         1 UNK         0.0600 
    222 H222       -2.1209  -24.3616  -52.2836 H         1 UNK         0.0600 
    223 H223       -3.3083  -24.5465  -53.5671 H         1 UNK         0.0600 
    224 H224       -2.1849  -23.1945  -53.5957 H         1 UNK         0.0600 
    225 H225       -4.4739  -20.5137  -51.8714 H         1 UNK         0.3000 
    226 H226       -2.1316  -19.4342  -50.6197 H         1 UNK         0.0600 
    227 H227       -3.1668  -20.5271  -48.6230 H         1 UNK         0.0600 
    228 H228       -3.2709  -18.7874  -48.4853 H         1 UNK         0.0600 
    229 H229       -4.6960  -19.7130  -48.9498 H         1 UNK         0.0600 
    230 H230       -2.9507  -17.0807  -49.8355 H         1 UNK         0.3000 
    231 H231       -3.6771  -15.0651  -50.3183 H         1 UNK         0.0600 
    232 H232       -5.9045  -16.0168  -49.7782 H         1 UNK         0.0600 
    233 H233       -6.1717  -16.4014  -51.4777 H         1 UNK         0.0600 
    234 H234       -6.0287  -14.7279  -50.9639 H         1 UNK         0.0600 
    235 H235       -1.7690  -15.6462  -51.8825 H         1 UNK         0.3000 
    236 H236       -0.5951  -15.1277  -53.6989 H         1 UNK         0.0600 
    237 H237       -2.7753  -13.0191  -54.0944 H         1 UNK         0.0600 
    238 H238       -1.2077  -13.0209  -54.8910 H         1 UNK         0.0600 
    239 H239       -1.2967  -12.8557  -53.1486 H         1 UNK         0.0600 
    240 H240       -1.2437  -17.3428  -54.3939 H         1 UNK         0.3000 
    241 H241       -2.9085  -17.7279  -56.6875 H         1 UNK         0.0600 
    242 H242       -0.7724  -17.4543  -59.5398 H         1 UNK         0.3800 
    243 H243       -2.2077  -18.2260  -58.9308 H         1 UNK         0.3800 
    244 H244       -2.5083  -19.6800  -55.4158 H         1 UNK         0.0800 
    245 H245       -1.6038  -19.9314  -56.8661 H         1 UNK         0.0800 
    246 H246       -1.0072  -20.9800  -53.2357 H         1 UNK         0.0800 
    247 H247       -1.7969  -19.4234  -53.2558 H         1 UNK         0.0800 
@<TRIPOS>BOND
     1    1    2 1    
     2    1  127 1    
     3    1  128 1    
     4    1  129 1    
     5    2    3 2    
     6    2    4 am   BACKBONE|DICT|INTERRES
     7    4    5 1    
     8    4  130 1    
     9    5    6 1    
    10    5   65 1    
    11    5  131 1    
    12    6    7 1    
    13    6  132 1    
    14    6  133 1    
    15    7    8 1    
    16    8    9 1    
    17    8  134 1    
    18    8  135 1    
    19    9   10 ar   
    20    9   14 ar   
    21   10   11 ar   
    22   10  136 1    
    23   11   12 ar   
    24   11  126 1    
    25   12   13 ar   
    26   12  137 1    
    27   13   14 ar   
    28   13   15 1    
    29   14  138 1    
    30   15   16 1    
    31   15  139 1    
    32   15  140 1    
    33   16   17 1    
    34   17   18 1    
    35   17  141 1    
    36   17  142 1    
    37   18   19 1    
    38   18   67 1    
    39   18  143 1    
    40   19   20 am   BACKBONE|DICT|INTERRES
    41   19  144 1    
    42   20   21 2    
    43   20   22 1    
    44   22   23 1    
    45   22   24 1    
    46   22  145 1    
    47   23  146 1    
    48   23  147 1    
    49   23  148 1    
    50   24   25 am   BACKBONE|DICT|INTERRES
    51   24  149 1    
    52   25   26 2    
    53   25   27 1    
    54   27   28 1    
    55   27   29 1    
    56   27  150 1    
    57   28  151 1    
    58   28  152 1    
    59   28  153 1    
    60   29   30 am   BACKBONE|DICT|INTERRES
    61   29  154 1    
    62   30   31 2    
    63   30   32 1    
    64   32   33 1    
    65   32   34 1    
    66   32  155 1    
    67   33  156 1    
    68   33  157 1    
    69   33  158 1    
    70   34   35 am   BACKBONE|DICT|INTERRES
    71   34  159 1    
    72   35   36 2    
    73   35   37 1    
    74   37   38 1    
    75   37   39 1    
    76   37  160 1    
    77   38  161 1    
    78   38  162 1    
    79   38  163 1    
    80   39   40 am   BACKBONE|DICT|INTERRES
    81   39  164 1    
    82   40   41 2    
    83   40   42 1    
    84   42   43 1    
    85   42   44 1    
    86   42  165 1    
    87   43  166 1    
    88   43  167 1    
    89   43  168 1    
    90   44   45 am   BACKBONE|DICT|INTERRES
    91   44  169 1    
    92   45   46 2    
    93   45   47 1    
    94   47   48 1    
    95   47   49 1    
    96   47  170 1    
    97   48  171 1    
    98   48  172 1    
    99   48  173 1    
   100   49   50 am   BACKBONE|DICT|INTERRES
   101   49  174 1    
   102   50   51 2    
   103   50   52 1    
   104   52   53 1    
   105   52   54 1    
   106   52  175 1    
   107   53  176 1    
   108   53  177 1    
   109   53  178 1    
   110   54   55 am   BACKBONE|DICT|INTERRES
   111   54  179 1    
   112   55   56 2    
   113   55   57 1    
   114   57   58 1    
   115   57   59 1    
   116   57  180 1    
   117   58  181 1    
   118   58  182 1    
   119   58  183 1    
   120   59   60 am   BACKBONE|DICT|INTERRES
   121   59  184 1    
   122   60   61 2    
   123   60   62 1    
   124   62   63 1    
   125   62   64 1    
   126   62  185 1    
   127   63  186 1    
   128   63  187 1    
   129   63  188 1    
   130   64   65 am   BACKBONE|DICT|INTERRES
   131   64  189 1    
   132   65   66 2    
   133   67   68 2    
   134   67   69 am   BACKBONE|DICT|INTERRES
   135   69   70 1    
   136   69  190 1    
   137   70   71 1    
   138   70   72 1    
   139   70  191 1    
   140   71  192 1    
   141   71  193 1    
   142   71  194 1    
   143   72   73 2    
   144   72   74 am   BACKBONE|DICT|INTERRES
   145   74   75 1    
   146   74  195 1    
   147   75   76 1    
   148   75   77 1    
   149   75  196 1    
   150   76  197 1    
   151   76  198 1    
   152   76  199 1    
   153   77   78 2    
   154   77   79 am   BACKBONE|DICT|INTERRES
   155   79   80 1    
   156   79  200 1    
   157   80   81 1    
   158   80   82 1    
   159   80  201 1    
   160   81  202 1    
   161   81  203 1    
   162   81  204 1    
   163   82   83 2    
   164   82   84 am   BACKBONE|DICT|INTERRES
   165   84   85 1    
   166   84  205 1    
   167   85   86 1    
   168   85   87 1    
   169   85  206 1    
   170   86  207 1    
   171   86  208 1    
   172   86  209 1    
   173   87   88 2    
   174   87   89 am   BACKBONE|DICT|INTERRES
   175   89   90 1    
   176   89  210 1    
   177   90   91 1    
   178   90   92 1    
   179   90  211 1    
   180   91  212 1    
   181   91  213 1    
   182   91  214 1    
   183   92   93 2    
   184   92   94 am   BACKBONE|DICT|INTERRES
   185   94   95 1    
   186   94  215 1    
   187   95   96 1    
   188   95   97 1    
   189   95  216 1    
   190   96  217 1    
   191   96  218 1    
   192   96  219 1    
   193   97   98 2    
   194   97   99 am   BACKBONE|DICT|INTERRES
   195   99  100 1    
   196   99  220 1    
   197  100  101 1    
   198  100  102 1    
   199  100  221 1    
   200  101  222 1    
   201  101  223 1    
   202  101  224 1    
   203  102  103 2    
   204  102  104 am   BACKBONE|DICT|INTERRES
   205  104  105 1    
   206  104  225 1    
   207  105  106 1    
   208  105  107 1    
   209  105  226 1    
   210  106  227 1    
   211  106  228 1    
   212  106  229 1    
   213  107  108 2    
   214  107  109 am   BACKBONE|DICT|INTERRES
   215  109  110 1    
   216  109  230 1    
   217  110  111 1    
   218  110  112 1    
   219  110  231 1    
   220  111  232 1    
   221  111  233 1    
   222  111  234 1    
   223  112  113 2    
   224  112  114 am   BACKBONE|DICT|INTERRES
   225  114  115 1    
   226  114  235 1    
   227  115  116 1    
   228  115  117 1    
   229  115  236 1    
   230  116  237 1    
   231  116  238 1    
   232  116  239 1    
   233  117  118 2    
   234  117  119 am   BACKBONE|DICT|INTERRES
   235  119  120 1    
   236  119  240 1    
   237  120  121 1    
   238  120  124 1    
   239  120  241 1    
   240  121  122 am   BACKBONE|DICT|INTERRES
   241  121  123 2    
   242  122  242 1    
   243  122  243 1    
   244  124  125 1    
   245  124  244 1    
   246  124  245 1    
   247  125  126 1    
   248  126  246 1    
   249  126  247 1    
@<TRIPOS>SUBSTRUCTURE
     1 UNK         1 GROUP             0       ****    0 ROOT    
