@<TRIPOS>MOLECULE
3R540
247   249    1
SMALL
USER_CHARGES


@<TRIPOS>ATOM
      1 CA          3.1509  -11.1181  -52.7692 C.3       0 UNK        -0.1800 
      2 C           2.8883  -11.5941  -51.3472 C.2       0 UNK         0.5000 
      3 O           3.1954  -10.8773  -50.3941 O.2       0 UNK        -0.5000 
      4 N           2.3317  -12.8020  -51.2017 N.am      1 UNK        -0.5000 
      5 CA          1.9312  -13.3970  -49.9237 C.3       1 UNK         0.1400 
      6 C6          1.7439  -14.9340  -50.0406 C.3       23 UNK        -0.0398 
      7 S7          0.5411  -15.4538  -51.3171 S.3       23 UNK        -0.2404 
      8 C8          0.0996  -17.1225  -50.7429 C.3       23 UNK        -0.0205 
      9 C9          1.2270  -18.1212  -50.9593 C.ar      23 UNK        -0.0193 
     10 C10         1.5061  -18.5882  -52.2466 C.ar      23 UNK        -0.1150 
     11 C11         2.5194  -19.5276  -52.4602 C.ar      23 UNK        -0.0193 
     12 C12         3.2473  -20.0048  -51.3669 C.ar      23 UNK        -0.1150 
     13 C13         2.9866  -19.5460  -50.0726 C.ar      23 UNK        -0.0193 
     14 C14         1.9795  -18.5914  -49.8788 C.ar      23 UNK        -0.1150 
     15 C15         3.8295  -20.0879  -48.9176 C.3       23 UNK        -0.0205 
     16 S16         2.9550  -20.2330  -47.3233 S.3       23 UNK        -0.2404 
     17 C17         1.5703  -21.3464  -47.7328 C.3       23 UNK        -0.0398 
     18 CA          1.6708  -22.7209  -47.0324 C.3       11 UNK         0.1400 
     19 N           1.6628  -22.5874  -45.5735 N.am      11 UNK        -0.5000 
     20 C           1.8907  -23.5771  -44.7013 C.2       10 UNK         0.5000 
     21 O           2.2021  -24.7233  -45.0326 O.2       10 UNK        -0.5000 
     22 CA          1.7582  -23.1999  -43.2114 C.3       10 UNK         0.1400 
     23 CB          2.1670  -24.3346  -42.2493 C.3       10 UNK        -0.1800 
     24 N           2.4636  -21.9570  -42.8891 N.am      10 UNK        -0.5000 
     25 C           3.7770  -21.7032  -42.9876 C.2       9 UNK         0.5000 
     26 O           4.6176  -22.5385  -43.3233 O.2       9 UNK        -0.5000 
     27 CA          4.2390  -20.2677  -42.6602 C.3       9 UNK         0.1400 
     28 CB          4.6048  -19.5162  -43.9488 C.3       9 UNK        -0.1800 
     29 N           3.2420  -19.4829  -41.9288 N.am      9 UNK        -0.5000 
     30 C           2.9357  -19.6401  -40.6343 C.2       8 UNK         0.5000 
     31 O           3.5097  -20.4325  -39.8864 O.2       8 UNK        -0.5000 
     32 CA          1.7670  -18.7926  -40.0952 C.3       8 UNK         0.1400 
     33 CB          2.2441  -17.3846  -39.7083 C.3       8 UNK        -0.1800 
     34 N           0.6532  -18.6915  -41.0425 N.am      8 UNK        -0.5000 
     35 C          -0.1087  -19.7252  -41.4299 C.2       7 UNK         0.5000 
     36 O           0.0273  -20.8721  -41.0044 O.2       7 UNK        -0.5000 
     37 CA         -1.1747  -19.4463  -42.5031 C.3       7 UNK         0.1400 
     38 CB         -2.4337  -18.8251  -41.8813 C.3       7 UNK        -0.1800 
     39 N          -0.6760  -18.5872  -43.5760 N.am      7 UNK        -0.5000 
     40 C           0.2705  -18.9465  -44.4545 C.2       6 UNK         0.5000 
     41 O           0.7672  -20.0715  -44.4988 O.2       6 UNK        -0.5000 
     42 CA          0.7702  -17.8608  -45.4234 C.3       6 UNK         0.1400 
     43 CB         -0.1486  -17.7439  -46.6480 C.3       6 UNK        -0.1800 
     44 N           0.8945  -16.5519  -44.7892 N.am      6 UNK        -0.5000 
     45 C           1.7379  -16.2592  -43.7910 C.2       5 UNK         0.5000 
     46 O           2.5279  -17.0642  -43.3014 O.2       5 UNK        -0.5000 
     47 CA          1.6424  -14.8399  -43.2093 C.3       5 UNK         0.1400 
     48 CB          2.3900  -13.8307  -44.0941 C.3       5 UNK        -0.1800 
     49 N           0.2526  -14.4160  -43.0421 N.am      5 UNK        -0.5000 
     50 C          -0.5981  -14.9496  -42.1542 C.2       4 UNK         0.5000 
     51 O          -0.2906  -15.8367  -41.3576 O.2       4 UNK        -0.5000 
     52 CA         -2.0460  -14.4291  -42.1952 C.3       4 UNK         0.1400 
     53 CB         -2.1705  -13.1065  -41.4242 C.3       4 UNK        -0.1800 
     54 N          -2.5367  -14.2443  -43.5626 N.am      4 UNK        -0.5000 
     55 C          -2.7613  -15.2479  -44.4221 C.2       3 UNK         0.5000 
     56 O          -2.5887  -16.4347  -44.1477 O.2       3 UNK        -0.5000 
     57 CA         -3.2114  -14.8567  -45.8417 C.3       3 UNK         0.1400 
     58 CB         -4.7266  -14.6084  -45.8802 C.3       3 UNK        -0.1800 
     59 N          -2.5104  -13.6899  -46.3892 N.am      3 UNK        -0.5000 
     60 C          -1.1863  -13.6206  -46.5746 C.2       2 UNK         0.5000 
     61 O          -0.3976  -14.4949  -46.2094 O.2       2 UNK        -0.5000 
     62 CA         -0.6388  -12.3629  -47.2596 C.3       2 UNK         0.1400 
     63 CB         -0.2501  -11.3098  -46.2103 C.3       2 UNK        -0.1800 
     64 N           0.5516  -12.7536  -48.0103 N.am      2 UNK        -0.5000 
     65 C           0.6787  -12.7031  -49.3396 C.2       1 UNK         0.5000 
     66 O          -0.1467  -12.1719  -50.0882 O.2       1 UNK        -0.5000 
     67 C           0.5161  -23.6203  -47.5181 C.2       11 UNK         0.5000 
     68 O          -0.5500  -23.6404  -46.8977 O.2       11 UNK        -0.5000 
     69 N           0.7209  -24.2906  -48.6608 N.am      12 UNK        -0.5000 
     70 CA         -0.2646  -25.1633  -49.3078 C.3       12 UNK         0.1400 
     71 CB          0.3648  -25.8092  -50.5508 C.3       12 UNK        -0.1800 
     72 C          -1.5763  -24.4447  -49.6781 C.2       12 UNK         0.5000 
     73 O          -2.6488  -25.0268  -49.5235 O.2       12 UNK        -0.5000 
     74 N          -1.4700  -23.1787  -50.1087 N.am      13 UNK        -0.5000 
     75 CA         -2.6062  -22.3040  -50.4043 C.3       13 UNK         0.1400 
     76 CB         -2.0951  -20.9931  -51.0242 C.3       13 UNK        -0.1800 
     77 C          -3.4689  -22.0124  -49.1629 C.2       13 UNK         0.5000 
     78 O          -4.6952  -22.0608  -49.2494 O.2       13 UNK        -0.5000 
     79 N          -2.8106  -21.7506  -48.0256 N.am      14 UNK        -0.5000 
     80 CA         -3.4611  -21.5000  -46.7406 C.3       14 UNK         0.1400 
     81 CB         -2.4669  -20.8463  -45.7731 C.3       14 UNK        -0.1800 
     82 C          -4.0614  -22.7791  -46.1359 C.2       14 UNK         0.5000 
     83 O          -5.1638  -22.7258  -45.5923 O.2       14 UNK        -0.5000 
     84 N          -3.3581  -23.9108  -46.2850 N.am      15 UNK        -0.5000 
     85 CA         -3.8199  -25.2414  -45.8812 C.3       15 UNK         0.1400 
     86 CB         -2.6717  -26.2494  -46.0368 C.3       15 UNK        -0.1800 
     87 C          -5.0668  -25.7021  -46.6624 C.2       15 UNK         0.5000 
     88 O          -5.9640  -26.3077  -46.0757 O.2       15 UNK        -0.5000 
     89 N          -5.1196  -25.3669  -47.9590 N.am      16 UNK        -0.5000 
     90 CA         -6.2751  -25.5715  -48.8355 C.3       16 UNK         0.1400 
     91 CB         -5.8032  -25.4933  -50.2967 C.3       16 UNK        -0.1800 
     92 C          -7.4183  -24.5627  -48.5939 C.2       16 UNK         0.5000 
     93 O          -8.5178  -24.7749  -49.1068 O.2       16 UNK        -0.5000 
     94 N          -7.1365  -23.4838  -47.8466 N.am      17 UNK        -0.5000 
     95 CA         -7.9955  -22.3257  -47.5754 C.3       17 UNK         0.1400 
     96 CB         -9.2135  -22.7304  -46.7195 C.3       17 UNK        -0.1800 
     97 C          -8.3775  -21.5573  -48.8592 C.2       17 UNK         0.5000 
     98 O          -9.5009  -21.0642  -48.9808 O.2       17 UNK        -0.5000 
     99 N          -7.4311  -21.4826  -49.8012 N.am      18 UNK        -0.5000 
    100 CA        -7.5727  -20.8133  -51.0872 C.3       18 UNK         0.1400 
    101 CB        -6.7422  -21.5832  -52.1237 C.3       18 UNK        -0.1800 
    102 C         -7.0830  -19.3610  -50.9960 C.2       18 UNK         0.5000 
    103 O         -6.1675  -19.0588  -50.2254 O.2       18 UNK        -0.5000 
    104 N         -7.6577  -18.4928  -51.8352 N.am      19 UNK        -0.5000 
    105 CA        -7.2761  -17.0884  -51.9863 C.3       19 UNK         0.1400 
    106 CB        -8.4796  -16.3078  -52.5458 C.3       19 UNK        -0.1800 
    107 C         -6.0136  -16.9513  -52.8634 C.2       19 UNK         0.5000 
    108 O         -6.0909  -16.4276  -53.9757 O.2       19 UNK        -0.5000 
    109 N         -4.8857  -17.4564  -52.3419 N.am      20 UNK        -0.5000 
    110 CA        -3.5570  -17.5185  -52.9588 C.3       20 UNK         0.1400 
    111 CB        -2.9686  -16.1066  -53.1590 C.3       20 UNK        -0.1800 
    112 C         -3.5612  -18.3584  -54.2515 C.2       20 UNK         0.5000 
    113 O         -3.4780  -17.8127  -55.3539 O.2       20 UNK        -0.5000 
    114 N         -3.6557  -19.6863  -54.0787 N.am      21 UNK        -0.5000 
    115 CA        -3.7169  -20.7064  -55.1371 C.3       21 UNK         0.1400 
    116 CB        -3.7465  -22.0997  -54.4874 C.3       21 UNK        -0.1800 
    117 C         -2.5847  -20.6479  -56.1845 C.2       21 UNK         0.5000 
    118 O         -2.7868  -21.0903  -57.3162 O.2       21 UNK        -0.5000 
    119 N         -1.4293  -20.0947  -55.7972 N.am      22 UNK        -0.5000 
    120 CA        -0.2929  -19.8046  -56.6845 C.3       22 UNK         0.1400 
    121 C         -0.5583  -18.6811  -57.7326 C.2       22 UNK         0.5000 
    122 N         -1.5932  -17.8597  -57.5929 N.am      22 UNK        -0.7600 
    123 O          0.1927  -18.5548  -58.6960 O.2       22 UNK        -0.5000 
    124 C124        0.9916  -19.4846  -55.8811 C.3       23 UNK        -0.0398 
    125 S125        1.4641  -20.8038  -54.7110 S.3       23 UNK        -0.2404 
    126 C126        2.8662  -20.0050  -53.8655 C.3       23 UNK        -0.0205 
    127 H127        2.8397  -11.8572  -53.5080 H         1 UNK         0.0600 
    128 H128        4.2141  -10.9236  -52.9100 H         1 UNK         0.0600 
    129 H129        2.6054  -10.1944  -52.9621 H         1 UNK         0.0600 
    130 H130        2.0650  -13.3309  -52.0200 H         1 UNK         0.3000 
    131 H131        2.7490  -13.2267  -49.2197 H         1 UNK         0.0600 
    132 H132        1.4500  -15.3533  -49.0767 H         1 UNK         0.0800 
    133 H133        2.7016  -15.3982  -50.2805 H         1 UNK         0.0800 
    134 H134       -0.7787  -17.4585  -51.2936 H         1 UNK         0.0800 
    135 H135       -0.1996  -17.0861  -49.6952 H         1 UNK         0.0800 
    136 H136        0.9343  -18.2108  -53.0809 H         1 UNK         0.1150 
    137 H137        4.0345  -20.7286  -51.5258 H         1 UNK         0.1150 
    138 H138        1.7751  -18.2178  -48.8864 H         1 UNK         0.1150 
    139 H139        4.2305  -21.0703  -49.1719 H         1 UNK         0.0800 
    140 H140        4.6887  -19.4303  -48.7814 H         1 UNK         0.0800 
    141 H141        1.5226  -21.4711  -48.8156 H         1 UNK         0.0800 
    142 H142        0.6447  -20.8454  -47.4468 H         1 UNK         0.0800 
    143 H143        2.6141  -23.1916  -47.3171 H         1 UNK         0.0600 
    144 H144        1.4062  -21.6723  -45.2095 H         1 UNK         0.3000 
    145 H145        0.6994  -22.9963  -43.0447 H         1 UNK         0.0600 
    146 H146        2.0367  -24.0334  -41.2098 H         1 UNK         0.0600 
    147 H147        1.5523  -25.2209  -42.4099 H         1 UNK         0.0600 
    148 H148        3.2075  -24.6302  -42.3855 H         1 UNK         0.0600 
    149 H149        1.8656  -21.1798  -42.6423 H         1 UNK         0.3000 
    150 H150        5.1374  -20.3465  -42.0447 H         1 UNK         0.0600 
    151 H151        5.3384  -20.0690  -44.5367 H         1 UNK         0.0600 
    152 H152        5.0333  -18.5387  -43.7270 H         1 UNK         0.0600 
    153 H153        3.7282  -19.3600  -44.5776 H         1 UNK         0.0600 
    154 H154        2.7737  -18.7487  -42.4543 H         1 UNK         0.3000 
    155 H155        1.3934  -19.2814  -39.1930 H         1 UNK         0.0600 
    156 H156        3.0574  -17.4332  -38.9833 H         1 UNK         0.0600 
    157 H157        1.4384  -16.8066  -39.2554 H         1 UNK         0.0600 
    158 H158        2.6076  -16.8293  -40.5731 H         1 UNK         0.0600 
    159 H159        0.4505  -17.7674  -41.4092 H         1 UNK         0.3000 
    160 H160       -1.4536  -20.4064  -42.9413 H         1 UNK         0.0600 
    161 H161       -2.2322  -17.8391  -41.4616 H         1 UNK         0.0600 
    162 H162       -2.8242  -19.4519  -41.0788 H         1 UNK         0.0600 
    163 H163       -3.2249  -18.7167  -42.6234 H         1 UNK         0.0600 
    164 H164       -1.0932  -17.6651  -43.6526 H         1 UNK         0.3000 
    165 H165        1.7648  -18.1483  -45.7644 H         1 UNK         0.0600 
    166 H166        0.2188  -16.9852  -47.3381 H         1 UNK         0.0600 
    167 H167       -0.2008  -18.6841  -47.1955 H         1 UNK         0.0600 
    168 H168       -1.1647  -17.4696  -46.3638 H         1 UNK         0.0600 
    169 H169        0.3071  -15.8105  -45.1651 H         1 UNK         0.3000 
    170 H170        2.1171  -14.8474  -42.2258 H         1 UNK         0.0600 
    171 H171        3.4400  -14.1079  -44.1959 H         1 UNK         0.0600 
    172 H172        1.9678  -13.7784  -45.0976 H         1 UNK         0.0600 
    173 H173        2.3588  -12.8296  -43.6639 H         1 UNK         0.0600 
    174 H174       -0.0971  -13.7327  -43.6963 H         1 UNK         0.3000 
    175 H175       -2.6793  -15.1708  -41.7037 H         1 UNK         0.0600 
    176 H176       -1.8239  -13.2207  -40.3962 H         1 UNK         0.0600 
    177 H177       -1.5801  -12.3127  -41.8837 H         1 UNK         0.0600 
    178 H178       -3.2072  -12.7719  -41.3810 H         1 UNK         0.0600 
    179 H179       -2.6980  -13.2971  -43.8711 H         1 UNK         0.3000 
    180 H180       -2.9929  -15.7041  -46.4950 H         1 UNK         0.0600 
    181 H181       -5.2733  -15.4693  -45.4929 H         1 UNK         0.0600 
    182 H182       -5.0094  -13.7427  -45.2801 H         1 UNK         0.0600 
    183 H183       -5.0729  -14.4384  -46.8999 H         1 UNK         0.0600 
    184 H184       -3.0900  -12.9233  -46.6994 H         1 UNK         0.3000 
    185 H185       -1.4070  -11.9512  -47.9174 H         1 UNK         0.0600 
    186 H186       -1.1180  -10.9971  -45.6284 H         1 UNK         0.0600 
    187 H187        0.4963  -11.6886  -45.5110 H         1 UNK         0.0600 
    188 H188        0.1607  -10.4185  -46.6848 H         1 UNK         0.0600 
    189 H189        1.2322  -13.2709  -47.4715 H         1 UNK         0.3000 
    190 H190        1.6197  -24.2225  -49.1165 H         1 UNK         0.3000 
    191 H191       -0.5131  -25.9577  -48.6016 H         1 UNK         0.0600 
    192 H192        0.6716  -25.0614  -51.2832 H         1 UNK         0.0600 
    193 H193       -0.3417  -26.4796  -51.0422 H         1 UNK         0.0600 
    194 H194        1.2414  -26.4012  -50.2870 H         1 UNK         0.0600 
    195 H195       -0.5481  -22.7856  -50.2217 H         1 UNK         0.3000 
    196 H196       -3.2400  -22.8079  -51.1373 H         1 UNK         0.0600 
    197 H197       -1.5798  -21.1744  -51.9678 H         1 UNK         0.0600 
    198 H198       -1.4016  -20.4741  -50.3609 H         1 UNK         0.0600 
    199 H199       -2.9228  -20.3129  -51.2256 H         1 UNK         0.0600 
    200 H200       -1.8039  -21.8060  -48.0217 H         1 UNK         0.3000 
    201 H201       -4.2799  -20.7957  -46.9050 H         1 UNK         0.0600 
    202 H202       -2.9449  -20.6314  -44.8170 H         1 UNK         0.0600 
    203 H203       -1.6048  -21.4846  -45.5761 H         1 UNK         0.0600 
    204 H204       -2.1038  -19.8997  -46.1700 H         1 UNK         0.0600 
    205 H205       -2.4269  -23.8537  -46.6895 H         1 UNK         0.3000 
    206 H206       -4.0888  -25.1924  -44.8241 H         1 UNK         0.0600 
    207 H207       -1.7967  -25.9442  -45.4623 H         1 UNK         0.0600 
    208 H208       -2.9688  -27.2365  -45.6807 H         1 UNK         0.0600 
    209 H209       -2.3683  -26.3544  -47.0782 H         1 UNK         0.0600 
    210 H210       -4.3023  -24.9418  -48.3860 H         1 UNK         0.3000 
    211 H211       -6.6753  -26.5716  -48.6574 H         1 UNK         0.0600 
    212 H212       -6.6278  -25.6739  -50.9873 H         1 UNK         0.0600 
    213 H213       -5.0370  -26.2404  -50.5042 H         1 UNK         0.0600 
    214 H214       -5.3871  -24.5128  -50.5318 H         1 UNK         0.0600 
    215 H215       -6.2009  -23.4151  -47.4688 H         1 UNK         0.3000 
    216 H216       -7.3932  -21.6363  -46.9825 H         1 UNK         0.0600 
    217 H217       -9.7738  -21.8518  -46.3980 H         1 UNK         0.0600 
    218 H218       -8.9022  -23.2623  -45.8204 H         1 UNK         0.0600 
    219 H219       -9.9017  -23.3731  -47.2691 H         1 UNK         0.0600 
    220 H220       -6.4970  -21.8234  -49.5818 H         1 UNK         0.3000 
    221 H221       -8.6193  -20.8224  -51.3992 H         1 UNK         0.0600 
    222 H222       -5.6871  -21.6036  -51.8490 H         1 UNK         0.0600 
    223 H223       -7.0829  -22.6149  -52.2141 H         1 UNK         0.0600 
    224 H224       -6.8198  -21.1255  -53.1108 H         1 UNK         0.0600 
    225 H225       -8.3727  -18.8256  -52.4661 H         1 UNK         0.3000 
    226 H226       -7.0412  -16.6719  -51.0042 H         1 UNK         0.0600 
    227 H227       -9.3374  -16.3746  -51.8763 H         1 UNK         0.0600 
    228 H228       -8.2402  -15.2497  -52.6595 H         1 UNK         0.0600 
    229 H229       -8.7874  -16.6828  -53.5227 H         1 UNK         0.0600 
    230 H230       -4.9756  -17.9115  -51.4388 H         1 UNK         0.3000 
    231 H231       -2.9119  -18.0352  -52.2478 H         1 UNK         0.0600 
    232 H232       -2.9172  -15.5643  -52.2149 H         1 UNK         0.0600 
    233 H233       -3.5571  -15.5102  -53.8565 H         1 UNK         0.0600 
    234 H234       -1.9537  -16.1622  -53.5549 H         1 UNK         0.0600 
    235 H235       -3.7398  -20.0349  -53.1369 H         1 UNK         0.3000 
    236 H236       -4.6560  -20.5573  -55.6735 H         1 UNK         0.0600 
    237 H237       -4.6230  -22.2285  -53.8562 H         1 UNK         0.0600 
    238 H238       -3.7849  -22.8842  -55.2445 H         1 UNK         0.0600 
    239 H239       -2.8603  -22.2792  -53.8777 H         1 UNK         0.0600 
    240 H240       -1.3427  -19.7776  -54.8445 H         1 UNK         0.3000 
    241 H241       -0.0999  -20.7116  -57.2606 H         1 UNK         0.0600 
    242 H242       -2.2279  -17.9364  -56.8023 H         1 UNK         0.3800 
    243 H243       -1.7495  -17.1426  -58.2830 H         1 UNK         0.3800 
    244 H244        1.8323  -19.3323  -56.5608 H         1 UNK         0.0800 
    245 H245        0.8685  -18.5487  -55.3350 H         1 UNK         0.0800 
    246 H246        3.2342  -19.1597  -54.4484 H         1 UNK         0.0800 
    247 H247        3.6873  -20.7226  -53.8311 H         1 UNK         0.0800 
@<TRIPOS>BOND
     1    1    2 1    
     2    1  127 1    
     3    1  128 1    
     4    1  129 1    
     5    2    3 2    
     6    2    4 am   BACKBONE|DICT|INTERRES
     7    4    5 1    
     8    4  130 1    
     9    5    6 1    
    10    5   65 1    
    11    5  131 1    
    12    6    7 1    
    13    6  132 1    
    14    6  133 1    
    15    7    8 1    
    16    8    9 1    
    17    8  134 1    
    18    8  135 1    
    19    9   10 ar   
    20    9   14 ar   
    21   10   11 ar   
    22   10  136 1    
    23   11   12 ar   
    24   11  126 1    
    25   12   13 ar   
    26   12  137 1    
    27   13   14 ar   
    28   13   15 1    
    29   14  138 1    
    30   15   16 1    
    31   15  139 1    
    32   15  140 1    
    33   16   17 1    
    34   17   18 1    
    35   17  141 1    
    36   17  142 1    
    37   18   19 1    
    38   18   67 1    
    39   18  143 1    
    40   19   20 am   BACKBONE|DICT|INTERRES
    41   19  144 1    
    42   20   21 2    
    43   20   22 1    
    44   22   23 1    
    45   22   24 1    
    46   22  145 1    
    47   23  146 1    
    48   23  147 1    
    49   23  148 1    
    50   24   25 am   BACKBONE|DICT|INTERRES
    51   24  149 1    
    52   25   26 2    
    53   25   27 1    
    54   27   28 1    
    55   27   29 1    
    56   27  150 1    
    57   28  151 1    
    58   28  152 1    
    59   28  153 1    
    60   29   30 am   BACKBONE|DICT|INTERRES
    61   29  154 1    
    62   30   31 2    
    63   30   32 1    
    64   32   33 1    
    65   32   34 1    
    66   32  155 1    
    67   33  156 1    
    68   33  157 1    
    69   33  158 1    
    70   34   35 am   BACKBONE|DICT|INTERRES
    71   34  159 1    
    72   35   36 2    
    73   35   37 1    
    74   37   38 1    
    75   37   39 1    
    76   37  160 1    
    77   38  161 1    
    78   38  162 1    
    79   38  163 1    
    80   39   40 am   BACKBONE|DICT|INTERRES
    81   39  164 1    
    82   40   41 2    
    83   40   42 1    
    84   42   43 1    
    85   42   44 1    
    86   42  165 1    
    87   43  166 1    
    88   43  167 1    
    89   43  168 1    
    90   44   45 am   BACKBONE|DICT|INTERRES
    91   44  169 1    
    92   45   46 2    
    93   45   47 1    
    94   47   48 1    
    95   47   49 1    
    96   47  170 1    
    97   48  171 1    
    98   48  172 1    
    99   48  173 1    
   100   49   50 am   BACKBONE|DICT|INTERRES
   101   49  174 1    
   102   50   51 2    
   103   50   52 1    
   104   52   53 1    
   105   52   54 1    
   106   52  175 1    
   107   53  176 1    
   108   53  177 1    
   109   53  178 1    
   110   54   55 am   BACKBONE|DICT|INTERRES
   111   54  179 1    
   112   55   56 2    
   113   55   57 1    
   114   57   58 1    
   115   57   59 1    
   116   57  180 1    
   117   58  181 1    
   118   58  182 1    
   119   58  183 1    
   120   59   60 am   BACKBONE|DICT|INTERRES
   121   59  184 1    
   122   60   61 2    
   123   60   62 1    
   124   62   63 1    
   125   62   64 1    
   126   62  185 1    
   127   63  186 1    
   128   63  187 1    
   129   63  188 1    
   130   64   65 am   BACKBONE|DICT|INTERRES
   131   64  189 1    
   132   65   66 2    
   133   67   68 2    
   134   67   69 am   BACKBONE|DICT|INTERRES
   135   69   70 1    
   136   69  190 1    
   137   70   71 1    
   138   70   72 1    
   139   70  191 1    
   140   71  192 1    
   141   71  193 1    
   142   71  194 1    
   143   72   73 2    
   144   72   74 am   BACKBONE|DICT|INTERRES
   145   74   75 1    
   146   74  195 1    
   147   75   76 1    
   148   75   77 1    
   149   75  196 1    
   150   76  197 1    
   151   76  198 1    
   152   76  199 1    
   153   77   78 2    
   154   77   79 am   BACKBONE|DICT|INTERRES
   155   79   80 1    
   156   79  200 1    
   157   80   81 1    
   158   80   82 1    
   159   80  201 1    
   160   81  202 1    
   161   81  203 1    
   162   81  204 1    
   163   82   83 2    
   164   82   84 am   BACKBONE|DICT|INTERRES
   165   84   85 1    
   166   84  205 1    
   167   85   86 1    
   168   85   87 1    
   169   85  206 1    
   170   86  207 1    
   171   86  208 1    
   172   86  209 1    
   173   87   88 2    
   174   87   89 am   BACKBONE|DICT|INTERRES
   175   89   90 1    
   176   89  210 1    
   177   90   91 1    
   178   90   92 1    
   179   90  211 1    
   180   91  212 1    
   181   91  213 1    
   182   91  214 1    
   183   92   93 2    
   184   92   94 am   BACKBONE|DICT|INTERRES
   185   94   95 1    
   186   94  215 1    
   187   95   96 1    
   188   95   97 1    
   189   95  216 1    
   190   96  217 1    
   191   96  218 1    
   192   96  219 1    
   193   97   98 2    
   194   97   99 am   BACKBONE|DICT|INTERRES
   195   99  100 1    
   196   99  220 1    
   197  100  101 1    
   198  100  102 1    
   199  100  221 1    
   200  101  222 1    
   201  101  223 1    
   202  101  224 1    
   203  102  103 2    
   204  102  104 am   BACKBONE|DICT|INTERRES
   205  104  105 1    
   206  104  225 1    
   207  105  106 1    
   208  105  107 1    
   209  105  226 1    
   210  106  227 1    
   211  106  228 1    
   212  106  229 1    
   213  107  108 2    
   214  107  109 am   BACKBONE|DICT|INTERRES
   215  109  110 1    
   216  109  230 1    
   217  110  111 1    
   218  110  112 1    
   219  110  231 1    
   220  111  232 1    
   221  111  233 1    
   222  111  234 1    
   223  112  113 2    
   224  112  114 am   BACKBONE|DICT|INTERRES
   225  114  115 1    
   226  114  235 1    
   227  115  116 1    
   228  115  117 1    
   229  115  236 1    
   230  116  237 1    
   231  116  238 1    
   232  116  239 1    
   233  117  118 2    
   234  117  119 am   BACKBONE|DICT|INTERRES
   235  119  120 1    
   236  119  240 1    
   237  120  121 1    
   238  120  124 1    
   239  120  241 1    
   240  121  122 am   BACKBONE|DICT|INTERRES
   241  121  123 2    
   242  122  242 1    
   243  122  243 1    
   244  124  125 1    
   245  124  244 1    
   246  124  245 1    
   247  125  126 1    
   248  126  246 1    
   249  126  247 1    
@<TRIPOS>SUBSTRUCTURE
     1 UNK         1 GROUP             0       ****    0 ROOT    
