@<TRIPOS>MOLECULE
3R540
247   249    1
SMALL
USER_CHARGES


@<TRIPOS>ATOM
      1 CA          3.2892  -13.5653  -44.3416 C.3       0 UNK        -0.1800 
      2 C           2.7850  -13.7709  -45.7612 C.2       0 UNK         0.5000 
      3 O           1.6174  -13.5043  -46.0403 O.2       0 UNK        -0.5000 
      4 N           3.6508  -14.2521  -46.6613 N.am      1 UNK        -0.5000 
      5 CA          3.3330  -14.5550  -48.0639 C.3       1 UNK         0.1400 
      6 C6          4.5164  -15.2324  -48.7958 C.3       23 UNK        -0.0398 
      7 S7          5.0863  -16.7598  -47.9699 S.3       23 UNK        -0.2404 
      8 C8          5.2153  -17.9243  -49.3631 C.3       23 UNK        -0.0205 
      9 C9          3.9663  -18.7794  -49.5251 C.ar      23 UNK        -0.0193 
     10 C10         2.7965  -18.2382  -50.0697 C.ar      23 UNK        -0.1150 
     11 C11         1.6711  -19.0429  -50.2698 C.ar      23 UNK        -0.0193 
     12 C12         1.7218  -20.3927  -49.9176 C.ar      23 UNK        -0.1150 
     13 C13         2.8815  -20.9497  -49.3769 C.ar      23 UNK        -0.0193 
     14 C14         4.0000  -20.1347  -49.1776 C.ar      23 UNK        -0.1150 
     15 C15         2.9340  -22.4450  -49.0892 C.3       23 UNK        -0.0205 
     16 S16         3.4806  -22.8504  -47.4005 S.3       23 UNK        -0.2404 
     17 C17         2.0894  -22.2241  -46.4053 C.3       23 UNK        -0.0398 
     18 CA          1.4135  -23.3166  -45.5303 C.3       11 UNK         0.1400 
     19 N           0.9853  -22.7331  -44.2539 N.am      11 UNK        -0.5000 
     20 C           0.9210  -23.3539  -43.0699 C.2       10 UNK         0.5000 
     21 O           1.1486  -24.5531  -42.9156 O.2       10 UNK        -0.5000 
     22 CA          0.5083  -22.4910  -41.8655 C.3       10 UNK         0.1400 
     23 CB          1.7244  -21.7303  -41.3142 C.3       10 UNK        -0.1800 
     24 N          -0.5280  -21.5250  -42.2347 N.am      10 UNK        -0.5000 
     25 C          -1.8340  -21.6592  -41.9642 C.2       9 UNK         0.5000 
     26 O          -2.3094  -22.6064  -41.3373 O.2       9 UNK        -0.5000 
     27 CA         -2.7755  -20.5521  -42.4852 C.3       9 UNK         0.1400 
     28 CB         -2.9604  -19.4588  -41.4226 C.3       9 UNK        -0.1800 
     29 N          -2.3077  -19.9331  -43.7260 N.am      9 UNK        -0.5000 
     30 C          -2.2220  -20.5723  -44.9009 C.2       8 UNK         0.5000 
     31 O          -2.6194  -21.7208  -45.0737 O.2       8 UNK        -0.5000 
     32 CA         -1.5467  -19.8350  -46.0724 C.3       8 UNK         0.1400 
     33 CB         -2.6067  -19.3138  -47.0542 C.3       8 UNK        -0.1800 
     34 N          -0.6663  -18.7343  -45.6668 N.am      8 UNK        -0.5000 
     35 C           0.4257  -18.8649  -44.8949 C.2       7 UNK         0.5000 
     36 O           0.7851  -19.9407  -44.4164 O.2       7 UNK        -0.5000 
     37 CA          1.2405  -17.5995  -44.5634 C.3       7 UNK         0.1400 
     38 CB          2.4840  -17.5304  -45.4618 C.3       7 UNK        -0.1800 
     39 N           0.4865  -16.3523  -44.6904 N.am      7 UNK        -0.5000 
     40 C          -0.6060  -16.0200  -43.9868 C.2       6 UNK         0.5000 
     41 O          -1.0633  -16.7025  -43.0691 O.2       6 UNK        -0.5000 
     42 CA         -1.3433  -14.7404  -44.4333 C.3       6 UNK         0.1400 
     43 CB         -0.9158  -13.5455  -43.5684 C.3       6 UNK        -0.1800 
     44 N          -1.1305  -14.4207  -45.8506 N.am      6 UNK        -0.5000 
     45 C          -1.4934  -15.2083  -46.8732 C.2       5 UNK         0.5000 
     46 O          -2.1131  -16.2592  -46.7179 O.2       5 UNK        -0.5000 
     47 CA         -1.0364  -14.7825  -48.2833 C.3       5 UNK         0.1400 
     48 CB         -1.6818  -15.6230  -49.4040 C.3       5 UNK        -0.1800 
     49 N          -1.2048  -13.3504  -48.5382 N.am      5 UNK        -0.5000 
     50 C          -2.3486  -12.6484  -48.4988 C.2       4 UNK         0.5000 
     51 O          -3.4537  -13.1402  -48.2637 O.2       4 UNK        -0.5000 
     52 CA         -2.2146  -11.1310  -48.7581 C.3       4 UNK         0.1400 
     53 CB         -3.4679  -10.3331  -48.3410 C.3       4 UNK        -0.1800 
     54 N          -1.0087  -10.5520  -48.1523 N.am      4 UNK        -0.5000 
     55 C          -0.6669  -10.5605  -46.8553 C.2       3 UNK         0.5000 
     56 O          -1.3638  -11.0530  -45.9680 O.2       3 UNK        -0.5000 
     57 CA          0.7016   -9.9392  -46.5094 C.3       3 UNK         0.1400 
     58 CB          1.0647  -10.0920  -45.0207 C.3       3 UNK        -0.1800 
     59 N           1.7755  -10.5218  -47.3161 N.am      3 UNK        -0.5000 
     60 C           2.1039  -10.1565  -48.5626 C.2       2 UNK         0.5000 
     61 O           1.4951   -9.2923  -49.1944 O.2       2 UNK        -0.5000 
     62 CA          3.2919  -10.8808  -49.2239 C.3       2 UNK         0.1400 
     63 CB          4.5545  -10.0083  -49.1542 C.3       2 UNK        -0.1800 
     64 N           3.5829  -12.1817  -48.6188 N.am      2 UNK        -0.5000 
     65 C           2.8761  -13.2994  -48.8373 C.2       1 UNK         0.5000 
     66 O           1.8914  -13.3555  -49.5743 O.2       1 UNK        -0.5000 
     67 C           0.2619  -24.0448  -46.2707 C.2       11 UNK         0.5000 
     68 O           0.3770  -24.3054  -47.4683 O.2       11 UNK        -0.5000 
     69 N          -0.8334  -24.3360  -45.5532 N.am      12 UNK        -0.5000 
     70 CA         -2.1524  -24.7750  -46.0189 C.3       12 UNK         0.1400 
     71 CB         -2.9644  -25.2631  -44.8100 C.3       12 UNK        -0.1800 
     72 C          -2.1803  -25.8296  -47.1351 C.2       12 UNK         0.5000 
     73 O          -2.9323  -25.6620  -48.0962 O.2       12 UNK        -0.5000 
     74 N          -1.3618  -26.8798  -46.9940 N.am      13 UNK        -0.5000 
     75 CA         -1.2801  -27.9990  -47.9349 C.3       13 UNK         0.1400 
     76 CB         -0.4067  -29.1062  -47.3260 C.3       13 UNK        -0.1800 
     77 C          -0.7530  -27.5984  -49.3256 C.2       13 UNK         0.5000 
     78 O          -1.2047  -28.1544  -50.3273 O.2       13 UNK        -0.5000 
     79 N           0.1775  -26.6369  -49.3610 N.am      14 UNK        -0.5000 
     80 CA          0.7314  -26.0688  -50.5889 C.3       14 UNK         0.1400 
     81 CB          2.2101  -25.7260  -50.3578 C.3       14 UNK        -0.1800 
     82 C          -0.0705  -24.8413  -51.0591 C.2       14 UNK         0.5000 
     83 O          -0.1593  -24.6009  -52.2625 O.2       14 UNK        -0.5000 
     84 N          -0.6828  -24.1138  -50.1156 N.am      15 UNK        -0.5000 
     85 CA         -1.5182  -22.9309  -50.3346 C.3       15 UNK         0.1400 
     86 CB         -1.5113  -22.0814  -49.0517 C.3       15 UNK        -0.1800 
     87 C          -2.9621  -23.2567  -50.7784 C.2       15 UNK         0.5000 
     88 O          -3.8709  -22.4895  -50.4630 O.2       15 UNK        -0.5000 
     89 N          -3.1598  -24.3804  -51.4826 N.am      16 UNK        -0.5000 
     90 CA         -4.4196  -24.8461  -52.0752 C.3       16 UNK         0.1400 
     91 CB         -4.7982  -23.9550  -53.2762 C.3       16 UNK        -0.1800 
     92 C          -5.5677  -24.9933  -51.0521 C.2       16 UNK         0.5000 
     93 O          -6.6795  -24.5225  -51.2977 O.2       16 UNK        -0.5000 
     94 N          -5.2620  -25.6435  -49.9197 N.am      17 UNK        -0.5000 
     95 CA         -6.1313  -25.8518  -48.7559 C.3       17 UNK         0.1400 
     96 CB         -7.3941  -26.6630  -49.1182 C.3       17 UNK        -0.1800 
     97 C          -6.4298  -24.5297  -48.0205 C.2       17 UNK         0.5000 
     98 O          -7.5827  -24.2406  -47.6952 O.2       17 UNK        -0.5000 
     99 N          -5.3573  -23.7661  -47.7678 N.am      18 UNK        -0.5000 
    100 CA        -5.3200  -22.4834  -47.0566 C.3       18 UNK         0.1400 
    101 CB        -5.7020  -22.6666  -45.5721 C.3       18 UNK        -0.1800 
    102 C         -6.1379  -21.3724  -47.7467 C.2       18 UNK         0.5000 
    103 O         -6.8672  -20.6335  -47.0814 O.2       18 UNK        -0.5000 
    104 N         -6.0068  -21.2694  -49.0734 N.am      19 UNK        -0.5000 
    105 CA        -6.6435  -20.2348  -49.8790 C.3       19 UNK         0.1400 
    106 CB        -6.7241  -20.7129  -51.3375 C.3       19 UNK        -0.1800 
    107 C         -5.8480  -18.9228  -49.7939 C.2       19 UNK         0.5000 
    108 O         -4.6280  -18.9357  -49.9688 O.2       19 UNK        -0.5000 
    109 N         -6.5563  -17.7998  -49.6136 N.am      20 UNK        -0.5000 
    110 CA        -5.9880  -16.4453  -49.6606 C.3       20 UNK         0.1400 
    111 CB        -7.0249  -15.4456  -49.1272 C.3       20 UNK        -0.1800 
    112 C         -5.5175  -16.0389  -51.0742 C.2       20 UNK         0.5000 
    113 O         -4.6890  -15.1402  -51.2126 O.2       20 UNK        -0.5000 
    114 N         -6.0352  -16.7310  -52.0979 N.am      21 UNK        -0.5000 
    115 CA        -5.5852  -16.6491  -53.4861 C.3       21 UNK         0.1400 
    116 CB        -6.7043  -17.1897  -54.3910 C.3       21 UNK        -0.1800 
    117 C         -4.2666  -17.4111  -53.7444 C.2       21 UNK         0.5000 
    118 O         -3.6986  -17.2552  -54.8264 O.2       21 UNK        -0.5000 
    119 N         -3.8065  -18.2160  -52.7725 N.am      22 UNK        -0.5000 
    120 CA        -2.6488  -19.1178  -52.8681 C.3       22 UNK         0.1400 
    121 C         -2.8931  -20.3267  -53.8288 C.2       22 UNK         0.5000 
    122 N         -1.8700  -21.1099  -54.1403 N.am      22 UNK        -0.7600 
    123 O         -4.0089  -20.5907  -54.2717 O.2       22 UNK        -0.5000 
    124 C124       -1.3304  -18.3307  -53.1349 C.3       23 UNK        -0.0398 
    125 S125        0.1788  -19.1841  -52.5708 S.3       23 UNK        -0.2404 
    126 C126        0.4116  -18.4814  -50.9095 C.3       23 UNK        -0.0205 
    127 H127        2.6954  -14.1586  -43.6462 H         1 UNK         0.0600 
    128 H128        3.1999  -12.5164  -44.0599 H         1 UNK         0.0600 
    129 H129        4.3333  -13.8605  -44.2360 H         1 UNK         0.0600 
    130 H130        4.5929  -14.4760  -46.3729 H         1 UNK         0.3000 
    131 H131        2.4960  -15.2561  -48.0618 H         1 UNK         0.0600 
    132 H132        4.2380  -15.4560  -49.8264 H         1 UNK         0.0800 
    133 H133        5.3691  -14.5539  -48.8576 H         1 UNK         0.0800 
    134 H134        5.4262  -17.3930  -50.2920 H         1 UNK         0.0800 
    135 H135        6.0827  -18.5624  -49.1878 H         1 UNK         0.0800 
    136 H136        2.7686  -17.1981  -50.3595 H         1 UNK         0.1150 
    137 H137        0.8662  -21.0183  -50.1167 H         1 UNK         0.1150 
    138 H138        4.9061  -20.5656  -48.7752 H         1 UNK         0.1150 
    139 H139        1.9563  -22.8980  -49.2568 H         1 UNK         0.0800 
    140 H140        3.6174  -22.9107  -49.8001 H         1 UNK         0.0800 
    141 H141        1.3636  -21.7022  -47.0307 H         1 UNK         0.0800 
    142 H142        2.5258  -21.4500  -45.7726 H         1 UNK         0.0800 
    143 H143        2.1585  -24.0817  -45.3025 H         1 UNK         0.0600 
    144 H144        0.8047  -21.7319  -44.2791 H         1 UNK         0.3000 
    145 H145        0.1454  -23.1598  -41.0822 H         1 UNK         0.0600 
    146 H146        1.4578  -21.1540  -40.4282 H         1 UNK         0.0600 
    147 H147        2.5193  -22.4197  -41.0266 H         1 UNK         0.0600 
    148 H148        2.1379  -21.0393  -42.0503 H         1 UNK         0.0600 
    149 H149       -0.2273  -20.7347  -42.7926 H         1 UNK         0.3000 
    150 H150       -3.7479  -21.0096  -42.6805 H         1 UNK         0.0600 
    151 H151       -3.3288  -19.8806  -40.4865 H         1 UNK         0.0600 
    152 H152       -3.6832  -18.7105  -41.7484 H         1 UNK         0.0600 
    153 H153       -2.0222  -18.9457  -41.2064 H         1 UNK         0.0600 
    154 H154       -1.9620  -18.9849  -43.6621 H         1 UNK         0.3000 
    155 H155       -0.9279  -20.5659  -46.5952 H         1 UNK         0.0600 
    156 H156       -3.2168  -20.1256  -47.4472 H         1 UNK         0.0600 
    157 H157       -3.2855  -18.6072  -46.5758 H         1 UNK         0.0600 
    158 H158       -2.1490  -18.8161  -47.9093 H         1 UNK         0.0600 
    159 H159       -0.9402  -17.8117  -45.9864 H         1 UNK         0.3000 
    160 H160        1.5684  -17.6883  -43.5259 H         1 UNK         0.0600 
    161 H161        2.2196  -17.3642  -46.5070 H         1 UNK         0.0600 
    162 H162        3.0564  -18.4581  -45.4155 H         1 UNK         0.0600 
    163 H163        3.1528  -16.7290  -45.1500 H         1 UNK         0.0600 
    164 H164        0.7844  -15.7094  -45.4107 H         1 UNK         0.3000 
    165 H165       -2.4118  -14.9083  -44.2852 H         1 UNK         0.0600 
    166 H166       -1.5032  -12.6585  -43.8045 H         1 UNK         0.0600 
    167 H167       -1.0625  -13.7567  -42.5085 H         1 UNK         0.0600 
    168 H168        0.1364  -13.2990  -43.7118 H         1 UNK         0.0600 
    169 H169       -0.5760  -13.5952  -46.0444 H         1 UNK         0.3000 
    170 H170        0.0365  -14.9719  -48.3153 H         1 UNK         0.0600 
    171 H171       -2.7666  -15.5257  -49.4015 H         1 UNK         0.0600 
    172 H172       -1.3186  -15.3228  -50.3868 H         1 UNK         0.0600 
    173 H173       -1.4538  -16.6818  -49.2811 H         1 UNK         0.0600 
    174 H174       -0.3488  -12.8492  -48.7357 H         1 UNK         0.3000 
    175 H175       -2.0987  -11.0191  -49.8370 H         1 UNK         0.0600 
    176 H176       -3.3473   -9.2706  -48.5522 H         1 UNK         0.0600 
    177 H177       -3.6819  -10.4418  -47.2773 H         1 UNK         0.0600 
    178 H178       -4.3480  -10.6734  -48.8878 H         1 UNK         0.0600 
    179 H179       -0.3517  -10.1207  -48.7941 H         1 UNK         0.3000 
    180 H180        0.6335   -8.8707  -46.7242 H         1 UNK         0.0600 
    181 H181        1.1156  -11.1395  -44.7233 H         1 UNK         0.0600 
    182 H182        0.3220   -9.6076  -44.3857 H         1 UNK         0.0600 
    183 H183        2.0283   -9.6329  -44.7995 H         1 UNK         0.0600 
    184 H184        2.2656  -11.3014  -46.9021 H         1 UNK         0.3000 
    185 H185        3.0404  -11.0326  -50.2759 H         1 UNK         0.0600 
    186 H186        4.8620   -9.8257  -48.1237 H         1 UNK         0.0600 
    187 H187        5.3883  -10.4785  -49.6759 H         1 UNK         0.0600 
    188 H188        4.3857   -9.0379  -49.6232 H         1 UNK         0.0600 
    189 H189        4.3649  -12.2202  -47.9808 H         1 UNK         0.3000 
    190 H190       -0.7962  -24.0792  -44.5782 H         1 UNK         0.3000 
    191 H191       -2.6500  -23.8935  -46.4195 H         1 UNK         0.0600 
    192 H192       -3.0949  -24.4661  -44.0771 H         1 UNK         0.0600 
    193 H193       -3.9592  -25.5952  -45.1107 H         1 UNK         0.0600 
    194 H194       -2.4764  -26.0999  -44.3090 H         1 UNK         0.0600 
    195 H195       -0.7652  -26.9199  -46.1806 H         1 UNK         0.3000 
    196 H196       -2.2888  -28.3957  -48.0688 H         1 UNK         0.0600 
    197 H197       -0.3437  -29.9661  -47.9943 H         1 UNK         0.0600 
    198 H198       -0.8200  -29.4603  -46.3814 H         1 UNK         0.0600 
    199 H199        0.6106  -28.7598  -47.1396 H         1 UNK         0.0600 
    200 H200        0.4436  -26.1851  -48.4941 H         1 UNK         0.3000 
    201 H201        0.6878  -26.8066  -51.3929 H         1 UNK         0.0600 
    202 H202        2.8095  -26.6334  -50.2834 H         1 UNK         0.0600 
    203 H203        2.3533  -25.1668  -49.4344 H         1 UNK         0.0600 
    204 H204        2.6171  -25.1340  -51.1786 H         1 UNK         0.0600 
    205 H205       -0.5219  -24.3660  -49.1452 H         1 UNK         0.3000 
    206 H206       -1.0671  -22.3369  -51.1320 H         1 UNK         0.0600 
    207 H207       -0.5067  -21.9489  -48.6554 H         1 UNK         0.0600 
    208 H208       -1.9189  -21.0894  -49.2482 H         1 UNK         0.0600 
    209 H209       -2.1117  -22.5379  -48.2657 H         1 UNK         0.0600 
    210 H210       -2.3421  -24.9362  -51.6936 H         1 UNK         0.3000 
    211 H211       -4.2256  -25.8484  -52.4594 H         1 UNK         0.0600 
    212 H212       -5.0401  -22.9388  -52.9637 H         1 UNK         0.0600 
    213 H213       -5.6675  -24.3516  -53.8017 H         1 UNK         0.0600 
    214 H214       -3.9828  -23.8953  -53.9970 H         1 UNK         0.0600 
    215 H215       -4.2978  -25.9219  -49.7787 H         1 UNK         0.3000 
    216 H216       -5.5558  -26.4600  -48.0565 H         1 UNK         0.0600 
    217 H217       -7.9458  -26.9403  -48.2193 H         1 UNK         0.0600 
    218 H218       -7.1348  -27.5858  -49.6370 H         1 UNK         0.0600 
    219 H219       -8.0771  -26.0997  -49.7542 H         1 UNK         0.0600 
    220 H220       -4.4681  -24.1069  -48.1120 H         1 UNK         0.3000 
    221 H221       -4.2821  -22.1569  -47.0915 H         1 UNK         0.0600 
    222 H222       -6.7491  -22.9452  -45.4515 H         1 UNK         0.0600 
    223 H223       -5.0946  -23.4342  -45.0976 H         1 UNK         0.0600 
    224 H224       -5.5417  -21.7441  -45.0129 H         1 UNK         0.0600 
    225 H225       -5.3205  -21.8489  -49.5545 H         1 UNK         0.3000 
    226 H226       -7.6601  -20.0721  -49.5149 H         1 UNK         0.0600 
    227 H227       -7.2623  -21.6580  -51.4138 H         1 UNK         0.0600 
    228 H228       -7.2474  -19.9876  -51.9611 H         1 UNK         0.0600 
    229 H229       -5.7326  -20.8604  -51.7685 H         1 UNK         0.0600 
    230 H230       -7.5544  -17.8632  -49.4709 H         1 UNK         0.3000 
    231 H231       -5.1158  -16.4178  -49.0035 H         1 UNK         0.0600 
    232 H232       -7.9254  -15.4311  -49.7424 H         1 UNK         0.0600 
    233 H233       -6.6180  -14.4333  -49.1150 H         1 UNK         0.0600 
    234 H234       -7.3176  -15.6880  -48.1054 H         1 UNK         0.0600 
    235 H235       -6.7299  -17.4326  -51.8922 H         1 UNK         0.3000 
    236 H236       -5.4148  -15.6007  -53.7397 H         1 UNK         0.0600 
    237 H237       -7.6304  -16.6318  -54.2514 H         1 UNK         0.0600 
    238 H238       -6.4318  -17.1048  -55.4438 H         1 UNK         0.0600 
    239 H239       -6.9101  -18.2420  -54.1902 H         1 UNK         0.0600 
    240 H240       -4.3274  -18.2906  -51.9070 H         1 UNK         0.3000 
    241 H241       -2.5780  -19.5611  -51.8738 H         1 UNK         0.0600 
    242 H242       -0.9423  -20.9060  -53.7980 H         1 UNK         0.3800 
    243 H243       -2.0189  -21.8968  -54.7514 H         1 UNK         0.3800 
    244 H244       -1.3679  -17.3588  -52.6405 H         1 UNK         0.0800 
    245 H245       -1.2241  -18.1129  -54.1987 H         1 UNK         0.0800 
    246 H246        0.4649  -17.3936  -50.9757 H         1 UNK         0.0800 
    247 H247       -0.4518  -18.7216  -50.2870 H         1 UNK         0.0800 
@<TRIPOS>BOND
     1    1    2 1    
     2    1  127 1    
     3    1  128 1    
     4    1  129 1    
     5    2    3 2    
     6    2    4 am   BACKBONE|DICT|INTERRES
     7    4    5 1    
     8    4  130 1    
     9    5    6 1    
    10    5   65 1    
    11    5  131 1    
    12    6    7 1    
    13    6  132 1    
    14    6  133 1    
    15    7    8 1    
    16    8    9 1    
    17    8  134 1    
    18    8  135 1    
    19    9   10 ar   
    20    9   14 ar   
    21   10   11 ar   
    22   10  136 1    
    23   11   12 ar   
    24   11  126 1    
    25   12   13 ar   
    26   12  137 1    
    27   13   14 ar   
    28   13   15 1    
    29   14  138 1    
    30   15   16 1    
    31   15  139 1    
    32   15  140 1    
    33   16   17 1    
    34   17   18 1    
    35   17  141 1    
    36   17  142 1    
    37   18   19 1    
    38   18   67 1    
    39   18  143 1    
    40   19   20 am   BACKBONE|DICT|INTERRES
    41   19  144 1    
    42   20   21 2    
    43   20   22 1    
    44   22   23 1    
    45   22   24 1    
    46   22  145 1    
    47   23  146 1    
    48   23  147 1    
    49   23  148 1    
    50   24   25 am   BACKBONE|DICT|INTERRES
    51   24  149 1    
    52   25   26 2    
    53   25   27 1    
    54   27   28 1    
    55   27   29 1    
    56   27  150 1    
    57   28  151 1    
    58   28  152 1    
    59   28  153 1    
    60   29   30 am   BACKBONE|DICT|INTERRES
    61   29  154 1    
    62   30   31 2    
    63   30   32 1    
    64   32   33 1    
    65   32   34 1    
    66   32  155 1    
    67   33  156 1    
    68   33  157 1    
    69   33  158 1    
    70   34   35 am   BACKBONE|DICT|INTERRES
    71   34  159 1    
    72   35   36 2    
    73   35   37 1    
    74   37   38 1    
    75   37   39 1    
    76   37  160 1    
    77   38  161 1    
    78   38  162 1    
    79   38  163 1    
    80   39   40 am   BACKBONE|DICT|INTERRES
    81   39  164 1    
    82   40   41 2    
    83   40   42 1    
    84   42   43 1    
    85   42   44 1    
    86   42  165 1    
    87   43  166 1    
    88   43  167 1    
    89   43  168 1    
    90   44   45 am   BACKBONE|DICT|INTERRES
    91   44  169 1    
    92   45   46 2    
    93   45   47 1    
    94   47   48 1    
    95   47   49 1    
    96   47  170 1    
    97   48  171 1    
    98   48  172 1    
    99   48  173 1    
   100   49   50 am   BACKBONE|DICT|INTERRES
   101   49  174 1    
   102   50   51 2    
   103   50   52 1    
   104   52   53 1    
   105   52   54 1    
   106   52  175 1    
   107   53  176 1    
   108   53  177 1    
   109   53  178 1    
   110   54   55 am   BACKBONE|DICT|INTERRES
   111   54  179 1    
   112   55   56 2    
   113   55   57 1    
   114   57   58 1    
   115   57   59 1    
   116   57  180 1    
   117   58  181 1    
   118   58  182 1    
   119   58  183 1    
   120   59   60 am   BACKBONE|DICT|INTERRES
   121   59  184 1    
   122   60   61 2    
   123   60   62 1    
   124   62   63 1    
   125   62   64 1    
   126   62  185 1    
   127   63  186 1    
   128   63  187 1    
   129   63  188 1    
   130   64   65 am   BACKBONE|DICT|INTERRES
   131   64  189 1    
   132   65   66 2    
   133   67   68 2    
   134   67   69 am   BACKBONE|DICT|INTERRES
   135   69   70 1    
   136   69  190 1    
   137   70   71 1    
   138   70   72 1    
   139   70  191 1    
   140   71  192 1    
   141   71  193 1    
   142   71  194 1    
   143   72   73 2    
   144   72   74 am   BACKBONE|DICT|INTERRES
   145   74   75 1    
   146   74  195 1    
   147   75   76 1    
   148   75   77 1    
   149   75  196 1    
   150   76  197 1    
   151   76  198 1    
   152   76  199 1    
   153   77   78 2    
   154   77   79 am   BACKBONE|DICT|INTERRES
   155   79   80 1    
   156   79  200 1    
   157   80   81 1    
   158   80   82 1    
   159   80  201 1    
   160   81  202 1    
   161   81  203 1    
   162   81  204 1    
   163   82   83 2    
   164   82   84 am   BACKBONE|DICT|INTERRES
   165   84   85 1    
   166   84  205 1    
   167   85   86 1    
   168   85   87 1    
   169   85  206 1    
   170   86  207 1    
   171   86  208 1    
   172   86  209 1    
   173   87   88 2    
   174   87   89 am   BACKBONE|DICT|INTERRES
   175   89   90 1    
   176   89  210 1    
   177   90   91 1    
   178   90   92 1    
   179   90  211 1    
   180   91  212 1    
   181   91  213 1    
   182   91  214 1    
   183   92   93 2    
   184   92   94 am   BACKBONE|DICT|INTERRES
   185   94   95 1    
   186   94  215 1    
   187   95   96 1    
   188   95   97 1    
   189   95  216 1    
   190   96  217 1    
   191   96  218 1    
   192   96  219 1    
   193   97   98 2    
   194   97   99 am   BACKBONE|DICT|INTERRES
   195   99  100 1    
   196   99  220 1    
   197  100  101 1    
   198  100  102 1    
   199  100  221 1    
   200  101  222 1    
   201  101  223 1    
   202  101  224 1    
   203  102  103 2    
   204  102  104 am   BACKBONE|DICT|INTERRES
   205  104  105 1    
   206  104  225 1    
   207  105  106 1    
   208  105  107 1    
   209  105  226 1    
   210  106  227 1    
   211  106  228 1    
   212  106  229 1    
   213  107  108 2    
   214  107  109 am   BACKBONE|DICT|INTERRES
   215  109  110 1    
   216  109  230 1    
   217  110  111 1    
   218  110  112 1    
   219  110  231 1    
   220  111  232 1    
   221  111  233 1    
   222  111  234 1    
   223  112  113 2    
   224  112  114 am   BACKBONE|DICT|INTERRES
   225  114  115 1    
   226  114  235 1    
   227  115  116 1    
   228  115  117 1    
   229  115  236 1    
   230  116  237 1    
   231  116  238 1    
   232  116  239 1    
   233  117  118 2    
   234  117  119 am   BACKBONE|DICT|INTERRES
   235  119  120 1    
   236  119  240 1    
   237  120  121 1    
   238  120  124 1    
   239  120  241 1    
   240  121  122 am   BACKBONE|DICT|INTERRES
   241  121  123 2    
   242  122  242 1    
   243  122  243 1    
   244  124  125 1    
   245  124  244 1    
   246  124  245 1    
   247  125  126 1    
   248  126  246 1    
   249  126  247 1    
@<TRIPOS>SUBSTRUCTURE
     1 UNK         1 GROUP             0       ****    0 ROOT    
