@<TRIPOS>MOLECULE
3R540
247   249    1
SMALL
USER_CHARGES


@<TRIPOS>ATOM
      1 CA          0.9076   -9.5050  -46.4364 C.3       0 UNK        -0.1800 
      2 C           1.9422  -10.4407  -47.0426 C.2       0 UNK         0.5000 
      3 O           2.9393   -9.9782  -47.5961 O.2       0 UNK        -0.5000 
      4 N           1.7075  -11.7539  -46.9349 N.am      1 UNK        -0.5000 
      5 CA          2.5818  -12.8189  -47.4403 C.3       1 UNK         0.1400 
      6 C6          1.8290  -14.1706  -47.4523 C.3       23 UNK        -0.0398 
      7 S7          2.7255  -15.5279  -48.2836 S.3       23 UNK        -0.2404 
      8 C8          2.0756  -15.4681  -49.9869 C.3       23 UNK        -0.0205 
      9 C9          1.4778  -16.7997  -50.4271 C.ar      23 UNK        -0.0193 
     10 C10         0.1583  -16.8675  -50.8864 C.ar      23 UNK        -0.1150 
     11 C11        -0.3769  -18.0804  -51.3304 C.ar      23 UNK        -0.0193 
     12 C12         0.4165  -19.2298  -51.3156 C.ar      23 UNK        -0.1150 
     13 C13         1.7324  -19.1834  -50.8445 C.ar      23 UNK        -0.0193 
     14 C14         2.2570  -17.9618  -50.4119 C.ar      23 UNK        -0.1150 
     15 C15         2.6051  -20.4361  -50.8157 C.3       23 UNK        -0.0205 
     16 S16         1.7531  -21.9206  -50.1799 S.3       23 UNK        -0.2404 
     17 C17         1.1678  -21.3210  -48.5601 C.3       23 UNK        -0.0398 
     18 CA          0.6663  -22.4441  -47.6230 C.3       11 UNK         0.1400 
     19 N           0.4803  -21.9533  -46.2555 N.am      11 UNK        -0.5000 
     20 C           0.2058  -22.7223  -45.1929 C.2       10 UNK         0.5000 
     21 O           0.1308  -23.9494  -45.2390 O.2       10 UNK        -0.5000 
     22 CA         -0.0744  -21.9994  -43.8630 C.3       10 UNK         0.1400 
     23 CB          1.2387  -21.6056  -43.1712 C.3       10 UNK        -0.1800 
     24 N          -0.9205  -20.8166  -44.0294 N.am      10 UNK        -0.5000 
     25 C          -2.1873  -20.8432  -44.4691 C.2       9 UNK         0.5000 
     26 O          -2.7964  -21.8789  -44.7338 O.2       9 UNK        -0.5000 
     27 CA         -2.8704  -19.4841  -44.7106 C.3       9 UNK         0.1400 
     28 CB         -3.3610  -18.8663  -43.3930 C.3       9 UNK        -0.1800 
     29 N          -2.0001  -18.5357  -45.4051 N.am      9 UNK        -0.5000 
     30 C          -1.4900  -18.7287  -46.6301 C.2       8 UNK         0.5000 
     31 O          -1.7336  -19.7125  -47.3268 O.2       8 UNK        -0.5000 
     32 CA         -0.4869  -17.6768  -47.1258 C.3       8 UNK         0.1400 
     33 CB         -1.2121  -16.4335  -47.6637 C.3       8 UNK        -0.1800 
     34 N           0.4507  -17.2985  -46.0668 N.am      8 UNK        -0.5000 
     35 C           1.4156  -18.1037  -45.5988 C.2       7 UNK         0.5000 
     36 O           1.6408  -19.2272  -46.0469 O.2       7 UNK        -0.5000 
     37 CA          2.2311  -17.5998  -44.3927 C.3       7 UNK         0.1400 
     38 CB          3.4557  -16.7914  -44.8418 C.3       7 UNK        -0.1800 
     39 N           1.4356  -16.8067  -43.4541 N.am      7 UNK        -0.5000 
     40 C           0.4694  -17.3184  -42.6791 C.2       6 UNK         0.5000 
     41 O           0.1711  -18.5117  -42.6615 O.2       6 UNK        -0.5000 
     42 CA         -0.3304  -16.3264  -41.8141 C.3       6 UNK         0.1400 
     43 CB          0.3890  -16.0734  -40.4809 C.3       6 UNK        -0.1800 
     44 N          -0.5934  -15.0415  -42.4675 N.am      6 UNK        -0.5000 
     45 C          -1.2189  -14.8716  -43.6415 C.2       5 UNK         0.5000 
     46 O          -1.6148  -15.8099  -44.3326 O.2       5 UNK        -0.5000 
     47 CA         -1.4420  -13.4250  -44.1335 C.3       5 UNK         0.1400 
     48 CB         -2.9380  -13.1516  -44.3543 C.3       5 UNK        -0.1800 
     49 N          -0.9084  -12.4120  -43.2172 N.am      5 UNK        -0.5000 
     50 C           0.3714  -12.0279  -43.1580 C.2       4 UNK         0.5000 
     51 O           1.2485  -12.4533  -43.9181 O.2       4 UNK        -0.5000 
     52 CA          0.7228  -11.0496  -42.0218 C.3       4 UNK         0.1400 
     53 CB          0.7899  -11.7973  -40.6801 C.3       4 UNK        -0.1800 
     54 N           2.0236  -10.4457  -42.2733 N.am      4 UNK        -0.5000 
     55 C           2.2444   -9.2984  -42.9198 C.2       3 UNK         0.5000 
     56 O           1.3607   -8.4866  -43.1947 O.2       3 UNK        -0.5000 
     57 CA          3.6897   -9.0436  -43.3952 C.3       3 UNK         0.1400 
     58 CB          4.5677   -8.4643  -42.2696 C.3       3 UNK        -0.1800 
     59 N           4.2995  -10.2250  -44.0278 N.am      3 UNK        -0.5000 
     60 C           4.6658  -11.3887  -43.4672 C.2       2 UNK         0.5000 
     61 O           4.6424  -11.6076  -42.2550 O.2       2 UNK        -0.5000 
     62 CA          4.9924  -12.5197  -44.4512 C.3       2 UNK         0.1400 
     63 CB          5.2978  -13.8624  -43.7637 C.3       2 UNK        -0.1800 
     64 N           3.8455  -12.6720  -45.3425 N.am      2 UNK        -0.5000 
     65 C           3.9164  -12.8777  -46.6621 C.2       1 UNK         0.5000 
     66 O           4.9736  -13.0515  -47.2703 O.2       1 UNK        -0.5000 
     67 C          -0.6087  -23.1328  -48.1581 C.2       11 UNK         0.5000 
     68 O          -0.5247  -24.2551  -48.6575 O.2       11 UNK        -0.5000 
     69 N          -1.7698  -22.4829  -47.9923 N.am      12 UNK        -0.5000 
     70 CA         -3.0779  -23.0216  -48.3677 C.3       12 UNK         0.1400 
     71 CB         -4.1504  -21.9336  -48.2117 C.3       12 UNK        -0.1800 
     72 C          -3.4565  -24.2880  -47.5761 C.2       12 UNK         0.5000 
     73 O          -4.0045  -25.2241  -48.1571 O.2       12 UNK        -0.5000 
     74 N          -3.1265  -24.3196  -46.2771 N.am      13 UNK        -0.5000 
     75 CA         -3.3029  -25.4852  -45.4102 C.3       13 UNK         0.1400 
     76 CB         -3.0536  -25.0918  -43.9467 C.3       13 UNK        -0.1800 
     77 C          -2.4096  -26.6702  -45.8219 C.2       13 UNK         0.5000 
     78 O          -2.8901  -27.8031  -45.8508 O.2       13 UNK        -0.5000 
     79 N          -1.1443  -26.3891  -46.1660 N.am      14 UNK        -0.5000 
     80 CA         -0.1760  -27.3710  -46.6602 C.3       14 UNK         0.1400 
     81 CB          1.2254  -26.7422  -46.6941 C.3       14 UNK        -0.1800 
     82 C          -0.5548  -27.9406  -48.0402 C.2       14 UNK         0.5000 
     83 O          -0.4149  -29.1444  -48.2597 O.2       14 UNK        -0.5000 
     84 N          -1.0561  -27.0749  -48.9320 N.am      15 UNK        -0.5000 
     85 CA         -1.5913  -27.4417  -50.2458 C.3       15 UNK         0.1400 
     86 CB         -1.7217  -26.1709  -51.1005 C.3       15 UNK        -0.1800 
     87 C          -2.9460  -28.1764  -50.1702 C.2       15 UNK         0.5000 
     88 O          -3.3167  -28.8545  -51.1289 O.2       15 UNK        -0.5000 
     89 N          -3.6555  -28.0137  -49.0436 N.am      16 UNK        -0.5000 
     90 CA         -5.0005  -28.5096  -48.7351 C.3       16 UNK         0.1400 
     91 CB         -5.0299  -30.0517  -48.7025 C.3       16 UNK        -0.1800 
     92 C          -6.0925  -27.8990  -49.6405 C.2       16 UNK         0.5000 
     93 O          -7.1297  -28.5257  -49.8655 O.2       16 UNK        -0.5000 
     94 N          -5.8434  -26.6807  -50.1324 N.am      17 UNK        -0.5000 
     95 CA         -6.6856  -25.9068  -51.0360 C.3       17 UNK         0.1400 
     96 CB         -6.7637  -26.5794  -52.4211 C.3       17 UNK        -0.1800 
     97 C          -6.0730  -24.5084  -51.1716 C.2       17 UNK         0.5000 
     98 O          -4.8565  -24.3568  -51.0378 O.2       17 UNK        -0.5000 
     99 N          -6.9049  -23.5126  -51.4962 N.am      18 UNK        -0.5000 
    100 CA        -6.5034  -22.1231  -51.7358 C.3       18 UNK         0.1400 
    101 CB        -7.7221  -21.2112  -51.5098 C.3       18 UNK        -0.1800 
    102 C         -5.8613  -21.9265  -53.1286 C.2       18 UNK         0.5000 
    103 O         -6.2892  -21.0576  -53.8929 O.2       18 UNK        -0.5000 
    104 N         -4.8489  -22.7494  -53.4297 N.am      19 UNK        -0.5000 
    105 CA        -4.0976  -22.8006  -54.6834 C.3       19 UNK         0.1400 
    106 CB        -3.0188  -23.8881  -54.5642 C.3       19 UNK        -0.1800 
    107 C         -3.4651  -21.4485  -55.0599 C.2       19 UNK         0.5000 
    108 O         -2.9754  -20.7390  -54.1806 O.2       19 UNK        -0.5000 
    109 N         -3.4982  -21.1259  -56.3604 N.am      20 UNK        -0.5000 
    110 CA        -3.0759  -19.8515  -56.9577 C.3       20 UNK         0.1400 
    111 CB        -1.5610  -19.6179  -56.7697 C.3       20 UNK        -0.1800 
    112 C         -3.9384  -18.6533  -56.4975 C.2       20 UNK         0.5000 
    113 O         -3.4330  -17.5336  -56.4037 O.2       20 UNK        -0.5000 
    114 N         -5.2304  -18.9188  -56.2404 N.am      21 UNK        -0.5000 
    115 CA        -6.2657  -17.9811  -55.7901 C.3       21 UNK         0.1400 
    116 CB        -6.5855  -16.9467  -56.8900 C.3       21 UNK        -0.1800 
    117 C         -5.9203  -17.3398  -54.4308 C.2       21 UNK         0.5000 
    118 O         -5.8977  -16.1141  -54.3018 O.2       21 UNK        -0.5000 
    119 N         -5.6382  -18.1979  -53.4436 N.am      22 UNK        -0.5000 
    120 CA        -5.2316  -17.8116  -52.0813 C.3       22 UNK         0.1400 
    121 C         -6.3738  -17.2517  -51.1790 C.2       22 UNK         0.5000 
    122 N         -7.6350  -17.2995  -51.5911 N.am      22 UNK        -0.7600 
    123 O         -6.1125  -16.7560  -50.0871 O.2       22 UNK        -0.5000 
    124 C124       -4.4534  -18.9645  -51.3887 C.3       23 UNK        -0.0398 
    125 S125       -2.9819  -18.4054  -50.4750 S.3       23 UNK        -0.2404 
    126 C126       -1.8059  -18.1574  -51.8407 C.3       23 UNK        -0.0205 
    127 H127        1.3983   -8.6553  -45.9622 H         1 UNK         0.0600 
    128 H128        0.3015  -10.0089  -45.6830 H         1 UNK         0.0600 
    129 H129        0.2455   -9.1243  -47.2137 H         1 UNK         0.0600 
    130 H130        0.8931  -12.0600  -46.4226 H         1 UNK         0.3000 
    131 H131        2.8255  -12.5689  -48.4754 H         1 UNK         0.0600 
    132 H132        1.5997  -14.4845  -46.4333 H         1 UNK         0.0800 
    133 H133        0.8638  -14.0373  -47.9394 H         1 UNK         0.0800 
    134 H134        1.3443  -14.6656  -50.0894 H         1 UNK         0.0800 
    135 H135        2.8949  -15.2148  -50.6608 H         1 UNK         0.0800 
    136 H136       -0.4544  -15.9771  -50.9047 H         1 UNK         0.1150 
    137 H137        0.0027  -20.1661  -51.6632 H         1 UNK         0.1150 
    138 H138        3.2782  -17.9101  -50.0610 H         1 UNK         0.1150 
    139 H139        2.9560  -20.6396  -51.8281 H         1 UNK         0.0800 
    140 H140        3.4958  -20.2664  -50.2086 H         1 UNK         0.0800 
    141 H141        0.3915  -20.5706  -48.7147 H         1 UNK         0.0800 
    142 H142        2.0035  -20.8011  -48.0907 H         1 UNK         0.0800 
    143 H143        1.4472  -23.2062  -47.5741 H         1 UNK         0.0600 
    144 H144        0.5700  -20.9514  -46.1228 H         1 UNK         0.3000 
    145 H145       -0.6040  -22.6971  -43.2113 H         1 UNK         0.0600 
    146 H146        1.0513  -21.1662  -42.1914 H         1 UNK         0.0600 
    147 H147        1.8773  -22.4768  -43.0203 H         1 UNK         0.0600 
    148 H148        1.8030  -20.8821  -43.7599 H         1 UNK         0.0600 
    149 H149       -0.5090  -19.9237  -43.7723 H         1 UNK         0.3000 
    150 H150       -3.7397  -19.6589  -45.3478 H         1 UNK         0.0600 
    151 H151       -4.0573  -19.5351  -42.8857 H         1 UNK         0.0600 
    152 H152       -3.8816  -17.9246  -43.5687 H         1 UNK         0.0600 
    153 H153       -2.5376  -18.6695  -42.7070 H         1 UNK         0.0600 
    154 H154       -1.7702  -17.6759  -44.9157 H         1 UNK         0.3000 
    155 H155        0.0783  -18.1181  -47.9499 H         1 UNK         0.0600 
    156 H156       -1.6918  -15.8553  -46.8761 H         1 UNK         0.0600 
    157 H157       -0.5236  -15.7802  -48.1931 H         1 UNK         0.0600 
    158 H158       -1.9894  -16.7110  -48.3740 H         1 UNK         0.0600 
    159 H159        0.2621  -16.4333  -45.5837 H         1 UNK         0.3000 
    160 H160        2.5967  -18.4825  -43.8637 H         1 UNK         0.0600 
    161 H161        3.1777  -15.8167  -45.2405 H         1 UNK         0.0600 
    162 H162        4.0138  -17.3178  -45.6174 H         1 UNK         0.0600 
    163 H163        4.1376  -16.6296  -44.0075 H         1 UNK         0.0600 
    164 H164        1.6185  -15.8150  -43.4120 H         1 UNK         0.3000 
    165 H165       -1.2967  -16.7863  -41.5987 H         1 UNK         0.0600 
    166 H166       -0.2146  -15.4536  -39.8177 H         1 UNK         0.0600 
    167 H167        0.5844  -17.0109  -39.9583 H         1 UNK         0.0600 
    168 H168        1.3472  -15.5733  -40.6282 H         1 UNK         0.0600 
    169 H169       -0.3054  -14.2160  -41.9660 H         1 UNK         0.3000 
    170 H170       -0.9375  -13.3345  -45.0976 H         1 UNK         0.0600 
    171 H171       -3.3644  -13.8534  -45.0725 H         1 UNK         0.0600 
    172 H172       -3.5055  -13.2451  -43.4276 H         1 UNK         0.0600 
    173 H173       -3.1012  -12.1486  -44.7491 H         1 UNK         0.0600 
    174 H174       -1.5669  -12.0218  -42.5574 H         1 UNK         0.3000 
    175 H175       -0.0474  -10.2776  -41.9651 H         1 UNK         0.0600 
    176 H176        1.5249  -12.6034  -40.7031 H         1 UNK         0.0600 
    177 H177        1.0636  -11.1220  -39.8692 H         1 UNK         0.0600 
    178 H178       -0.1742  -12.2361  -40.4202 H         1 UNK         0.0600 
    179 H179        2.8300  -11.0453  -42.1235 H         1 UNK         0.3000 
    180 H180        3.6314   -8.2894  -44.1816 H         1 UNK         0.0600 
    181 H181        4.6300   -9.1311  -41.4095 H         1 UNK         0.0600 
    182 H182        4.1611   -7.5171  -41.9133 H         1 UNK         0.0600 
    183 H183        5.5817   -8.2717  -42.6200 H         1 UNK         0.0600 
    184 H184        4.3272  -10.1858  -45.0378 H         1 UNK         0.3000 
    185 H185        5.8756  -12.2058  -45.0114 H         1 UNK         0.0600 
    186 H186        6.1374  -13.7680  -43.0742 H         1 UNK         0.0600 
    187 H187        4.4408  -14.2259  -43.1953 H         1 UNK         0.0600 
    188 H188        5.5648  -14.6235  -44.4967 H         1 UNK         0.0600 
    189 H189        2.9342  -12.5194  -44.9157 H         1 UNK         0.3000 
    190 H190       -1.7591  -21.5425  -47.6020 H         1 UNK         0.3000 
    191 H191       -3.0260  -23.2953  -49.4228 H         1 UNK         0.0600 
    192 H192       -4.2266  -21.5894  -47.1798 H         1 UNK         0.0600 
    193 H193       -5.1307  -22.3072  -48.5102 H         1 UNK         0.0600 
    194 H194       -3.9257  -21.0689  -48.8363 H         1 UNK         0.0600 
    195 H195       -2.7393  -23.4843  -45.8477 H         1 UNK         0.3000 
    196 H196       -4.3420  -25.8093  -45.4976 H         1 UNK         0.0600 
    197 H197       -3.2026  -25.9440  -43.2825 H         1 UNK         0.0600 
    198 H198       -3.7398  -24.3072  -43.6278 H         1 UNK         0.0600 
    199 H199       -2.0373  -24.7295  -43.7928 H         1 UNK         0.0600 
    200 H200       -0.8096  -25.4349  -46.0637 H         1 UNK         0.3000 
    201 H201       -0.1548  -28.2032  -45.9536 H         1 UNK         0.0600 
    202 H202        1.5325  -26.4123  -45.7015 H         1 UNK         0.0600 
    203 H203        1.2647  -25.8791  -47.3591 H         1 UNK         0.0600 
    204 H204        1.9681  -27.4606  -47.0428 H         1 UNK         0.0600 
    205 H205       -1.0620  -26.0842  -48.7001 H         1 UNK         0.3000 
    206 H206       -0.8800  -28.1112  -50.7334 H         1 UNK         0.0600 
    207 H207       -0.7551  -25.6858  -51.2368 H         1 UNK         0.0600 
    208 H208       -2.1156  -26.3991  -52.0917 H         1 UNK         0.0600 
    209 H209       -2.3945  -25.4476  -50.6391 H         1 UNK         0.0600 
    210 H210       -3.2689  -27.3870  -48.3496 H         1 UNK         0.3000 
    211 H211       -5.2196  -28.1573  -47.7262 H         1 UNK         0.0600 
    212 H212       -4.8961  -30.4819  -49.6953 H         1 UNK         0.0600 
    213 H213       -5.9818  -30.4162  -48.3150 H         1 UNK         0.0600 
    214 H214       -4.2456  -30.4459  -48.0561 H         1 UNK         0.0600 
    215 H215       -4.9950  -26.2004  -49.8439 H         1 UNK         0.3000 
    216 H216       -7.6840  -25.8200  -50.6033 H         1 UNK         0.0600 
    217 H217       -5.7710  -26.7279  -52.8485 H         1 UNK         0.0600 
    218 H218       -7.3354  -25.9706  -53.1226 H         1 UNK         0.0600 
    219 H219       -7.2537  -27.5514  -52.3708 H         1 UNK         0.0600 
    220 H220       -7.8831  -23.7211  -51.6362 H         1 UNK         0.3000 
    221 H221       -5.7465  -21.8499  -50.9981 H         1 UNK         0.0600 
    222 H222       -8.1176  -21.3245  -50.5003 H         1 UNK         0.0600 
    223 H223       -8.5260  -21.4318  -52.2131 H         1 UNK         0.0600 
    224 H224       -7.4566  -20.1620  -51.6343 H         1 UNK         0.0600 
    225 H225       -4.5649  -23.4045  -52.7078 H         1 UNK         0.3000 
    226 H226       -4.7991  -23.0902  -55.4681 H         1 UNK         0.0600 
    227 H227       -2.4495  -23.9798  -55.4901 H         1 UNK         0.0600 
    228 H228       -2.3119  -23.6644  -53.7639 H         1 UNK         0.0600 
    229 H229       -3.4610  -24.8628  -54.3562 H         1 UNK         0.0600 
    230 H230       -3.9074  -21.7870  -57.0064 H         1 UNK         0.3000 
    231 H231       -3.2554  -19.9494  -58.0293 H         1 UNK         0.0600 
    232 H232       -1.3054  -19.4119  -55.7299 H         1 UNK         0.0600 
    233 H233       -1.2219  -18.7666  -57.3609 H         1 UNK         0.0600 
    234 H234       -0.9846  -20.4849  -57.0920 H         1 UNK         0.0600 
    235 H235       -5.5265  -19.8824  -56.3076 H         1 UNK         0.3000 
    236 H236       -7.1673  -18.5739  -55.6278 H         1 UNK         0.0600 
    237 H237       -7.4250  -16.3150  -56.5976 H         1 UNK         0.0600 
    238 H238       -5.7387  -16.2901  -57.0920 H         1 UNK         0.0600 
    239 H239       -6.8592  -17.4371  -57.8241 H         1 UNK         0.0600 
    240 H240       -5.7113  -19.1923  -53.6358 H         1 UNK         0.3000 
    241 H241       -4.5436  -16.9740  -52.2090 H         1 UNK         0.0600 
    242 H242       -8.3624  -16.9271  -51.0010 H         1 UNK         0.3800 
    243 H243       -7.8690  -17.6872  -52.4902 H         1 UNK         0.3800 
    244 H244       -4.1147  -19.7017  -52.1150 H         1 UNK         0.0800 
    245 H245       -5.0922  -19.5180  -50.6992 H         1 UNK         0.0800 
    246 H246       -2.0611  -17.2457  -52.3823 H         1 UNK         0.0800 
    247 H247       -1.8939  -18.9739  -52.5580 H         1 UNK         0.0800 
@<TRIPOS>BOND
     1    1    2 1    
     2    1  127 1    
     3    1  128 1    
     4    1  129 1    
     5    2    3 2    
     6    2    4 am   BACKBONE|DICT|INTERRES
     7    4    5 1    
     8    4  130 1    
     9    5    6 1    
    10    5   65 1    
    11    5  131 1    
    12    6    7 1    
    13    6  132 1    
    14    6  133 1    
    15    7    8 1    
    16    8    9 1    
    17    8  134 1    
    18    8  135 1    
    19    9   10 ar   
    20    9   14 ar   
    21   10   11 ar   
    22   10  136 1    
    23   11   12 ar   
    24   11  126 1    
    25   12   13 ar   
    26   12  137 1    
    27   13   14 ar   
    28   13   15 1    
    29   14  138 1    
    30   15   16 1    
    31   15  139 1    
    32   15  140 1    
    33   16   17 1    
    34   17   18 1    
    35   17  141 1    
    36   17  142 1    
    37   18   19 1    
    38   18   67 1    
    39   18  143 1    
    40   19   20 am   BACKBONE|DICT|INTERRES
    41   19  144 1    
    42   20   21 2    
    43   20   22 1    
    44   22   23 1    
    45   22   24 1    
    46   22  145 1    
    47   23  146 1    
    48   23  147 1    
    49   23  148 1    
    50   24   25 am   BACKBONE|DICT|INTERRES
    51   24  149 1    
    52   25   26 2    
    53   25   27 1    
    54   27   28 1    
    55   27   29 1    
    56   27  150 1    
    57   28  151 1    
    58   28  152 1    
    59   28  153 1    
    60   29   30 am   BACKBONE|DICT|INTERRES
    61   29  154 1    
    62   30   31 2    
    63   30   32 1    
    64   32   33 1    
    65   32   34 1    
    66   32  155 1    
    67   33  156 1    
    68   33  157 1    
    69   33  158 1    
    70   34   35 am   BACKBONE|DICT|INTERRES
    71   34  159 1    
    72   35   36 2    
    73   35   37 1    
    74   37   38 1    
    75   37   39 1    
    76   37  160 1    
    77   38  161 1    
    78   38  162 1    
    79   38  163 1    
    80   39   40 am   BACKBONE|DICT|INTERRES
    81   39  164 1    
    82   40   41 2    
    83   40   42 1    
    84   42   43 1    
    85   42   44 1    
    86   42  165 1    
    87   43  166 1    
    88   43  167 1    
    89   43  168 1    
    90   44   45 am   BACKBONE|DICT|INTERRES
    91   44  169 1    
    92   45   46 2    
    93   45   47 1    
    94   47   48 1    
    95   47   49 1    
    96   47  170 1    
    97   48  171 1    
    98   48  172 1    
    99   48  173 1    
   100   49   50 am   BACKBONE|DICT|INTERRES
   101   49  174 1    
   102   50   51 2    
   103   50   52 1    
   104   52   53 1    
   105   52   54 1    
   106   52  175 1    
   107   53  176 1    
   108   53  177 1    
   109   53  178 1    
   110   54   55 am   BACKBONE|DICT|INTERRES
   111   54  179 1    
   112   55   56 2    
   113   55   57 1    
   114   57   58 1    
   115   57   59 1    
   116   57  180 1    
   117   58  181 1    
   118   58  182 1    
   119   58  183 1    
   120   59   60 am   BACKBONE|DICT|INTERRES
   121   59  184 1    
   122   60   61 2    
   123   60   62 1    
   124   62   63 1    
   125   62   64 1    
   126   62  185 1    
   127   63  186 1    
   128   63  187 1    
   129   63  188 1    
   130   64   65 am   BACKBONE|DICT|INTERRES
   131   64  189 1    
   132   65   66 2    
   133   67   68 2    
   134   67   69 am   BACKBONE|DICT|INTERRES
   135   69   70 1    
   136   69  190 1    
   137   70   71 1    
   138   70   72 1    
   139   70  191 1    
   140   71  192 1    
   141   71  193 1    
   142   71  194 1    
   143   72   73 2    
   144   72   74 am   BACKBONE|DICT|INTERRES
   145   74   75 1    
   146   74  195 1    
   147   75   76 1    
   148   75   77 1    
   149   75  196 1    
   150   76  197 1    
   151   76  198 1    
   152   76  199 1    
   153   77   78 2    
   154   77   79 am   BACKBONE|DICT|INTERRES
   155   79   80 1    
   156   79  200 1    
   157   80   81 1    
   158   80   82 1    
   159   80  201 1    
   160   81  202 1    
   161   81  203 1    
   162   81  204 1    
   163   82   83 2    
   164   82   84 am   BACKBONE|DICT|INTERRES
   165   84   85 1    
   166   84  205 1    
   167   85   86 1    
   168   85   87 1    
   169   85  206 1    
   170   86  207 1    
   171   86  208 1    
   172   86  209 1    
   173   87   88 2    
   174   87   89 am   BACKBONE|DICT|INTERRES
   175   89   90 1    
   176   89  210 1    
   177   90   91 1    
   178   90   92 1    
   179   90  211 1    
   180   91  212 1    
   181   91  213 1    
   182   91  214 1    
   183   92   93 2    
   184   92   94 am   BACKBONE|DICT|INTERRES
   185   94   95 1    
   186   94  215 1    
   187   95   96 1    
   188   95   97 1    
   189   95  216 1    
   190   96  217 1    
   191   96  218 1    
   192   96  219 1    
   193   97   98 2    
   194   97   99 am   BACKBONE|DICT|INTERRES
   195   99  100 1    
   196   99  220 1    
   197  100  101 1    
   198  100  102 1    
   199  100  221 1    
   200  101  222 1    
   201  101  223 1    
   202  101  224 1    
   203  102  103 2    
   204  102  104 am   BACKBONE|DICT|INTERRES
   205  104  105 1    
   206  104  225 1    
   207  105  106 1    
   208  105  107 1    
   209  105  226 1    
   210  106  227 1    
   211  106  228 1    
   212  106  229 1    
   213  107  108 2    
   214  107  109 am   BACKBONE|DICT|INTERRES
   215  109  110 1    
   216  109  230 1    
   217  110  111 1    
   218  110  112 1    
   219  110  231 1    
   220  111  232 1    
   221  111  233 1    
   222  111  234 1    
   223  112  113 2    
   224  112  114 am   BACKBONE|DICT|INTERRES
   225  114  115 1    
   226  114  235 1    
   227  115  116 1    
   228  115  117 1    
   229  115  236 1    
   230  116  237 1    
   231  116  238 1    
   232  116  239 1    
   233  117  118 2    
   234  117  119 am   BACKBONE|DICT|INTERRES
   235  119  120 1    
   236  119  240 1    
   237  120  121 1    
   238  120  124 1    
   239  120  241 1    
   240  121  122 am   BACKBONE|DICT|INTERRES
   241  121  123 2    
   242  122  242 1    
   243  122  243 1    
   244  124  125 1    
   245  124  244 1    
   246  124  245 1    
   247  125  126 1    
   248  126  246 1    
   249  126  247 1    
@<TRIPOS>SUBSTRUCTURE
     1 UNK         1 GROUP             0       ****    0 ROOT    
