@<TRIPOS>MOLECULE
3R540
247   249    1
SMALL
USER_CHARGES


@<TRIPOS>ATOM
      1 CA          0.0860  -10.0545  -46.6042 C.3       0 UNK        -0.1800 
      2 C           0.4717  -11.0163  -45.4810 C.2       0 UNK         0.5000 
      3 O           0.9114  -10.5611  -44.4272 O.2       0 UNK        -0.5000 
      4 N           0.3138  -12.3385  -45.6363 N.am      1 UNK        -0.5000 
      5 CA         -0.1320  -13.0612  -46.8345 C.3       1 UNK         0.1400 
      6 C6         -0.3497  -14.5694  -46.5579 C.3       23 UNK        -0.0398 
      7 S7         -1.4369  -14.8939  -45.1295 S.3       23 UNK        -0.2404 
      8 C8         -1.4175  -16.7124  -45.0876 C.3       23 UNK        -0.0205 
      9 C9         -2.6478  -17.3025  -45.7582 C.ar      23 UNK        -0.0193 
     10 C10        -2.7374  -17.3620  -47.1525 C.ar      23 UNK        -0.1150 
     11 C11        -3.8714  -17.8946  -47.7701 C.ar      23 UNK        -0.0193 
     12 C12        -4.9195  -18.3702  -46.9803 C.ar      23 UNK        -0.1150 
     13 C13        -4.8274  -18.3541  -45.5855 C.ar      23 UNK        -0.0193 
     14 C14        -3.6937  -17.8072  -44.9802 C.ar      23 UNK        -0.1150 
     15 C15        -5.9482  -18.9293  -44.7316 C.3       23 UNK        -0.0205 
     16 S16        -5.6273  -20.6616  -44.2559 S.3       23 UNK        -0.2404 
     17 C17        -5.7526  -21.5203  -45.8685 C.3       23 UNK        -0.0398 
     18 CA         -4.4541  -22.2346  -46.3338 C.3       11 UNK         0.1400 
     19 N          -3.2374  -21.4628  -46.0493 N.am      11 UNK        -0.5000 
     20 C          -1.9909  -21.8125  -46.3931 C.2       10 UNK         0.5000 
     21 O          -1.7348  -22.7542  -47.1416 O.2       10 UNK        -0.5000 
     22 CA         -0.8233  -21.0412  -45.7491 C.3       10 UNK         0.1400 
     23 CB         -0.1889  -20.0551  -46.7372 C.3       10 UNK        -0.1800 
     24 N          -1.1563  -20.3464  -44.5029 N.am      10 UNK        -0.5000 
     25 C          -1.6114  -20.9292  -43.3862 C.2       9 UNK         0.5000 
     26 O          -1.8671  -22.1322  -43.3013 O.2       9 UNK        -0.5000 
     27 CA         -1.7509  -20.0233  -42.1510 C.3       9 UNK         0.1400 
     28 CB         -2.8306  -20.5329  -41.1810 C.3       9 UNK        -0.1800 
     29 N          -0.4719  -19.9516  -41.4490 N.am      9 UNK        -0.5000 
     30 C           0.5938  -19.2654  -41.8777 C.2       8 UNK         0.5000 
     31 O           0.5783  -18.5187  -42.8596 O.2       8 UNK        -0.5000 
     32 CA          1.8955  -19.4802  -41.0963 C.3       8 UNK         0.1400 
     33 CB          2.4965  -20.8658  -41.3968 C.3       8 UNK        -0.1800 
     34 N           2.8523  -18.4474  -41.4740 N.am      8 UNK        -0.5000 
     35 C           3.7879  -17.9252  -40.6751 C.2       7 UNK         0.5000 
     36 O           3.9615  -18.2837  -39.5092 O.2       7 UNK        -0.5000 
     37 CA          4.7000  -16.8310  -41.2661 C.3       7 UNK         0.1400 
     38 CB          6.1198  -17.3793  -41.4838 C.3       7 UNK        -0.1800 
     39 N           4.2262  -16.2643  -42.5312 N.am      7 UNK        -0.5000 
     40 C           3.1964  -15.4173  -42.6704 C.2       6 UNK         0.5000 
     41 O           2.4846  -15.0532  -41.7344 O.2       6 UNK        -0.5000 
     42 CA          2.9330  -14.8621  -44.0852 C.3       6 UNK         0.1400 
     43 CB          3.3389  -13.3817  -44.1583 C.3       6 UNK        -0.1800 
     44 N           3.6618  -15.5952  -45.1254 N.am      6 UNK        -0.5000 
     45 C           3.2005  -16.6900  -45.7387 C.2       5 UNK         0.5000 
     46 O           2.0870  -17.1764  -45.5368 O.2       5 UNK        -0.5000 
     47 CA          4.1515  -17.3768  -46.7244 C.3       5 UNK         0.1400 
     48 CB          5.0549  -18.3847  -45.9886 C.3       5 UNK        -0.1800 
     49 N           3.3418  -18.0562  -47.7279 N.am      5 UNK        -0.5000 
     50 C           3.7665  -18.4910  -48.9183 C.2       4 UNK         0.5000 
     51 O           4.9302  -18.3981  -49.3075 O.2       4 UNK        -0.5000 
     52 CA          2.7028  -19.0922  -49.8567 C.3       4 UNK         0.1400 
     53 CB          2.6419  -20.6164  -49.6776 C.3       4 UNK        -0.1800 
     54 N           1.3614  -18.5365  -49.6392 N.am      4 UNK        -0.5000 
     55 C           0.9073  -17.3207  -49.9773 C.2       3 UNK         0.5000 
     56 O          -0.2296  -16.9615  -49.6690 O.2       3 UNK        -0.5000 
     57 CA          1.7942  -16.3482  -50.7811 C.3       3 UNK         0.1400 
     58 CB          1.7496  -16.6609  -52.2878 C.3       3 UNK        -0.1800 
     59 N           1.2960  -15.0005  -50.5411 N.am      3 UNK        -0.5000 
     60 C           1.9184  -13.8523  -50.8268 C.2       2 UNK         0.5000 
     61 O           3.0241  -13.7837  -51.3644 O.2       2 UNK        -0.5000 
     62 CA          1.1840  -12.5577  -50.4248 C.3       2 UNK         0.1400 
     63 CB          0.2927  -12.0649  -51.5754 C.3       2 UNK        -0.1800 
     64 N           0.3693  -12.7072  -49.2138 N.am      2 UNK        -0.5000 
     65 C           0.8777  -12.8980  -47.9890 C.2       1 UNK         0.5000 
     66 O           2.0856  -12.9635  -47.7523 O.2       1 UNK        -0.5000 
     67 C          -4.4050  -23.6747  -45.7796 C.2       11 UNK         0.5000 
     68 O          -4.9138  -24.5838  -46.4351 O.2       11 UNK        -0.5000 
     69 N          -3.7870  -23.8568  -44.6070 N.am      12 UNK        -0.5000 
     70 CA         -3.5956  -25.1535  -43.9651 C.3       12 UNK         0.1400 
     71 CB         -3.8730  -25.0121  -42.4598 C.3       12 UNK        -0.1800 
     72 C          -2.1722  -25.6800  -44.2022 C.2       12 UNK         0.5000 
     73 O          -2.0041  -26.8674  -44.4806 O.2       12 UNK        -0.5000 
     74 N          -1.1734  -24.7952  -44.0749 N.am      13 UNK        -0.5000 
     75 CA          0.2450  -25.1537  -44.0880 C.3       13 UNK         0.1400 
     76 CB          1.0578  -24.0227  -43.4367 C.3       13 UNK        -0.1800 
     77 C           0.8030  -25.4971  -45.4822 C.2       13 UNK         0.5000 
     78 O           1.7468  -26.2848  -45.5613 O.2       13 UNK        -0.5000 
     79 N           0.2396  -24.9044  -46.5442 N.am      14 UNK        -0.5000 
     80 CA          0.7306  -25.0434  -47.9203 C.3       14 UNK         0.1400 
     81 CB          1.4516  -23.7413  -48.3113 C.3       14 UNK        -0.1800 
     82 C          -0.3791  -25.3704  -48.9370 C.2       14 UNK         0.5000 
     83 O          -0.0619  -25.6012  -50.1043 O.2       14 UNK        -0.5000 
     84 N          -1.6482  -25.3562  -48.4993 N.am      15 UNK        -0.5000 
     85 CA         -2.8667  -25.4351  -49.3168 C.3       15 UNK         0.1400 
     86 CB         -2.9993  -26.8128  -49.9980 C.3       15 UNK        -0.1800 
     87 C          -2.9982  -24.2568  -50.3088 C.2       15 UNK         0.5000 
     88 O          -3.5643  -24.4150  -51.3916 O.2       15 UNK        -0.5000 
     89 N          -2.4860  -23.0798  -49.9177 N.am      16 UNK        -0.5000 
     90 CA         -2.3867  -21.8798  -50.7547 C.3       16 UNK         0.1400 
     91 CB         -1.5826  -20.8094  -50.0052 C.3       16 UNK        -0.1800 
     92 C          -3.7420  -21.3099  -51.2077 C.2       16 UNK         0.5000 
     93 O          -3.8030  -20.6518  -52.2455 O.2       16 UNK        -0.5000 
     94 N          -4.8043  -21.5874  -50.4406 N.am      17 UNK        -0.5000 
     95 CA         -6.1816  -21.2100  -50.7574 C.3       17 UNK         0.1400 
     96 CB         -7.0412  -21.3102  -49.4904 C.3       17 UNK        -0.1800 
     97 C          -6.7960  -22.0412  -51.8988 C.2       17 UNK         0.5000 
     98 O          -7.6906  -21.5408  -52.5795 O.2       17 UNK        -0.5000 
     99 N          -6.2997  -23.2694  -52.1175 N.am      18 UNK        -0.5000 
    100 CA        -6.7103  -24.1227  -53.2372 C.3       18 UNK         0.1400 
    101 CB        -6.3199  -25.5818  -52.9547 C.3       18 UNK        -0.1800 
    102 C         -6.1028  -23.6364  -54.5653 C.2       18 UNK         0.5000 
    103 O         -6.7637  -23.7025  -55.6020 O.2       18 UNK        -0.5000 
    104 N         -4.8694  -23.1164  -54.4958 N.am      19 UNK        -0.5000 
    105 CA        -4.1898  -22.4304  -55.5960 C.3       19 UNK         0.1400 
    106 CB        -2.6798  -22.4238  -55.3087 C.3       19 UNK        -0.1800 
    107 C         -4.6989  -20.9884  -55.8023 C.2       19 UNK         0.5000 
    108 O         -4.5031  -20.4292  -56.8815 O.2       19 UNK        -0.5000 
    109 N         -5.3118  -20.4153  -54.7545 N.am      20 UNK        -0.5000 
    110 CA        -5.7443  -19.0216  -54.6041 C.3       20 UNK         0.1400 
    111 CB        -6.8749  -18.6800  -55.5956 C.3       20 UNK        -0.1800 
    112 C         -4.5588  -18.0350  -54.6652 C.2       20 UNK         0.5000 
    113 O         -4.6959  -16.9256  -55.1845 O.2       20 UNK        -0.5000 
    114 N         -3.4054  -18.4651  -54.1332 N.am      21 UNK        -0.5000 
    115 CA        -2.1172  -17.7758  -54.2354 C.3       21 UNK         0.1400 
    116 CB        -1.0127  -18.7089  -53.7172 C.3       21 UNK        -0.1800 
    117 C         -2.0856  -16.4200  -53.5055 C.2       21 UNK         0.5000 
    118 O         -1.4001  -15.5016  -53.9547 O.2       21 UNK        -0.5000 
    119 N         -2.8549  -16.3148  -52.4168 N.am      22 UNK        -0.5000 
    120 CA        -3.1055  -15.0740  -51.6695 C.3       22 UNK         0.1400 
    121 C         -4.1030  -14.0897  -52.3545 C.2       22 UNK         0.5000 
    122 N         -4.7245  -14.4254  -53.4801 N.am      22 UNK        -0.7600 
    123 O         -4.3039  -12.9832  -51.8616 O.2       22 UNK        -0.5000 
    124 C124       -3.4831  -15.3604  -50.1908 C.3       23 UNK        -0.0398 
    125 S125       -4.8453  -16.5661  -50.0011 S.3       23 UNK        -0.2404 
    126 C126       -3.9655  -17.9879  -49.2853 C.3       23 UNK        -0.0205 
    127 H127       -0.8405  -10.3505  -47.0947 H         1 UNK         0.0600 
    128 H128        0.8791  -10.0009  -47.3499 H         1 UNK         0.0600 
    129 H129       -0.0645   -9.0508  -46.2061 H         1 UNK         0.0600 
    130 H130        0.5555  -12.9344  -44.8597 H         1 UNK         0.3000 
    131 H131       -1.0910  -12.6389  -47.1395 H         1 UNK         0.0600 
    132 H132        0.6041  -15.0665  -46.3754 H         1 UNK         0.0800 
    133 H133       -0.7816  -15.0511  -47.4358 H         1 UNK         0.0800 
    134 H134       -1.3670  -17.0270  -44.0447 H         1 UNK         0.0800 
    135 H135       -0.5157  -17.0991  -45.5622 H         1 UNK         0.0800 
    136 H136       -1.9210  -16.9993  -47.7570 H         1 UNK         0.1150 
    137 H137       -5.8039  -18.7624  -47.4596 H         1 UNK         0.1150 
    138 H138       -3.6283  -17.7754  -43.9020 H         1 UNK         0.1150 
    139 H139       -6.9023  -18.8645  -45.2571 H         1 UNK         0.0800 
    140 H140       -6.0614  -18.3315  -43.8261 H         1 UNK         0.0800 
    141 H141       -6.0493  -20.8018  -46.6248 H         1 UNK         0.0800 
    142 H142       -6.5945  -22.2141  -45.8209 H         1 UNK         0.0800 
    143 H143       -4.5084  -22.3334  -47.4194 H         1 UNK         0.0600 
    144 H144       -3.3604  -20.6695  -45.4361 H         1 UNK         0.3000 
    145 H145       -0.0630  -21.7827  -45.5047 H         1 UNK         0.0600 
    146 H146        0.6384  -19.5120  -46.2796 H         1 UNK         0.0600 
    147 H147       -0.9098  -19.3276  -47.1036 H         1 UNK         0.0600 
    148 H148        0.2116  -20.5847  -47.5996 H         1 UNK         0.0600 
    149 H149       -0.8815  -19.3746  -44.4463 H         1 UNK         0.3000 
    150 H150       -2.0387  -19.0233  -42.4811 H         1 UNK         0.0600 
    151 H151       -2.5870  -21.5180  -40.7808 H         1 UNK         0.0600 
    152 H152       -3.7966  -20.6123  -41.6810 H         1 UNK         0.0600 
    153 H153       -2.9562  -19.8517  -40.3394 H         1 UNK         0.0600 
    154 H154       -0.3706  -20.5609  -40.6503 H         1 UNK         0.3000 
    155 H155        1.6649  -19.4013  -40.0318 H         1 UNK         0.0600 
    156 H156        2.7172  -20.9850  -42.4585 H         1 UNK         0.0600 
    157 H157        1.8118  -21.6655  -41.1123 H         1 UNK         0.0600 
    158 H158        3.4226  -21.0228  -40.8436 H         1 UNK         0.0600 
    159 H159        2.7052  -18.0553  -42.3956 H         1 UNK         0.3000 
    160 H160        4.7548  -16.0252  -40.5311 H         1 UNK         0.0600 
    161 H161        6.1312  -18.1837  -42.2204 H         1 UNK         0.0600 
    162 H162        6.5332  -17.7781  -40.5564 H         1 UNK         0.0600 
    163 H163        6.7972  -16.5975  -41.8280 H         1 UNK         0.0600 
    164 H164        4.7514  -16.5104  -43.3559 H         1 UNK         0.3000 
    165 H165        1.8590  -14.9322  -44.2692 H         1 UNK         0.0600 
    166 H166        2.7721  -12.7835  -43.4435 H         1 UNK         0.0600 
    167 H167        4.3976  -13.2423  -43.9361 H         1 UNK         0.0600 
    168 H168        3.1491  -12.9679  -45.1486 H         1 UNK         0.0600 
    169 H169        4.5794  -15.2442  -45.3615 H         1 UNK         0.3000 
    170 H170        4.7637  -16.6164  -47.2139 H         1 UNK         0.0600 
    171 H171        4.4689  -19.1626  -45.4972 H         1 UNK         0.0600 
    172 H172        5.6540  -17.8906  -45.2231 H         1 UNK         0.0600 
    173 H173        5.7490  -18.8725  -46.6728 H         1 UNK         0.0600 
    174 H174        2.3647  -18.1382  -47.4757 H         1 UNK         0.3000 
    175 H175        3.0138  -18.8941  -50.8827 H         1 UNK         0.0600 
    176 H176        3.6081  -21.0731  -49.8961 H         1 UNK         0.0600 
    177 H177        2.3768  -20.8919  -48.6567 H         1 UNK         0.0600 
    178 H178        1.9126  -21.0673  -50.3509 H         1 UNK         0.0600 
    179 H179        0.7254  -19.1380  -49.1417 H         1 UNK         0.3000 
    180 H180        2.8220  -16.3964  -50.4234 H         1 UNK         0.0600 
    181 H181        0.7688  -16.4382  -52.7029 H         1 UNK         0.0600 
    182 H182        1.9628  -17.7086  -52.4967 H         1 UNK         0.0600 
    183 H183        2.4811  -16.0687  -52.8373 H         1 UNK         0.0600 
    184 H184        0.3946  -14.9829  -50.0819 H         1 UNK         0.3000 
    185 H185        1.9416  -11.7949  -50.2319 H         1 UNK         0.0600 
    186 H186        0.8790  -11.9083  -52.4819 H         1 UNK         0.0600 
    187 H187       -0.4926  -12.7821  -51.8153 H         1 UNK         0.0600 
    188 H188       -0.1820  -11.1149  -51.3293 H         1 UNK         0.0600 
    189 H189       -0.6312  -12.6466  -49.3361 H         1 UNK         0.3000 
    190 H190       -3.3540  -23.0614  -44.1482 H         1 UNK         0.3000 
    191 H191       -4.2976  -25.8872  -44.3671 H         1 UNK         0.0600 
    192 H192       -4.8983  -24.6889  -42.2793 H         1 UNK         0.0600 
    193 H193       -3.7364  -25.9644  -41.9459 H         1 UNK         0.0600 
    194 H194       -3.2078  -24.2859  -41.9906 H         1 UNK         0.0600 
    195 H195       -1.3994  -23.8390  -43.8119 H         1 UNK         0.3000 
    196 H196        0.3687  -26.0435  -43.4666 H         1 UNK         0.0600 
    197 H197        2.1131  -24.2899  -43.3685 H         1 UNK         0.0600 
    198 H198        0.7093  -23.8196  -42.4239 H         1 UNK         0.0600 
    199 H199        0.9936  -23.0948  -44.0024 H         1 UNK         0.0600 
    200 H200       -0.5194  -24.2487  -46.4049 H         1 UNK         0.3000 
    201 H201        1.4483  -25.8631  -47.9899 H         1 UNK         0.0600 
    202 H202        1.8766  -23.8101  -49.3134 H         1 UNK         0.0600 
    203 H203        2.2712  -23.5219  -47.6270 H         1 UNK         0.0600 
    204 H204        0.7704  -22.8906  -48.3027 H         1 UNK         0.0600 
    205 H205       -1.7996  -25.1382  -47.5258 H         1 UNK         0.3000 
    206 H206       -3.7032  -25.3363  -48.6263 H         1 UNK         0.0600 
    207 H207       -2.9013  -27.6215  -49.2739 H         1 UNK         0.0600 
    208 H208       -3.9753  -26.9202  -50.4729 H         1 UNK         0.0600 
    209 H209       -2.2451  -26.9599  -50.7713 H         1 UNK         0.0600 
    210 H210       -2.0734  -23.0231  -48.9904 H         1 UNK         0.3000 
    211 H211       -1.8348  -22.1519  -51.6567 H         1 UNK         0.0600 
    212 H212       -1.4508  -19.9146  -50.6129 H         1 UNK         0.0600 
    213 H213       -0.5892  -21.1777  -49.7525 H         1 UNK         0.0600 
    214 H214       -2.0807  -20.5065  -49.0842 H         1 UNK         0.0600 
    215 H215       -4.6593  -22.1502  -49.6174 H         1 UNK         0.3000 
    216 H216       -6.1856  -20.1673  -51.0831 H         1 UNK         0.0600 
    217 H217       -6.7317  -20.5667  -48.7591 H         1 UNK         0.0600 
    218 H218       -6.9759  -22.2966  -49.0296 H         1 UNK         0.0600 
    219 H219       -8.0923  -21.1185  -49.7110 H         1 UNK         0.0600 
    220 H220       -5.5274  -23.6058  -51.5549 H         1 UNK         0.3000 
    221 H221       -7.7979  -24.0785  -53.3278 H         1 UNK         0.0600 
    222 H222       -5.2386  -25.7163  -52.9231 H         1 UNK         0.0600 
    223 H223       -6.7295  -25.9246  -52.0045 H         1 UNK         0.0600 
    224 H224       -6.7054  -26.2419  -53.7325 H         1 UNK         0.0600 
    225 H225       -4.3900  -23.1376  -53.6067 H         1 UNK         0.3000 
    226 H226       -4.3632  -22.9830  -56.5219 H         1 UNK         0.0600 
    227 H227       -2.2914  -23.4382  -55.2172 H         1 UNK         0.0600 
    228 H228       -2.1299  -21.9370  -56.1153 H         1 UNK         0.0600 
    229 H229       -2.4472  -21.8914  -54.3858 H         1 UNK         0.0600 
    230 H230       -5.3617  -20.9655  -53.9092 H         1 UNK         0.3000 
    231 H231       -6.1541  -18.9389  -53.5965 H         1 UNK         0.0600 
    232 H232       -6.5231  -18.6735  -56.6275 H         1 UNK         0.0600 
    233 H233       -7.2917  -17.6941  -55.3870 H         1 UNK         0.0600 
    234 H234       -7.6911  -19.3988  -55.5229 H         1 UNK         0.0600 
    235 H235       -3.4102  -19.3592  -53.6509 H         1 UNK         0.3000 
    236 H236       -1.9327  -17.5858  -55.2948 H         1 UNK         0.0600 
    237 H237       -1.0728  -18.8431  -52.6375 H         1 UNK         0.0600 
    238 H238       -1.0717  -19.6928  -54.1829 H         1 UNK         0.0600 
    239 H239       -0.0270  -18.3061  -53.9478 H         1 UNK         0.0600 
    240 H240       -3.4044  -17.1134  -52.1362 H         1 UNK         0.3000 
    241 H241       -2.1608  -14.5289  -51.6401 H         1 UNK         0.0600 
    242 H242       -4.5655  -15.3186  -53.9316 H         1 UNK         0.3800 
    243 H243       -5.3573  -13.7659  -53.9038 H         1 UNK         0.3800 
    244 H244       -2.6021  -15.7287  -49.6667 H         1 UNK         0.0800 
    245 H245       -3.7574  -14.4425  -49.6683 H         1 UNK         0.0800 
    246 H246       -4.5046  -18.8954  -49.5548 H         1 UNK         0.0800 
    247 H247       -2.9733  -18.0817  -49.7296 H         1 UNK         0.0800 
@<TRIPOS>BOND
     1    1    2 1    
     2    1  127 1    
     3    1  128 1    
     4    1  129 1    
     5    2    3 2    
     6    2    4 am   BACKBONE|DICT|INTERRES
     7    4    5 1    
     8    4  130 1    
     9    5    6 1    
    10    5   65 1    
    11    5  131 1    
    12    6    7 1    
    13    6  132 1    
    14    6  133 1    
    15    7    8 1    
    16    8    9 1    
    17    8  134 1    
    18    8  135 1    
    19    9   10 ar   
    20    9   14 ar   
    21   10   11 ar   
    22   10  136 1    
    23   11   12 ar   
    24   11  126 1    
    25   12   13 ar   
    26   12  137 1    
    27   13   14 ar   
    28   13   15 1    
    29   14  138 1    
    30   15   16 1    
    31   15  139 1    
    32   15  140 1    
    33   16   17 1    
    34   17   18 1    
    35   17  141 1    
    36   17  142 1    
    37   18   19 1    
    38   18   67 1    
    39   18  143 1    
    40   19   20 am   BACKBONE|DICT|INTERRES
    41   19  144 1    
    42   20   21 2    
    43   20   22 1    
    44   22   23 1    
    45   22   24 1    
    46   22  145 1    
    47   23  146 1    
    48   23  147 1    
    49   23  148 1    
    50   24   25 am   BACKBONE|DICT|INTERRES
    51   24  149 1    
    52   25   26 2    
    53   25   27 1    
    54   27   28 1    
    55   27   29 1    
    56   27  150 1    
    57   28  151 1    
    58   28  152 1    
    59   28  153 1    
    60   29   30 am   BACKBONE|DICT|INTERRES
    61   29  154 1    
    62   30   31 2    
    63   30   32 1    
    64   32   33 1    
    65   32   34 1    
    66   32  155 1    
    67   33  156 1    
    68   33  157 1    
    69   33  158 1    
    70   34   35 am   BACKBONE|DICT|INTERRES
    71   34  159 1    
    72   35   36 2    
    73   35   37 1    
    74   37   38 1    
    75   37   39 1    
    76   37  160 1    
    77   38  161 1    
    78   38  162 1    
    79   38  163 1    
    80   39   40 am   BACKBONE|DICT|INTERRES
    81   39  164 1    
    82   40   41 2    
    83   40   42 1    
    84   42   43 1    
    85   42   44 1    
    86   42  165 1    
    87   43  166 1    
    88   43  167 1    
    89   43  168 1    
    90   44   45 am   BACKBONE|DICT|INTERRES
    91   44  169 1    
    92   45   46 2    
    93   45   47 1    
    94   47   48 1    
    95   47   49 1    
    96   47  170 1    
    97   48  171 1    
    98   48  172 1    
    99   48  173 1    
   100   49   50 am   BACKBONE|DICT|INTERRES
   101   49  174 1    
   102   50   51 2    
   103   50   52 1    
   104   52   53 1    
   105   52   54 1    
   106   52  175 1    
   107   53  176 1    
   108   53  177 1    
   109   53  178 1    
   110   54   55 am   BACKBONE|DICT|INTERRES
   111   54  179 1    
   112   55   56 2    
   113   55   57 1    
   114   57   58 1    
   115   57   59 1    
   116   57  180 1    
   117   58  181 1    
   118   58  182 1    
   119   58  183 1    
   120   59   60 am   BACKBONE|DICT|INTERRES
   121   59  184 1    
   122   60   61 2    
   123   60   62 1    
   124   62   63 1    
   125   62   64 1    
   126   62  185 1    
   127   63  186 1    
   128   63  187 1    
   129   63  188 1    
   130   64   65 am   BACKBONE|DICT|INTERRES
   131   64  189 1    
   132   65   66 2    
   133   67   68 2    
   134   67   69 am   BACKBONE|DICT|INTERRES
   135   69   70 1    
   136   69  190 1    
   137   70   71 1    
   138   70   72 1    
   139   70  191 1    
   140   71  192 1    
   141   71  193 1    
   142   71  194 1    
   143   72   73 2    
   144   72   74 am   BACKBONE|DICT|INTERRES
   145   74   75 1    
   146   74  195 1    
   147   75   76 1    
   148   75   77 1    
   149   75  196 1    
   150   76  197 1    
   151   76  198 1    
   152   76  199 1    
   153   77   78 2    
   154   77   79 am   BACKBONE|DICT|INTERRES
   155   79   80 1    
   156   79  200 1    
   157   80   81 1    
   158   80   82 1    
   159   80  201 1    
   160   81  202 1    
   161   81  203 1    
   162   81  204 1    
   163   82   83 2    
   164   82   84 am   BACKBONE|DICT|INTERRES
   165   84   85 1    
   166   84  205 1    
   167   85   86 1    
   168   85   87 1    
   169   85  206 1    
   170   86  207 1    
   171   86  208 1    
   172   86  209 1    
   173   87   88 2    
   174   87   89 am   BACKBONE|DICT|INTERRES
   175   89   90 1    
   176   89  210 1    
   177   90   91 1    
   178   90   92 1    
   179   90  211 1    
   180   91  212 1    
   181   91  213 1    
   182   91  214 1    
   183   92   93 2    
   184   92   94 am   BACKBONE|DICT|INTERRES
   185   94   95 1    
   186   94  215 1    
   187   95   96 1    
   188   95   97 1    
   189   95  216 1    
   190   96  217 1    
   191   96  218 1    
   192   96  219 1    
   193   97   98 2    
   194   97   99 am   BACKBONE|DICT|INTERRES
   195   99  100 1    
   196   99  220 1    
   197  100  101 1    
   198  100  102 1    
   199  100  221 1    
   200  101  222 1    
   201  101  223 1    
   202  101  224 1    
   203  102  103 2    
   204  102  104 am   BACKBONE|DICT|INTERRES
   205  104  105 1    
   206  104  225 1    
   207  105  106 1    
   208  105  107 1    
   209  105  226 1    
   210  106  227 1    
   211  106  228 1    
   212  106  229 1    
   213  107  108 2    
   214  107  109 am   BACKBONE|DICT|INTERRES
   215  109  110 1    
   216  109  230 1    
   217  110  111 1    
   218  110  112 1    
   219  110  231 1    
   220  111  232 1    
   221  111  233 1    
   222  111  234 1    
   223  112  113 2    
   224  112  114 am   BACKBONE|DICT|INTERRES
   225  114  115 1    
   226  114  235 1    
   227  115  116 1    
   228  115  117 1    
   229  115  236 1    
   230  116  237 1    
   231  116  238 1    
   232  116  239 1    
   233  117  118 2    
   234  117  119 am   BACKBONE|DICT|INTERRES
   235  119  120 1    
   236  119  240 1    
   237  120  121 1    
   238  120  124 1    
   239  120  241 1    
   240  121  122 am   BACKBONE|DICT|INTERRES
   241  121  123 2    
   242  122  242 1    
   243  122  243 1    
   244  124  125 1    
   245  124  244 1    
   246  124  245 1    
   247  125  126 1    
   248  126  246 1    
   249  126  247 1    
@<TRIPOS>SUBSTRUCTURE
     1 UNK         1 GROUP             0       ****    0 ROOT    
