@<TRIPOS>MOLECULE
3R540
247   249    1
SMALL
USER_CHARGES


@<TRIPOS>ATOM
      1 CA         -1.0859  -10.3517  -44.9798 C.3       0 UNK        -0.1800 
      2 C           0.1878  -10.3298  -45.8117 C.2       0 UNK         0.5000 
      3 O           1.2470   -9.9654  -45.3015 O.2       0 UNK        -0.5000 
      4 N           0.0968  -10.7404  -47.0838 N.am      1 UNK        -0.5000 
      5 CA          1.2003  -10.7862  -48.0569 C.3       1 UNK         0.1400 
      6 C6          0.6833  -11.0605  -49.4927 C.3       23 UNK        -0.0398 
      7 S7         -0.2441  -12.6293  -49.6575 S.3       23 UNK        -0.2404 
      8 C8          0.8084  -13.5477  -50.8234 C.3       23 UNK        -0.0205 
      9 C9          0.4405  -15.0226  -50.8429 C.ar      23 UNK        -0.0193 
     10 C10        -0.6859  -15.4652  -51.5454 C.ar      23 UNK        -0.1150 
     11 C11        -1.0447  -16.8172  -51.5300 C.ar      23 UNK        -0.0193 
     12 C12        -0.2606  -17.7273  -50.8155 C.ar      23 UNK        -0.1150 
     13 C13         0.8762  -17.2993  -50.1253 C.ar      23 UNK        -0.0193 
     14 C14         1.2220  -15.9457  -50.1423 C.ar      23 UNK        -0.1150 
     15 C15         1.7223  -18.2996  -49.3530 C.3       23 UNK        -0.0205 
     16 S16         1.6318  -18.0468  -47.5520 S.3       23 UNK        -0.2404 
     17 C17        -0.1496  -18.2600  -47.2145 C.3       23 UNK        -0.0398 
     18 CA         -0.5478  -19.7421  -47.0403 C.3       11 UNK         0.1400 
     19 N           0.0682  -20.3642  -45.8655 N.am      11 UNK        -0.5000 
     20 C           0.0282  -21.6727  -45.5829 C.2       10 UNK         0.5000 
     21 O          -0.5146  -22.5073  -46.3064 O.2       10 UNK        -0.5000 
     22 CA          0.6502  -22.1162  -44.2466 C.3       10 UNK         0.1400 
     23 CB          2.1760  -22.2521  -44.3600 C.3       10 UNK        -0.1800 
     24 N           0.3111  -21.2026  -43.1546 N.am      10 UNK        -0.5000 
     25 C          -0.9158  -21.0874  -42.6266 C.2       9 UNK         0.5000 
     26 O          -1.8729  -21.7819  -42.9711 O.2       9 UNK        -0.5000 
     27 CA         -1.1181  -19.9884  -41.5642 C.3       9 UNK         0.1400 
     28 CB         -0.6558  -20.4739  -40.1824 C.3       9 UNK        -0.1800 
     29 N          -0.4321  -18.7382  -41.8946 N.am      9 UNK        -0.5000 
     30 C          -0.7037  -17.9847  -42.9693 C.2       8 UNK         0.5000 
     31 O          -1.6027  -18.2359  -43.7698 O.2       8 UNK        -0.5000 
     32 CA          0.2187  -16.7819  -43.2336 C.3       8 UNK         0.1400 
     33 CB         -0.2377  -15.5559  -42.4295 C.3       8 UNK        -0.1800 
     34 N           1.6295  -17.0621  -42.9593 N.am      8 UNK        -0.5000 
     35 C           2.3464  -18.0317  -43.5467 C.2       7 UNK         0.5000 
     36 O           1.8880  -18.8062  -44.3815 O.2       7 UNK        -0.5000 
     37 CA          3.7978  -18.2126  -43.0786 C.3       7 UNK         0.1400 
     38 CB          4.7226  -17.1523  -43.6937 C.3       7 UNK        -0.1800 
     39 N           3.8880  -18.1762  -41.6215 N.am      7 UNK        -0.5000 
     40 C           3.4284  -19.1465  -40.8183 C.2       6 UNK         0.5000 
     41 O           2.9528  -20.2071  -41.2256 O.2       6 UNK        -0.5000 
     42 CA          3.4735  -18.8618  -39.3062 C.3       6 UNK         0.1400 
     43 CB          4.8441  -19.2382  -38.7239 C.3       6 UNK        -0.1800 
     44 N           3.1811  -17.4615  -38.9926 N.am      6 UNK        -0.5000 
     45 C           1.9873  -16.8797  -39.1760 C.2       5 UNK         0.5000 
     46 O           0.9951  -17.4735  -39.5988 O.2       5 UNK        -0.5000 
     47 CA          1.9044  -15.3711  -38.8764 C.3       5 UNK         0.1400 
     48 CB          1.6362  -15.1307  -37.3833 C.3       5 UNK        -0.1800 
     49 N           3.1057  -14.6333  -39.2814 N.am      5 UNK        -0.5000 
     50 C           3.5173  -14.4965  -40.5485 C.2       4 UNK         0.5000 
     51 O           2.9491  -15.0174  -41.5097 O.2       4 UNK        -0.5000 
     52 CA          4.8062  -13.6916  -40.7757 C.3       4 UNK         0.1400 
     53 CB          6.0194  -14.6310  -40.8507 C.3       4 UNK        -0.1800 
     54 N           4.7249  -12.9183  -42.0131 N.am      4 UNK        -0.5000 
     55 C           4.0929  -11.7466  -42.1383 C.2       3 UNK         0.5000 
     56 O           3.5358  -11.1718  -41.2018 O.2       3 UNK        -0.5000 
     57 CA          4.0873  -11.0933  -43.5339 C.3       3 UNK         0.1400 
     58 CB          5.4949  -10.6211  -43.9479 C.3       3 UNK        -0.1800 
     59 N           3.4592  -11.9048  -44.5823 N.am      3 UNK        -0.5000 
     60 C           3.8636  -13.0701  -45.1124 C.2       2 UNK         0.5000 
     61 O           4.8824  -13.6663  -44.7606 O.2       2 UNK        -0.5000 
     62 CA          2.9818  -13.6838  -46.2221 C.3       2 UNK         0.1400 
     63 CB          2.1817  -14.8691  -45.6700 C.3       2 UNK        -0.1800 
     64 N           2.0349  -12.7345  -46.8059 N.am      2 UNK        -0.5000 
     65 C           2.3441  -11.7515  -47.6623 C.2       1 UNK         0.5000 
     66 O           3.4744  -11.5746  -48.1181 O.2       1 UNK        -0.5000 
     67 C          -2.0813  -19.8986  -47.0471 C.2       11 UNK         0.5000 
     68 O          -2.6487  -20.1513  -48.1075 O.2       11 UNK        -0.5000 
     69 N          -2.7238  -19.7945  -45.8754 N.am      12 UNK        -0.5000 
     70 CA         -4.1586  -20.0240  -45.6953 C.3       12 UNK         0.1400 
     71 CB         -4.5741  -19.6030  -44.2778 C.3       12 UNK        -0.1800 
     72 C          -4.5771  -21.4798  -45.9758 C.2       12 UNK         0.5000 
     73 O          -5.6576  -21.7002  -46.5223 O.2       12 UNK        -0.5000 
     74 N          -3.7116  -22.4411  -45.6221 N.am      13 UNK        -0.5000 
     75 CA         -3.8881  -23.8588  -45.9389 C.3       13 UNK         0.1400 
     76 CB         -2.9545  -24.7080  -45.0631 C.3       13 UNK        -0.1800 
     77 C          -3.6619  -24.1446  -47.4347 C.2       13 UNK         0.5000 
     78 O          -4.4283  -24.9036  -48.0304 O.2       13 UNK        -0.5000 
     79 N          -2.6384  -23.5073  -48.0251 N.am      14 UNK        -0.5000 
     80 CA         -2.3444  -23.5555  -49.4589 C.3       14 UNK         0.1400 
     81 CB         -1.0296  -22.8203  -49.7588 C.3       14 UNK        -0.1800 
     82 C          -3.4999  -22.9910  -50.3026 C.2       14 UNK         0.5000 
     83 O          -3.9286  -23.6441  -51.2530 O.2       14 UNK        -0.5000 
     84 N          -4.0543  -21.8462  -49.8811 N.am      15 UNK        -0.5000 
     85 CA         -5.2436  -21.1900  -50.4348 C.3       15 UNK         0.1400 
     86 CB         -5.2562  -19.7208  -49.9769 C.3       15 UNK        -0.1800 
     87 C          -6.5722  -21.9152  -50.1103 C.2       15 UNK         0.5000 
     88 O          -7.5860  -21.2709  -49.8341 O.2       15 UNK        -0.5000 
     89 N          -6.5417  -23.2469  -50.1624 N.am      16 UNK        -0.5000 
     90 CA         -7.6482  -24.1705  -49.9595 C.3       16 UNK         0.1400 
     91 CB         -8.0065  -24.2863  -48.4666 C.3       16 UNK        -0.1800 
     92 C          -7.2605  -25.5306  -50.5538 C.2       16 UNK         0.5000 
     93 O          -8.0635  -26.1321  -51.2676 O.2       16 UNK        -0.5000 
     94 N          -6.0261  -25.9775  -50.2742 N.am      17 UNK        -0.5000 
     95 CA         -5.4470  -27.2057  -50.8174 C.3       17 UNK         0.1400 
     96 CB         -4.1697  -27.5509  -50.0364 C.3       17 UNK        -0.1800 
     97 C          -5.1498  -27.1260  -52.3274 C.2       17 UNK         0.5000 
     98 O          -5.3617  -28.1128  -53.0342 O.2       17 UNK        -0.5000 
     99 N          -4.6557  -25.9718  -52.7969 N.am      18 UNK        -0.5000 
    100 CA        -4.3296  -25.7298  -54.2003 C.3       18 UNK         0.1400 
    101 CB        -3.3449  -24.5547  -54.3012 C.3       18 UNK        -0.1800 
    102 C         -5.5993  -25.4592  -55.0263 C.2       18 UNK         0.5000 
    103 O         -6.4017  -24.5976  -54.6580 O.2       18 UNK        -0.5000 
    104 N         -5.7426  -26.1868  -56.1402 N.am      19 UNK        -0.5000 
    105 CA        -6.8616  -26.0659  -57.0798 C.3       19 UNK         0.1400 
    106 CB        -7.0963  -27.4361  -57.7364 C.3       19 UNK        -0.1800 
    107 C         -6.6341  -24.9859  -58.1578 C.2       19 UNK         0.5000 
    108 O         -7.5758  -24.6416  -58.8736 O.2       19 UNK        -0.5000 
    109 N         -5.3996  -24.4836  -58.2665 N.am      20 UNK        -0.5000 
    110 CA        -4.9731  -23.4304  -59.1832 C.3       20 UNK         0.1400 
    111 CB        -4.1014  -24.0548  -60.2854 C.3       20 UNK        -0.1800 
    112 C         -4.1882  -22.3719  -58.3943 C.2       20 UNK         0.5000 
    113 O         -3.7858  -22.6328  -57.2560 O.2       20 UNK        -0.5000 
    114 N         -3.9888  -21.1977  -59.0102 N.am      21 UNK        -0.5000 
    115 CA        -3.3487  -20.0046  -58.4432 C.3       21 UNK         0.1400 
    116 CB        -1.8390  -20.2437  -58.2111 C.3       21 UNK        -0.1800 
    117 C         -4.1104  -19.5171  -57.1939 C.2       21 UNK         0.5000 
    118 O         -5.1902  -18.9413  -57.3395 O.2       21 UNK        -0.5000 
    119 N         -3.5650  -19.7869  -56.0026 N.am      22 UNK        -0.5000 
    120 CA        -4.2383  -19.5855  -54.7102 C.3       22 UNK         0.1400 
    121 C         -5.4226  -20.5661  -54.4555 C.2       22 UNK         0.5000 
    122 N         -5.4840  -21.7169  -55.1141 N.am      22 UNK        -0.7600 
    123 O         -6.2946  -20.2749  -53.6426 O.2       22 UNK        -0.5000 
    124 C124       -3.2383  -19.6541  -53.5286 C.3       23 UNK        -0.0398 
    125 S125       -1.8983  -18.4150  -53.6315 S.3       23 UNK        -0.2404 
    126 C126       -2.2983  -17.3009  -52.2433 C.3       23 UNK        -0.0205 
    127 H127       -1.9404  -10.7080  -45.5557 H         1 UNK         0.0600 
    128 H128       -1.3137   -9.3493  -44.6174 H         1 UNK         0.0600 
    129 H129       -0.9593  -11.0066  -44.1177 H         1 UNK         0.0600 
    130 H130       -0.7978  -11.0480  -47.4396 H         1 UNK         0.3000 
    131 H131        1.6447   -9.7886  -48.0639 H         1 UNK         0.0600 
    132 H132        1.5077  -11.0330  -50.2075 H         1 UNK         0.0800 
    133 H133        0.0166  -10.2518  -49.7947 H         1 UNK         0.0800 
    134 H134        0.7023  -13.1235  -51.8229 H         1 UNK         0.0800 
    135 H135        1.8564  -13.4276  -50.5433 H         1 UNK         0.0800 
    136 H136       -1.2938  -14.7511  -52.0833 H         1 UNK         0.1150 
    137 H137       -0.5425  -18.7711  -50.7961 H         1 UNK         0.1150 
    138 H138        2.0916  -15.6113  -49.5937 H         1 UNK         0.1150 
    139 H139        1.4259  -19.3232  -49.5863 H         1 UNK         0.0800 
    140 H140        2.7620  -18.2047  -49.6688 H         1 UNK         0.0800 
    141 H141       -0.7233  -17.7898  -48.0138 H         1 UNK         0.0800 
    142 H142       -0.3918  -17.6984  -46.3120 H         1 UNK         0.0800 
    143 H143       -0.1797  -20.2855  -47.9122 H         1 UNK         0.0600 
    144 H144        0.6010  -19.7489  -45.2529 H         1 UNK         0.3000 
    145 H145        0.2444  -23.1004  -44.0030 H         1 UNK         0.0600 
    146 H146        2.6110  -22.5996  -43.4227 H         1 UNK         0.0600 
    147 H147        2.4445  -22.9742  -45.1320 H         1 UNK         0.0600 
    148 H148        2.6527  -21.3066  -44.6181 H         1 UNK         0.0600 
    149 H149        1.0415  -20.5785  -42.8378 H         1 UNK         0.3000 
    150 H150       -2.1877  -19.7755  -41.5095 H         1 UNK         0.0600 
    151 H151       -1.1669  -21.3952  -39.9003 H         1 UNK         0.0600 
    152 H152       -0.8714  -19.7328  -39.4125 H         1 UNK         0.0600 
    153 H153        0.4163  -20.6724  -40.1631 H         1 UNK         0.0600 
    154 H154        0.2883  -18.4253  -41.2516 H         1 UNK         0.3000 
    155 H155        0.1388  -16.5370  -44.2935 H         1 UNK         0.0600 
    156 H156       -0.1988  -15.7424  -41.3568 H         1 UNK         0.0600 
    157 H157       -1.2655  -15.2889  -42.6779 H         1 UNK         0.0600 
    158 H158        0.3846  -14.6864  -42.6408 H         1 UNK         0.0600 
    159 H159        2.0971  -16.4329  -42.3104 H         1 UNK         0.3000 
    160 H160        4.1401  -19.1925  -43.4186 H         1 UNK         0.0600 
    161 H161        4.4210  -16.1406  -43.4232 H         1 UNK         0.0600 
    162 H162        4.7115  -17.2146  -44.7825 H         1 UNK         0.0600 
    163 H163        5.7545  -17.2933  -43.3725 H         1 UNK         0.0600 
    164 H164        4.2183  -17.3188  -41.2061 H         1 UNK         0.3000 
    165 H165        2.7145  -19.4845  -38.8276 H         1 UNK         0.0600 
    166 H166        4.8617  -19.1083  -37.6416 H         1 UNK         0.0600 
    167 H167        5.0806  -20.2833  -38.9285 H         1 UNK         0.0600 
    168 H168        5.6445  -18.6310  -39.1486 H         1 UNK         0.0600 
    169 H169        3.9419  -16.9019  -38.6370 H         1 UNK         0.3000 
    170 H170        1.0605  -14.9685  -39.4398 H         1 UNK         0.0600 
    171 H171        0.7353  -15.6540  -37.0598 H         1 UNK         0.0600 
    172 H172        2.4610  -15.4826  -36.7625 H         1 UNK         0.0600 
    173 H173        1.4867  -14.0711  -37.1751 H         1 UNK         0.0600 
    174 H174        3.6293  -14.1853  -38.5430 H         1 UNK         0.3000 
    175 H175        4.9510  -13.0077  -39.9366 H         1 UNK         0.0600 
    176 H176        6.1126  -15.2272  -39.9422 H         1 UNK         0.0600 
    177 H177        5.9465  -15.3205  -41.6915 H         1 UNK         0.0600 
    178 H178        6.9451  -14.0665  -40.9639 H         1 UNK         0.0600 
    179 H179        5.0625  -13.3604  -42.8631 H         1 UNK         0.3000 
    180 H180        3.4647  -10.2007  -43.4535 H         1 UNK         0.0600 
    181 H181        6.1941  -11.4506  -44.0551 H         1 UNK         0.0600 
    182 H182        5.9102   -9.9415  -43.2028 H         1 UNK         0.0600 
    183 H183        5.4651  -10.0845  -44.8963 H         1 UNK         0.0600 
    184 H184        2.6054  -11.5002  -44.9507 H         1 UNK         0.3000 
    185 H185        3.6404  -14.0485  -47.0130 H         1 UNK         0.0600 
    186 H186        2.8467  -15.6727  -45.3575 H         1 UNK         0.0600 
    187 H187        1.5835  -14.5785  -44.8064 H         1 UNK         0.0600 
    188 H188        1.5092  -15.2803  -46.4226 H         1 UNK         0.0600 
    189 H189        1.0754  -12.8071  -46.5009 H         1 UNK         0.3000 
    190 H190       -2.2039  -19.5015  -45.0522 H         1 UNK         0.3000 
    191 H191       -4.6889  -19.3868  -46.4061 H         1 UNK         0.0600 
    192 H192       -4.0445  -20.1757  -43.5161 H         1 UNK         0.0600 
    193 H193       -5.6426  -19.7563  -44.1215 H         1 UNK         0.0600 
    194 H194       -4.3691  -18.5465  -44.1048 H         1 UNK         0.0600 
    195 H195       -2.8527  -22.1775  -45.1571 H         1 UNK         0.3000 
    196 H196       -4.9166  -24.1377  -45.6998 H         1 UNK         0.0600 
    197 H197       -3.1083  -25.7714  -45.2500 H         1 UNK         0.0600 
    198 H198       -3.1416  -24.5324  -44.0036 H         1 UNK         0.0600 
    199 H199       -1.9042  -24.4909  -45.2561 H         1 UNK         0.0600 
    200 H200       -2.0143  -22.9515  -47.4475 H         1 UNK         0.3000 
    201 H201       -2.2129  -24.6043  -49.7315 H         1 UNK         0.0600 
    202 H202       -0.2091  -23.2163  -49.1602 H         1 UNK         0.0600 
    203 H203       -1.1057  -21.7524  -49.5589 H         1 UNK         0.0600 
    204 H204       -0.7536  -22.9347  -50.8077 H         1 UNK         0.0600 
    205 H205       -3.6202  -21.3692  -49.0937 H         1 UNK         0.3000 
    206 H206       -5.1419  -21.2055  -51.5189 H         1 UNK         0.0600 
    207 H207       -4.3107  -19.2274  -50.1974 H         1 UNK         0.0600 
    208 H208       -6.0424  -19.1584  -50.4820 H         1 UNK         0.0600 
    209 H209       -5.4276  -19.6418  -48.9027 H         1 UNK         0.0600 
    210 H210       -5.6711  -23.6665  -50.4729 H         1 UNK         0.3000 
    211 H211       -8.5168  -23.7988  -50.5069 H         1 UNK         0.0600 
    212 H212       -7.1532  -24.6114  -47.8707 H         1 UNK         0.0600 
    213 H213       -8.8100  -25.0076  -48.3136 H         1 UNK         0.0600 
    214 H214       -8.3461  -23.3319  -48.0644 H         1 UNK         0.0600 
    215 H215       -5.4561  -25.4739  -49.5998 H         1 UNK         0.3000 
    216 H216       -6.1651  -28.0138  -50.6632 H         1 UNK         0.0600 
    217 H217       -3.4180  -26.7664  -50.1293 H         1 UNK         0.0600 
    218 H218       -3.7257  -28.4778  -50.4016 H         1 UNK         0.0600 
    219 H219       -4.3809  -27.6870  -48.9756 H         1 UNK         0.0600 
    220 H220       -4.5152  -25.1885  -52.1650 H         1 UNK         0.3000 
    221 H221       -3.8275  -26.6159  -54.5946 H         1 UNK         0.0600 
    222 H222       -2.4455  -24.7415  -53.7144 H         1 UNK         0.0600 
    223 H223       -3.7873  -23.6247  -53.9439 H         1 UNK         0.0600 
    224 H224       -3.0324  -24.3947  -55.3333 H         1 UNK         0.0600 
    225 H225       -5.0437  -26.8799  -56.3670 H         1 UNK         0.3000 
    226 H226       -7.7662  -25.7946  -56.5313 H         1 UNK         0.0600 
    227 H227       -7.3093  -28.2002  -56.9885 H         1 UNK         0.0600 
    228 H228       -7.9484  -27.4042  -58.4168 H         1 UNK         0.0600 
    229 H229       -6.2288  -27.7611  -58.3121 H         1 UNK         0.0600 
    230 H230       -4.7081  -24.7526  -57.5807 H         1 UNK         0.3000 
    231 H231       -5.8379  -22.9414  -59.6363 H         1 UNK         0.0600 
    232 H232       -3.2084  -24.5262  -59.8728 H         1 UNK         0.0600 
    233 H233       -3.7744  -23.3030  -61.0045 H         1 UNK         0.0600 
    234 H234       -4.6539  -24.8137  -60.8396 H         1 UNK         0.0600 
    235 H235       -4.3776  -21.0742  -59.9347 H         1 UNK         0.3000 
    236 H236       -3.4431  -19.2134  -59.1886 H         1 UNK         0.0600 
    237 H237       -1.3599  -19.3509  -57.8070 H         1 UNK         0.0600 
    238 H238       -1.6434  -21.0650  -57.5215 H         1 UNK         0.0600 
    239 H239       -1.3370  -20.4796  -59.1494 H         1 UNK         0.0600 
    240 H240       -2.6858  -20.2814  -55.9761 H         1 UNK         0.3000 
    241 H241       -4.6690  -18.5823  -54.7186 H         1 UNK         0.0600 
    242 H242       -6.2186  -22.3791  -54.9077 H         1 UNK         0.3800 
    243 H243       -4.7755  -21.9648  -55.7987 H         1 UNK         0.3800 
    244 H244       -2.7777  -20.6428  -53.4836 H         1 UNK         0.0800 
    245 H245       -3.7661  -19.5347  -52.5833 H         1 UNK         0.0800 
    246 H246       -2.8836  -16.4612  -52.6211 H         1 UNK         0.0800 
    247 H247       -2.9247  -17.8027  -51.5068 H         1 UNK         0.0800 
@<TRIPOS>BOND
     1    1    2 1    
     2    1  127 1    
     3    1  128 1    
     4    1  129 1    
     5    2    3 2    
     6    2    4 am   BACKBONE|DICT|INTERRES
     7    4    5 1    
     8    4  130 1    
     9    5    6 1    
    10    5   65 1    
    11    5  131 1    
    12    6    7 1    
    13    6  132 1    
    14    6  133 1    
    15    7    8 1    
    16    8    9 1    
    17    8  134 1    
    18    8  135 1    
    19    9   10 ar   
    20    9   14 ar   
    21   10   11 ar   
    22   10  136 1    
    23   11   12 ar   
    24   11  126 1    
    25   12   13 ar   
    26   12  137 1    
    27   13   14 ar   
    28   13   15 1    
    29   14  138 1    
    30   15   16 1    
    31   15  139 1    
    32   15  140 1    
    33   16   17 1    
    34   17   18 1    
    35   17  141 1    
    36   17  142 1    
    37   18   19 1    
    38   18   67 1    
    39   18  143 1    
    40   19   20 am   BACKBONE|DICT|INTERRES
    41   19  144 1    
    42   20   21 2    
    43   20   22 1    
    44   22   23 1    
    45   22   24 1    
    46   22  145 1    
    47   23  146 1    
    48   23  147 1    
    49   23  148 1    
    50   24   25 am   BACKBONE|DICT|INTERRES
    51   24  149 1    
    52   25   26 2    
    53   25   27 1    
    54   27   28 1    
    55   27   29 1    
    56   27  150 1    
    57   28  151 1    
    58   28  152 1    
    59   28  153 1    
    60   29   30 am   BACKBONE|DICT|INTERRES
    61   29  154 1    
    62   30   31 2    
    63   30   32 1    
    64   32   33 1    
    65   32   34 1    
    66   32  155 1    
    67   33  156 1    
    68   33  157 1    
    69   33  158 1    
    70   34   35 am   BACKBONE|DICT|INTERRES
    71   34  159 1    
    72   35   36 2    
    73   35   37 1    
    74   37   38 1    
    75   37   39 1    
    76   37  160 1    
    77   38  161 1    
    78   38  162 1    
    79   38  163 1    
    80   39   40 am   BACKBONE|DICT|INTERRES
    81   39  164 1    
    82   40   41 2    
    83   40   42 1    
    84   42   43 1    
    85   42   44 1    
    86   42  165 1    
    87   43  166 1    
    88   43  167 1    
    89   43  168 1    
    90   44   45 am   BACKBONE|DICT|INTERRES
    91   44  169 1    
    92   45   46 2    
    93   45   47 1    
    94   47   48 1    
    95   47   49 1    
    96   47  170 1    
    97   48  171 1    
    98   48  172 1    
    99   48  173 1    
   100   49   50 am   BACKBONE|DICT|INTERRES
   101   49  174 1    
   102   50   51 2    
   103   50   52 1    
   104   52   53 1    
   105   52   54 1    
   106   52  175 1    
   107   53  176 1    
   108   53  177 1    
   109   53  178 1    
   110   54   55 am   BACKBONE|DICT|INTERRES
   111   54  179 1    
   112   55   56 2    
   113   55   57 1    
   114   57   58 1    
   115   57   59 1    
   116   57  180 1    
   117   58  181 1    
   118   58  182 1    
   119   58  183 1    
   120   59   60 am   BACKBONE|DICT|INTERRES
   121   59  184 1    
   122   60   61 2    
   123   60   62 1    
   124   62   63 1    
   125   62   64 1    
   126   62  185 1    
   127   63  186 1    
   128   63  187 1    
   129   63  188 1    
   130   64   65 am   BACKBONE|DICT|INTERRES
   131   64  189 1    
   132   65   66 2    
   133   67   68 2    
   134   67   69 am   BACKBONE|DICT|INTERRES
   135   69   70 1    
   136   69  190 1    
   137   70   71 1    
   138   70   72 1    
   139   70  191 1    
   140   71  192 1    
   141   71  193 1    
   142   71  194 1    
   143   72   73 2    
   144   72   74 am   BACKBONE|DICT|INTERRES
   145   74   75 1    
   146   74  195 1    
   147   75   76 1    
   148   75   77 1    
   149   75  196 1    
   150   76  197 1    
   151   76  198 1    
   152   76  199 1    
   153   77   78 2    
   154   77   79 am   BACKBONE|DICT|INTERRES
   155   79   80 1    
   156   79  200 1    
   157   80   81 1    
   158   80   82 1    
   159   80  201 1    
   160   81  202 1    
   161   81  203 1    
   162   81  204 1    
   163   82   83 2    
   164   82   84 am   BACKBONE|DICT|INTERRES
   165   84   85 1    
   166   84  205 1    
   167   85   86 1    
   168   85   87 1    
   169   85  206 1    
   170   86  207 1    
   171   86  208 1    
   172   86  209 1    
   173   87   88 2    
   174   87   89 am   BACKBONE|DICT|INTERRES
   175   89   90 1    
   176   89  210 1    
   177   90   91 1    
   178   90   92 1    
   179   90  211 1    
   180   91  212 1    
   181   91  213 1    
   182   91  214 1    
   183   92   93 2    
   184   92   94 am   BACKBONE|DICT|INTERRES
   185   94   95 1    
   186   94  215 1    
   187   95   96 1    
   188   95   97 1    
   189   95  216 1    
   190   96  217 1    
   191   96  218 1    
   192   96  219 1    
   193   97   98 2    
   194   97   99 am   BACKBONE|DICT|INTERRES
   195   99  100 1    
   196   99  220 1    
   197  100  101 1    
   198  100  102 1    
   199  100  221 1    
   200  101  222 1    
   201  101  223 1    
   202  101  224 1    
   203  102  103 2    
   204  102  104 am   BACKBONE|DICT|INTERRES
   205  104  105 1    
   206  104  225 1    
   207  105  106 1    
   208  105  107 1    
   209  105  226 1    
   210  106  227 1    
   211  106  228 1    
   212  106  229 1    
   213  107  108 2    
   214  107  109 am   BACKBONE|DICT|INTERRES
   215  109  110 1    
   216  109  230 1    
   217  110  111 1    
   218  110  112 1    
   219  110  231 1    
   220  111  232 1    
   221  111  233 1    
   222  111  234 1    
   223  112  113 2    
   224  112  114 am   BACKBONE|DICT|INTERRES
   225  114  115 1    
   226  114  235 1    
   227  115  116 1    
   228  115  117 1    
   229  115  236 1    
   230  116  237 1    
   231  116  238 1    
   232  116  239 1    
   233  117  118 2    
   234  117  119 am   BACKBONE|DICT|INTERRES
   235  119  120 1    
   236  119  240 1    
   237  120  121 1    
   238  120  124 1    
   239  120  241 1    
   240  121  122 am   BACKBONE|DICT|INTERRES
   241  121  123 2    
   242  122  242 1    
   243  122  243 1    
   244  124  125 1    
   245  124  244 1    
   246  124  245 1    
   247  125  126 1    
   248  126  246 1    
   249  126  247 1    
@<TRIPOS>SUBSTRUCTURE
     1 UNK         1 GROUP             0       ****    0 ROOT    
