@<TRIPOS>MOLECULE
3R540
247   249    1
SMALL
USER_CHARGES


@<TRIPOS>ATOM
      1 CA          0.5253  -13.6664  -53.0890 C.3       0 UNK        -0.1800 
      2 C           0.7734  -14.4925  -51.8346 C.2       0 UNK         0.5000 
      3 O           0.8801  -15.7159  -51.9186 O.2       0 UNK        -0.5000 
      4 N           0.8582  -13.8300  -50.6748 N.am      1 UNK        -0.5000 
      5 CA          1.1251  -14.4431  -49.3722 C.3       1 UNK         0.1400 
      6 C6          0.8470  -13.4658  -48.2047 C.3       23 UNK        -0.0398 
      7 S7         -0.9247  -13.0755  -48.0289 S.3       23 UNK        -0.2404 
      8 C8         -1.3781  -14.1611  -46.6385 C.3       23 UNK        -0.0205 
      9 C9         -1.3002  -15.6304  -47.0256 C.ar      23 UNK        -0.0193 
     10 C10        -2.3075  -16.1965  -47.8124 C.ar      23 UNK        -0.1150 
     11 C11        -2.2364  -17.5369  -48.1991 C.ar      23 UNK        -0.0193 
     12 C12        -1.1476  -18.3117  -47.7948 C.ar      23 UNK        -0.1150 
     13 C13        -0.1393  -17.7606  -47.0017 C.ar      23 UNK        -0.0193 
     14 C14        -0.2204  -16.4200  -46.6145 C.ar      23 UNK        -0.1150 
     15 C15         1.0401  -18.6214  -46.5903 C.3       23 UNK        -0.0205 
     16 S16         0.7448  -19.4442  -44.9983 S.3       23 UNK        -0.2404 
     17 C17         1.8323  -20.8998  -45.1809 C.3       23 UNK        -0.0398 
     18 CA          1.1485  -22.2374  -45.5835 C.3       11 UNK         0.1400 
     19 N           0.6859  -23.0201  -44.4346 N.am      11 UNK        -0.5000 
     20 C           0.5310  -24.3528  -44.4685 C.2       10 UNK         0.5000 
     21 O           0.7669  -25.0403  -45.4627 O.2       10 UNK        -0.5000 
     22 CA         -0.0068  -25.0274  -43.1945 C.3       10 UNK         0.1400 
     23 CB          1.1174  -25.2187  -42.1655 C.3       10 UNK        -0.1800 
     24 N          -1.1029  -24.2784  -42.5828 N.am      10 UNK        -0.5000 
     25 C          -2.3088  -24.1047  -43.1417 C.2       9 UNK         0.5000 
     26 O          -2.6367  -24.5881  -44.2246 O.2       9 UNK        -0.5000 
     27 CA         -3.2956  -23.1979  -42.3812 C.3       9 UNK         0.1400 
     28 CB         -4.1104  -24.0163  -41.3688 C.3       9 UNK        -0.1800 
     29 N          -2.6376  -22.0837  -41.6908 N.am      9 UNK        -0.5000 
     30 C          -1.9427  -21.1202  -42.3086 C.2       8 UNK         0.5000 
     31 O          -1.7841  -21.0700  -43.5305 O.2       8 UNK        -0.5000 
     32 CA         -1.2667  -20.0782  -41.4108 C.3       8 UNK         0.1400 
     33 CB          0.0607  -20.6277  -40.8550 C.3       8 UNK        -0.1800 
     34 N          -1.0148  -18.8769  -42.1976 N.am      8 UNK        -0.5000 
     35 C          -0.7984  -17.6568  -41.7031 C.2       7 UNK         0.5000 
     36 O          -0.7948  -17.3956  -40.4960 O.2       7 UNK        -0.5000 
     37 CA         -0.5551  -16.5342  -42.7218 C.3       7 UNK         0.1400 
     38 CB         -1.8839  -15.9592  -43.2412 C.3       7 UNK        -0.1800 
     39 N           0.2202  -15.4937  -42.0576 N.am      7 UNK        -0.5000 
     40 C           1.0397  -14.6236  -42.6523 C.2       6 UNK         0.5000 
     41 O           1.1641  -14.5233  -43.8747 O.2       6 UNK        -0.5000 
     42 CA          1.8791  -13.7492  -41.7043 C.3       6 UNK         0.1400 
     43 CB          2.9759  -14.5797  -41.0168 C.3       6 UNK        -0.1800 
     44 N           2.5162  -12.6523  -42.4277 N.am      6 UNK        -0.5000 
     45 C           2.0064  -11.4199  -42.5443 C.2       5 UNK         0.5000 
     46 O           0.9578  -11.0614  -42.0056 O.2       5 UNK        -0.5000 
     47 CA          2.8022  -10.4008  -43.3844 C.3       5 UNK         0.1400 
     48 CB          3.6099   -9.4659  -42.4704 C.3       5 UNK        -0.1800 
     49 N           3.7143  -11.0215  -44.3456 N.am      5 UNK        -0.5000 
     50 C           3.3304  -11.6184  -45.4807 C.2       4 UNK         0.5000 
     51 O           2.1593  -11.6800  -45.8531 O.2       4 UNK        -0.5000 
     52 CA          4.4326  -12.2402  -46.3617 C.3       4 UNK         0.1400 
     53 CB          5.8534  -11.7108  -46.0622 C.3       4 UNK        -0.1800 
     54 N           4.4127  -13.7042  -46.3219 N.am      4 UNK        -0.5000 
     55 C           4.5555  -14.4971  -45.2464 C.2       3 UNK         0.5000 
     56 O           4.7005  -14.0674  -44.1004 O.2       3 UNK        -0.5000 
     57 CA          4.5626  -16.0228  -45.4926 C.3       3 UNK         0.1400 
     58 CB          3.7373  -16.7941  -44.4477 C.3       3 UNK        -0.1800 
     59 N           4.0618  -16.3657  -46.8241 N.am      3 UNK        -0.5000 
     60 C           4.8081  -16.7098  -47.8811 C.2       2 UNK         0.5000 
     61 O           6.0337  -16.8199  -47.8510 O.2       2 UNK        -0.5000 
     62 CA          4.0538  -16.9533  -49.2055 C.3       2 UNK         0.1400 
     63 CB          3.8533  -18.4584  -49.4420 C.3       2 UNK        -0.1800 
     64 N           2.7504  -16.2818  -49.2784 N.am      2 UNK        -0.5000 
     65 C           2.5766  -14.9534  -49.3045 C.2       1 UNK         0.5000 
     66 O           3.5037  -14.1430  -49.2467 O.2       1 UNK        -0.5000 
     67 C           0.0456  -22.1183  -46.6591 C.2       11 UNK         0.5000 
     68 O           0.3610  -22.1656  -47.8462 O.2       11 UNK        -0.5000 
     69 N          -1.2250  -22.0297  -46.2352 N.am      12 UNK        -0.5000 
     70 CA         -2.3993  -22.0700  -47.1082 C.3       12 UNK         0.1400 
     71 CB         -3.6648  -21.7745  -46.2920 C.3       12 UNK        -0.1800 
     72 C          -2.5286  -23.4099  -47.8529 C.2       12 UNK         0.5000 
     73 O          -2.8090  -23.4108  -49.0514 O.2       12 UNK        -0.5000 
     74 N          -2.2766  -24.5215  -47.1464 N.am      13 UNK        -0.5000 
     75 CA         -2.2202  -25.8679  -47.7148 C.3       13 UNK         0.1400 
     76 CB         -2.1346  -26.9083  -46.5884 C.3       13 UNK        -0.1800 
     77 C          -1.0603  -26.0360  -48.7127 C.2       13 UNK         0.5000 
     78 O          -1.2707  -26.5950  -49.7889 O.2       13 UNK        -0.5000 
     79 N           0.1243  -25.5063  -48.3710 N.am      14 UNK        -0.5000 
     80 CA          1.3037  -25.4786  -49.2438 C.3       14 UNK         0.1400 
     81 CB          2.5217  -24.9825  -48.4509 C.3       14 UNK        -0.1800 
     82 C           1.0947  -24.6288  -50.5142 C.2       14 UNK         0.5000 
     83 O           1.5770  -25.0023  -51.5836 O.2       14 UNK        -0.5000 
     84 N           0.3397  -23.5301  -50.3819 N.am      15 UNK        -0.5000 
     85 CA         -0.1048  -22.6584  -51.4718 C.3       15 UNK         0.1400 
     86 CB         -0.4939  -21.2937  -50.8781 C.3       15 UNK        -0.1800 
     87 C          -1.2640  -23.2503  -52.3068 C.2       15 UNK         0.5000 
     88 O          -1.6687  -22.6302  -53.2901 O.2       15 UNK        -0.5000 
     89 N          -1.7744  -24.4262  -51.9101 N.am      16 UNK        -0.5000 
     90 CA         -2.8645  -25.1869  -52.5258 C.3       16 UNK         0.1400 
     91 CB         -2.4786  -25.6800  -53.9362 C.3       16 UNK        -0.1800 
     92 C          -4.2312  -24.4743  -52.4555 C.2       16 UNK         0.5000 
     93 O          -5.0479  -24.6118  -53.3691 O.2       16 UNK        -0.5000 
     94 N          -4.4608  -23.7636  -51.3403 N.am      17 UNK        -0.5000 
     95 CA         -5.7109  -23.1496  -50.8901 C.3       17 UNK         0.1400 
     96 CB         -6.6361  -24.2329  -50.2976 C.3       17 UNK        -0.1800 
     97 C          -6.3927  -22.2794  -51.9633 C.2       17 UNK         0.5000 
     98 O          -5.9743  -21.1406  -52.1781 O.2       17 UNK        -0.5000 
     99 N          -7.4189  -22.8281  -52.6274 N.am      18 UNK        -0.5000 
    100 CA        -8.1975  -22.1898  -53.6897 C.3       18 UNK         0.1400 
    101 CB        -9.3137  -23.1455  -54.1353 C.3       18 UNK        -0.1800 
    102 C         -7.3617  -21.7346  -54.9013 C.2       18 UNK         0.5000 
    103 O         -7.7368  -20.7575  -55.5489 O.2       18 UNK        -0.5000 
    104 N         -6.2228  -22.3968  -55.1547 N.am      19 UNK        -0.5000 
    105 CA        -5.2559  -22.0178  -56.1900 C.3       19 UNK         0.1400 
    106 CB        -4.1965  -23.1201  -56.3143 C.3       19 UNK        -0.1800 
    107 C         -4.5767  -20.6578  -55.9243 C.2       19 UNK         0.5000 
    108 O         -4.1895  -19.9793  -56.8761 O.2       19 UNK        -0.5000 
    109 N         -4.4687  -20.2789  -54.6445 N.am      20 UNK        -0.5000 
    110 CA        -3.9466  -18.9947  -54.1769 C.3       20 UNK         0.1400 
    111 CB        -2.9687  -19.2682  -53.0229 C.3       20 UNK        -0.1800 
    112 C         -5.0747  -18.0443  -53.7277 C.2       20 UNK         0.5000 
    113 O         -4.7793  -16.9689  -53.2053 O.2       20 UNK        -0.5000 
    114 N         -6.3385  -18.4617  -53.9116 N.am      21 UNK        -0.5000 
    115 CA        -7.5714  -17.8129  -53.4510 C.3       21 UNK         0.1400 
    116 CB        -7.8061  -16.4854  -54.2012 C.3       21 UNK        -0.1800 
    117 C         -7.6321  -17.6617  -51.9140 C.2       21 UNK         0.5000 
    118 O         -8.1797  -16.6800  -51.4091 O.2       21 UNK        -0.5000 
    119 N         -7.0586  -18.6386  -51.1981 N.am      22 UNK        -0.5000 
    120 CA        -6.9376  -18.6556  -49.7314 C.3       22 UNK         0.1400 
    121 C         -8.2470  -19.0190  -48.9679 C.2       22 UNK         0.5000 
    122 N         -9.3080  -19.4571  -49.6350 N.am      22 UNK        -0.7600 
    123 O         -8.3056  -18.8962  -47.7480 O.2       22 UNK        -0.5000 
    124 C124       -5.7423  -19.5454  -49.2860 C.3       23 UNK        -0.0398 
    125 S125       -4.6975  -18.7557  -48.0216 S.3       23 UNK        -0.2404 
    126 C126       -3.3303  -18.1494  -49.0552 C.3       23 UNK        -0.0205 
    127 H127        0.4436  -12.6025  -52.8648 H         1 UNK         0.0600 
    128 H128        1.3436  -13.8032  -53.7960 H         1 UNK         0.0600 
    129 H129       -0.3995  -13.9844  -53.5704 H         1 UNK         0.0600 
    130 H130        0.7672  -12.8244  -50.6715 H         1 UNK         0.3000 
    131 H131        0.4570  -15.3002  -49.2652 H         1 UNK         0.0600 
    132 H132        1.3887  -12.5300  -48.3525 H         1 UNK         0.0800 
    133 H133        1.2112  -13.8696  -47.2580 H         1 UNK         0.0800 
    134 H134       -2.3935  -13.9242  -46.3181 H         1 UNK         0.0800 
    135 H135       -0.7307  -13.9468  -45.7866 H         1 UNK         0.0800 
    136 H136       -3.1445  -15.5903  -48.1296 H         1 UNK         0.1150 
    137 H137       -1.0825  -19.3470  -48.0962 H         1 UNK         0.1150 
    138 H138        0.5571  -15.9900  -45.9992 H         1 UNK         0.1150 
    139 H139        1.2233  -19.3671  -47.3655 H         1 UNK         0.0800 
    140 H140        1.9459  -18.0236  -46.5191 H         1 UNK         0.0800 
    141 H141        2.6022  -20.6599  -45.9159 H         1 UNK         0.0800 
    142 H142        2.3780  -21.0295  -44.2454 H         1 UNK         0.0800 
    143 H143        1.9423  -22.8278  -46.0464 H         1 UNK         0.0600 
    144 H144        0.4133  -22.5067  -43.6100 H         1 UNK         0.3000 
    145 H145       -0.3847  -26.0132  -43.4745 H         1 UNK         0.0600 
    146 H146        0.7636  -25.7692  -41.2936 H         1 UNK         0.0600 
    147 H147        1.9447  -25.7868  -42.5931 H         1 UNK         0.0600 
    148 H148        1.5176  -24.2645  -41.8206 H         1 UNK         0.0600 
    149 H149       -0.9206  -23.8469  -41.6893 H         1 UNK         0.3000 
    150 H150       -3.9874  -22.7754  -43.1123 H         1 UNK         0.0600 
    151 H151       -4.6272  -24.8416  -41.8605 H         1 UNK         0.0600 
    152 H152       -4.8698  -23.4019  -40.8848 H         1 UNK         0.0600 
    153 H153       -3.4763  -24.4429  -40.5906 H         1 UNK         0.0600 
    154 H154       -2.7193  -22.0651  -40.6843 H         1 UNK         0.3000 
    155 H155       -1.9437  -19.8376  -40.5885 H         1 UNK         0.0600 
    156 H156        0.5371  -19.9117  -40.1852 H         1 UNK         0.0600 
    157 H157        0.7664  -20.8542  -41.6554 H         1 UNK         0.0600 
    158 H158       -0.0977  -21.5436  -40.2848 H         1 UNK         0.0600 
    159 H159       -1.0231  -19.0337  -43.1998 H         1 UNK         0.3000 
    160 H160        0.0239  -16.9343  -43.5561 H         1 UNK         0.0600 
    161 H161       -2.5168  -15.6093  -42.4249 H         1 UNK         0.0600 
    162 H162       -2.4435  -16.7130  -43.7964 H         1 UNK         0.0600 
    163 H163       -1.7167  -15.1199  -43.9141 H         1 UNK         0.0600 
    164 H164        0.1893  -15.5541  -41.0469 H         1 UNK         0.3000 
    165 H165        1.2164  -13.3536  -40.9316 H         1 UNK         0.0600 
    166 H166        3.6740  -15.0022  -41.7388 H         1 UNK         0.0600 
    167 H167        3.5497  -13.9691  -40.3195 H         1 UNK         0.0600 
    168 H168        2.5515  -15.4070  -40.4469 H         1 UNK         0.0600 
    169 H169        3.3318  -12.9004  -42.9771 H         1 UNK         0.3000 
    170 H170        2.0793   -9.7954  -43.9355 H         1 UNK         0.0600 
    171 H171        2.9592   -8.9579  -41.7573 H         1 UNK         0.0600 
    172 H172        4.3603  -10.0128  -41.8980 H         1 UNK         0.0600 
    173 H173        4.1217   -8.6951  -43.0470 H         1 UNK         0.0600 
    174 H174        4.6939  -11.0340  -44.1015 H         1 UNK         0.3000 
    175 H175        4.1916  -11.9599  -47.3883 H         1 UNK         0.0600 
    176 H176        6.2066  -11.9991  -45.0717 H         1 UNK         0.0600 
    177 H177        6.5694  -12.0955  -46.7885 H         1 UNK         0.0600 
    178 H178        5.8885  -10.6224  -46.1253 H         1 UNK         0.0600 
    179 H179        4.2805  -14.1465  -47.2230 H         1 UNK         0.3000 
    180 H180        5.6012  -16.3434  -45.3910 H         1 UNK         0.0600 
    181 H181        2.6800  -16.5384  -44.4978 H         1 UNK         0.0600 
    182 H182        4.0838  -16.5874  -43.4355 H         1 UNK         0.0600 
    183 H183        3.8224  -17.8702  -44.5999 H         1 UNK         0.0600 
    184 H184        3.0669  -16.2753  -46.9600 H         1 UNK         0.3000 
    185 H185        4.6769  -16.5613  -50.0121 H         1 UNK         0.0600 
    186 H186        4.8099  -18.9826  -49.4497 H         1 UNK         0.0600 
    187 H187        3.2392  -18.9127  -48.6648 H         1 UNK         0.0600 
    188 H188        3.3741  -18.6476  -50.4029 H         1 UNK         0.0600 
    189 H189        1.9421  -16.8795  -49.3781 H         1 UNK         0.3000 
    190 H190       -1.4005  -21.9101  -45.2416 H         1 UNK         0.3000 
    191 H191       -2.2910  -21.2850  -47.8577 H         1 UNK         0.0600 
    192 H192       -4.5457  -21.7518  -46.9345 H         1 UNK         0.0600 
    193 H193       -3.5960  -20.8047  -45.7984 H         1 UNK         0.0600 
    194 H194       -3.8378  -22.5290  -45.5258 H         1 UNK         0.0600 
    195 H195       -2.1207  -24.4429  -46.1464 H         1 UNK         0.3000 
    196 H196       -3.1517  -26.0374  -48.2593 H         1 UNK         0.0600 
    197 H197       -2.1068  -27.9207  -46.9930 H         1 UNK         0.0600 
    198 H198       -3.0004  -26.8454  -45.9290 H         1 UNK         0.0600 
    199 H199       -1.2412  -26.7732  -45.9788 H         1 UNK         0.0600 
    200 H200        0.2318  -25.1063  -47.4448 H         1 UNK         0.3000 
    201 H201        1.5025  -26.5042  -49.5616 H         1 UNK         0.0600 
    202 H202        2.6932  -25.5935  -47.5645 H         1 UNK         0.0600 
    203 H203        2.3985  -23.9491  -48.1284 H         1 UNK         0.0600 
    204 H204        3.4260  -25.0287  -49.0588 H         1 UNK         0.0600 
    205 H205        0.0576  -23.2506  -49.4469 H         1 UNK         0.3000 
    206 H206        0.7360  -22.5041  -52.1509 H         1 UNK         0.0600 
    207 H207        0.3176  -20.8740  -50.2833 H         1 UNK         0.0600 
    208 H208       -0.7158  -20.5736  -51.6641 H         1 UNK         0.0600 
    209 H209       -1.3744  -21.3677  -50.2395 H         1 UNK         0.0600 
    210 H210       -1.3822  -24.8484  -51.0777 H         1 UNK         0.3000 
    211 H211       -2.9842  -26.0772  -51.9073 H         1 UNK         0.0600 
    212 H212       -2.2821  -24.8578  -54.6218 H         1 UNK         0.0600 
    213 H213       -3.2698  -26.2905  -54.3729 H         1 UNK         0.0600 
    214 H214       -1.5812  -26.2973  -53.8981 H         1 UNK         0.0600 
    215 H215       -3.7000  -23.6888  -50.6677 H         1 UNK         0.3000 
    216 H216       -5.4377  -22.4752  -50.0787 H         1 UNK         0.0600 
    217 H217       -6.8705  -25.0162  -51.0193 H         1 UNK         0.0600 
    218 H218       -7.5767  -23.8032  -49.9502 H         1 UNK         0.0600 
    219 H219       -6.1666  -24.7115  -49.4377 H         1 UNK         0.0600 
    220 H220       -7.6609  -23.7841  -52.4112 H         1 UNK         0.3000 
    221 H221       -8.6607  -21.2980  -53.2628 H         1 UNK         0.0600 
    222 H222       -8.9089  -24.0739  -54.5404 H         1 UNK         0.0600 
    223 H223       -9.9718  -23.3995  -53.3040 H         1 UNK         0.0600 
    224 H224       -9.9324  -22.6909  -54.9103 H         1 UNK         0.0600 
    225 H225       -5.9680  -23.1786  -54.5584 H         1 UNK         0.3000 
    226 H226       -5.7907  -21.9452  -57.1392 H         1 UNK         0.0600 
    227 H227       -4.6507  -24.0945  -56.4948 H         1 UNK         0.0600 
    228 H228       -3.5144  -22.9167  -57.1406 H         1 UNK         0.0600 
    229 H229       -3.5990  -23.1879  -55.4057 H         1 UNK         0.0600 
    230 H230       -4.8358  -20.8883  -53.9221 H         1 UNK         0.3000 
    231 H231       -3.3992  -18.4900  -54.9752 H         1 UNK         0.0600 
    232 H232       -3.4547  -19.7843  -52.1940 H         1 UNK         0.0600 
    233 H233       -2.1413  -19.8883  -53.3655 H         1 UNK         0.0600 
    234 H234       -2.5400  -18.3441  -52.6332 H         1 UNK         0.0600 
    235 H235       -6.4701  -19.3472  -54.3828 H         1 UNK         0.3000 
    236 H236       -8.3855  -18.4878  -53.7186 H         1 UNK         0.0600 
    237 H237       -7.7639  -16.6307  -55.2807 H         1 UNK         0.0600 
    238 H238       -8.7888  -16.0735  -53.9691 H         1 UNK         0.0600 
    239 H239       -7.0651  -15.7315  -53.9345 H         1 UNK         0.0600 
    240 H240       -6.6426  -19.4261  -51.6873 H         1 UNK         0.3000 
    241 H241       -6.7174  -17.6264  -49.4407 H         1 UNK         0.0600 
    242 H242       -9.2821  -19.5495  -50.6369 H         1 UNK         0.3800 
    243 H243      -10.1514  -19.6828  -49.1313 H         1 UNK         0.3800 
    244 H244       -6.0805  -20.5074  -48.8979 H         1 UNK         0.0800 
    245 H245       -5.1015  -19.7925  -50.1324 H         1 UNK         0.0800 
    246 H246       -3.7084  -17.4139  -49.7675 H         1 UNK         0.0800 
    247 H247       -2.9217  -18.9716  -49.6451 H         1 UNK         0.0800 
@<TRIPOS>BOND
     1    1    2 1    
     2    1  127 1    
     3    1  128 1    
     4    1  129 1    
     5    2    3 2    
     6    2    4 am   BACKBONE|DICT|INTERRES
     7    4    5 1    
     8    4  130 1    
     9    5    6 1    
    10    5   65 1    
    11    5  131 1    
    12    6    7 1    
    13    6  132 1    
    14    6  133 1    
    15    7    8 1    
    16    8    9 1    
    17    8  134 1    
    18    8  135 1    
    19    9   10 ar   
    20    9   14 ar   
    21   10   11 ar   
    22   10  136 1    
    23   11   12 ar   
    24   11  126 1    
    25   12   13 ar   
    26   12  137 1    
    27   13   14 ar   
    28   13   15 1    
    29   14  138 1    
    30   15   16 1    
    31   15  139 1    
    32   15  140 1    
    33   16   17 1    
    34   17   18 1    
    35   17  141 1    
    36   17  142 1    
    37   18   19 1    
    38   18   67 1    
    39   18  143 1    
    40   19   20 am   BACKBONE|DICT|INTERRES
    41   19  144 1    
    42   20   21 2    
    43   20   22 1    
    44   22   23 1    
    45   22   24 1    
    46   22  145 1    
    47   23  146 1    
    48   23  147 1    
    49   23  148 1    
    50   24   25 am   BACKBONE|DICT|INTERRES
    51   24  149 1    
    52   25   26 2    
    53   25   27 1    
    54   27   28 1    
    55   27   29 1    
    56   27  150 1    
    57   28  151 1    
    58   28  152 1    
    59   28  153 1    
    60   29   30 am   BACKBONE|DICT|INTERRES
    61   29  154 1    
    62   30   31 2    
    63   30   32 1    
    64   32   33 1    
    65   32   34 1    
    66   32  155 1    
    67   33  156 1    
    68   33  157 1    
    69   33  158 1    
    70   34   35 am   BACKBONE|DICT|INTERRES
    71   34  159 1    
    72   35   36 2    
    73   35   37 1    
    74   37   38 1    
    75   37   39 1    
    76   37  160 1    
    77   38  161 1    
    78   38  162 1    
    79   38  163 1    
    80   39   40 am   BACKBONE|DICT|INTERRES
    81   39  164 1    
    82   40   41 2    
    83   40   42 1    
    84   42   43 1    
    85   42   44 1    
    86   42  165 1    
    87   43  166 1    
    88   43  167 1    
    89   43  168 1    
    90   44   45 am   BACKBONE|DICT|INTERRES
    91   44  169 1    
    92   45   46 2    
    93   45   47 1    
    94   47   48 1    
    95   47   49 1    
    96   47  170 1    
    97   48  171 1    
    98   48  172 1    
    99   48  173 1    
   100   49   50 am   BACKBONE|DICT|INTERRES
   101   49  174 1    
   102   50   51 2    
   103   50   52 1    
   104   52   53 1    
   105   52   54 1    
   106   52  175 1    
   107   53  176 1    
   108   53  177 1    
   109   53  178 1    
   110   54   55 am   BACKBONE|DICT|INTERRES
   111   54  179 1    
   112   55   56 2    
   113   55   57 1    
   114   57   58 1    
   115   57   59 1    
   116   57  180 1    
   117   58  181 1    
   118   58  182 1    
   119   58  183 1    
   120   59   60 am   BACKBONE|DICT|INTERRES
   121   59  184 1    
   122   60   61 2    
   123   60   62 1    
   124   62   63 1    
   125   62   64 1    
   126   62  185 1    
   127   63  186 1    
   128   63  187 1    
   129   63  188 1    
   130   64   65 am   BACKBONE|DICT|INTERRES
   131   64  189 1    
   132   65   66 2    
   133   67   68 2    
   134   67   69 am   BACKBONE|DICT|INTERRES
   135   69   70 1    
   136   69  190 1    
   137   70   71 1    
   138   70   72 1    
   139   70  191 1    
   140   71  192 1    
   141   71  193 1    
   142   71  194 1    
   143   72   73 2    
   144   72   74 am   BACKBONE|DICT|INTERRES
   145   74   75 1    
   146   74  195 1    
   147   75   76 1    
   148   75   77 1    
   149   75  196 1    
   150   76  197 1    
   151   76  198 1    
   152   76  199 1    
   153   77   78 2    
   154   77   79 am   BACKBONE|DICT|INTERRES
   155   79   80 1    
   156   79  200 1    
   157   80   81 1    
   158   80   82 1    
   159   80  201 1    
   160   81  202 1    
   161   81  203 1    
   162   81  204 1    
   163   82   83 2    
   164   82   84 am   BACKBONE|DICT|INTERRES
   165   84   85 1    
   166   84  205 1    
   167   85   86 1    
   168   85   87 1    
   169   85  206 1    
   170   86  207 1    
   171   86  208 1    
   172   86  209 1    
   173   87   88 2    
   174   87   89 am   BACKBONE|DICT|INTERRES
   175   89   90 1    
   176   89  210 1    
   177   90   91 1    
   178   90   92 1    
   179   90  211 1    
   180   91  212 1    
   181   91  213 1    
   182   91  214 1    
   183   92   93 2    
   184   92   94 am   BACKBONE|DICT|INTERRES
   185   94   95 1    
   186   94  215 1    
   187   95   96 1    
   188   95   97 1    
   189   95  216 1    
   190   96  217 1    
   191   96  218 1    
   192   96  219 1    
   193   97   98 2    
   194   97   99 am   BACKBONE|DICT|INTERRES
   195   99  100 1    
   196   99  220 1    
   197  100  101 1    
   198  100  102 1    
   199  100  221 1    
   200  101  222 1    
   201  101  223 1    
   202  101  224 1    
   203  102  103 2    
   204  102  104 am   BACKBONE|DICT|INTERRES
   205  104  105 1    
   206  104  225 1    
   207  105  106 1    
   208  105  107 1    
   209  105  226 1    
   210  106  227 1    
   211  106  228 1    
   212  106  229 1    
   213  107  108 2    
   214  107  109 am   BACKBONE|DICT|INTERRES
   215  109  110 1    
   216  109  230 1    
   217  110  111 1    
   218  110  112 1    
   219  110  231 1    
   220  111  232 1    
   221  111  233 1    
   222  111  234 1    
   223  112  113 2    
   224  112  114 am   BACKBONE|DICT|INTERRES
   225  114  115 1    
   226  114  235 1    
   227  115  116 1    
   228  115  117 1    
   229  115  236 1    
   230  116  237 1    
   231  116  238 1    
   232  116  239 1    
   233  117  118 2    
   234  117  119 am   BACKBONE|DICT|INTERRES
   235  119  120 1    
   236  119  240 1    
   237  120  121 1    
   238  120  124 1    
   239  120  241 1    
   240  121  122 am   BACKBONE|DICT|INTERRES
   241  121  123 2    
   242  122  242 1    
   243  122  243 1    
   244  124  125 1    
   245  124  244 1    
   246  124  245 1    
   247  125  126 1    
   248  126  246 1    
   249  126  247 1    
@<TRIPOS>SUBSTRUCTURE
     1 UNK         1 GROUP             0       ****    0 ROOT    
