@<TRIPOS>MOLECULE
3R540
247   249    1
SMALL
USER_CHARGES


@<TRIPOS>ATOM
      1 CA          4.8302  -12.8672  -47.4491 C.3       0 UNK        -0.1800 
      2 C           3.6688  -13.8470  -47.5265 C.2       0 UNK         0.5000 
      3 O           3.7990  -14.9843  -47.0782 O.2       0 UNK        -0.5000 
      4 N           2.5354  -13.4097  -48.0917 N.am      1 UNK        -0.5000 
      5 CA          1.3102  -14.2064  -48.2346 C.3       1 UNK         0.1400 
      6 C6          0.3440  -13.5787  -49.2779 C.3       23 UNK        -0.0398 
      7 S7         -0.7248  -14.7819  -50.1516 S.3       23 UNK        -0.2404 
      8 C8         -0.0247  -14.8184  -51.8457 C.3       23 UNK        -0.0205 
      9 C9          0.9342  -15.9864  -52.0337 C.ar      23 UNK        -0.0193 
     10 C10         0.6671  -17.0002  -52.9606 C.ar      23 UNK        -0.1150 
     11 C11         1.5157  -18.1091  -53.0613 C.ar      23 UNK        -0.0193 
     12 C12         2.5998  -18.2295  -52.1854 C.ar      23 UNK        -0.1150 
     13 C13         2.8654  -17.2256  -51.2518 C.ar      23 UNK        -0.0193 
     14 C14         2.0781  -16.0750  -51.2419 C.ar      23 UNK        -0.1150 
     15 C15         3.9452  -17.3987  -50.1950 C.3       23 UNK        -0.0205 
     16 S16         3.4621  -18.5786  -48.8803 S.3       23 UNK        -0.2404 
     17 C17         1.7510  -18.1053  -48.4147 C.3       23 UNK        -0.0398 
     18 CA          0.8578  -19.3591  -48.2394 C.3       11 UNK         0.1400 
     19 N           1.1055  -20.0301  -46.9668 N.am      11 UNK        -0.5000 
     20 C           1.2611  -21.3491  -46.8090 C.2       10 UNK         0.5000 
     21 O           1.1051  -22.1757  -47.7082 O.2       10 UNK        -0.5000 
     22 CA          1.7026  -21.8268  -45.4141 C.3       10 UNK         0.1400 
     23 CB          3.1807  -21.4856  -45.1644 C.3       10 UNK        -0.1800 
     24 N           0.8880  -21.2651  -44.3394 N.am      10 UNK        -0.5000 
     25 C          -0.3453  -21.6860  -44.0304 C.2       9 UNK         0.5000 
     26 O          -0.9192  -22.6068  -44.6123 O.2       9 UNK        -0.5000 
     27 CA         -1.0592  -20.9641  -42.8708 C.3       9 UNK         0.1400 
     28 CB         -0.6724  -21.5906  -41.5226 C.3       9 UNK        -0.1800 
     29 N          -0.7869  -19.5278  -42.8315 N.am      9 UNK        -0.5000 
     30 C          -1.1722  -18.6603  -43.7771 C.2       8 UNK         0.5000 
     31 O          -1.8352  -18.9716  -44.7645 O.2       8 UNK        -0.5000 
     32 CA         -0.7028  -17.2065  -43.6145 C.3       8 UNK         0.1400 
     33 CB         -1.5895  -16.4542  -42.6109 C.3       8 UNK        -0.1800 
     34 N           0.6989  -17.1071  -43.2097 N.am      8 UNK        -0.5000 
     35 C           1.7378  -17.5785  -43.9142 C.2       7 UNK         0.5000 
     36 O           1.6321  -18.1419  -45.0001 O.2       7 UNK        -0.5000 
     37 CA          3.1240  -17.4651  -43.2613 C.3       7 UNK         0.1400 
     38 CB          3.6995  -16.0502  -43.4250 C.3       7 UNK        -0.1800 
     39 N           3.0823  -17.8316  -41.8458 N.am      7 UNK        -0.5000 
     40 C           2.8470  -19.0732  -41.3961 C.2       6 UNK         0.5000 
     41 O           2.6867  -20.0486  -42.1296 O.2       6 UNK        -0.5000 
     42 CA          2.7323  -19.2427  -39.8704 C.3       6 UNK         0.1400 
     43 CB          4.1229  -19.3851  -39.2340 C.3       6 UNK        -0.1800 
     44 N           2.0193  -18.1320  -39.2372 N.am      6 UNK        -0.5000 
     45 C           0.7144  -17.8769  -39.4082 C.2       5 UNK         0.5000 
     46 O          -0.0350  -18.5749  -40.0915 O.2       5 UNK        -0.5000 
     47 CA          0.1723  -16.5942  -38.7467 C.3       5 UNK         0.1400 
     48 CB         -0.1970  -16.8562  -37.2791 C.3       5 UNK        -0.1800 
     49 N           1.1035  -15.4616  -38.8227 N.am      5 UNK        -0.5000 
     50 C           1.5360  -14.9220  -39.9691 C.2       4 UNK         0.5000 
     51 O           1.2027  -15.3385  -41.0826 O.2       4 UNK        -0.5000 
     52 CA          2.5303  -13.7561  -39.8695 C.3       4 UNK         0.1400 
     53 CB          3.9118  -14.2417  -39.3950 C.3       4 UNK        -0.1800 
     54 N           2.6417  -13.1809  -41.2021 N.am      4 UNK        -0.5000 
     55 C           3.0379  -11.9511  -41.5361 C.2       3 UNK         0.5000 
     56 O           3.4331  -11.1142  -40.7237 O.2       3 UNK        -0.5000 
     57 CA          2.9804  -11.5960  -43.0384 C.3       3 UNK         0.1400 
     58 CB          4.3883  -11.6316  -43.6529 C.3       3 UNK        -0.1800 
     59 N           2.1049  -12.4755  -43.8249 N.am      3 UNK        -0.5000 
     60 C           0.7659  -12.4887  -43.7526 C.2       2 UNK         0.5000 
     61 O           0.1176  -11.7341  -43.0268 O.2       2 UNK        -0.5000 
     62 CA          0.0510  -13.5025  -44.6615 C.3       2 UNK         0.1400 
     63 CB         -1.4772  -13.3087  -44.7183 C.3       2 UNK        -0.1800 
     64 N           0.6181  -13.4508  -46.0069 N.am      2 UNK        -0.5000 
     65 C           0.6350  -14.4699  -46.8752 C.2       1 UNK         0.5000 
     66 O           0.1880  -15.5894  -46.6312 O.2       1 UNK        -0.5000 
     67 C          -0.6481  -19.0858  -48.4062 C.2       11 UNK         0.5000 
     68 O          -1.3033  -19.8715  -49.0911 O.2       11 UNK        -0.5000 
     69 N          -1.1792  -17.9999  -47.8166 N.am      12 UNK        -0.5000 
     70 CA         -2.5448  -17.4975  -48.0488 C.3       12 UNK         0.1400 
     71 CB         -2.8435  -16.2945  -47.1414 C.3       12 UNK        -0.1800 
     72 C          -3.6759  -18.5351  -47.9254 C.2       12 UNK         0.5000 
     73 O          -4.5526  -18.5747  -48.7885 O.2       12 UNK        -0.5000 
     74 N          -3.6253  -19.3700  -46.8802 N.am      13 UNK        -0.5000 
     75 CA         -4.6079  -20.4207  -46.6082 C.3       13 UNK         0.1400 
     76 CB         -4.3414  -21.0183  -45.2193 C.3       13 UNK        -0.1800 
     77 C          -4.6424  -21.5325  -47.6740 C.2       13 UNK         0.5000 
     78 O          -5.6930  -22.1445  -47.8639 O.2       13 UNK        -0.5000 
     79 N          -3.5125  -21.7674  -48.3535 N.am      14 UNK        -0.5000 
     80 CA         -3.4185  -22.6761  -49.4922 C.3       14 UNK         0.1400 
     81 CB         -1.9972  -23.2571  -49.5731 C.3       14 UNK        -0.1800 
     82 C          -3.7944  -21.9506  -50.7931 C.2       14 UNK         0.5000 
     83 O          -4.6044  -22.4684  -51.5642 O.2       14 UNK        -0.5000 
     84 N          -3.2085  -20.7581  -50.9878 N.am      15 UNK        -0.5000 
     85 CA         -3.3389  -19.8992  -52.1655 C.3       15 UNK         0.1400 
     86 CB         -2.4655  -18.6486  -51.9863 C.3       15 UNK        -0.1800 
     87 C          -4.7858  -19.4903  -52.4862 C.2       15 UNK         0.5000 
     88 O          -5.1438  -19.4214  -53.6627 O.2       15 UNK        -0.5000 
     89 N          -5.6032  -19.2656  -51.4485 N.am      16 UNK        -0.5000 
     90 CA         -7.0286  -18.9368  -51.5274 C.3       16 UNK         0.1400 
     91 CB         -7.4652  -18.3092  -50.1914 C.3       16 UNK        -0.1800 
     92 C          -7.9087  -20.1433  -51.9300 C.2       16 UNK         0.5000 
     93 O          -8.8703  -20.4687  -51.2323 O.2       16 UNK        -0.5000 
     94 N          -7.5541  -20.7909  -53.0480 N.am      17 UNK        -0.5000 
     95 CA         -8.2198  -21.8884  -53.7633 C.3       17 UNK         0.1400 
     96 CB         -9.5968  -21.4350  -54.2818 C.3       17 UNK        -0.1800 
     97 C          -8.3433  -23.2334  -53.0160 C.2       17 UNK         0.5000 
     98 O          -8.4158  -24.2674  -53.6797 O.2       17 UNK        -0.5000 
     99 N          -8.3637  -23.2186  -51.6785 N.am      18 UNK        -0.5000 
    100 CA        -8.6618  -24.3534  -50.7990 C.3       18 UNK         0.1400 
    101 CB        -8.6250  -23.8735  -49.3413 C.3       18 UNK        -0.1800 
    102 C         -7.7596  -25.5896  -50.9796 C.2       18 UNK         0.5000 
    103 O         -8.2424  -26.7114  -50.8208 O.2       18 UNK        -0.5000 
    104 N         -6.4850  -25.3710  -51.3264 N.am      19 UNK        -0.5000 
    105 CA        -5.5022  -26.4264  -51.5922 C.3       19 UNK         0.1400 
    106 CB        -4.1984  -26.0730  -50.8578 C.3       19 UNK        -0.1800 
    107 C         -5.2616  -26.6316  -53.1032 C.2       19 UNK         0.5000 
    108 O         -4.2378  -27.2069  -53.4738 O.2       19 UNK        -0.5000 
    109 N         -6.1874  -26.1426  -53.9457 N.am      20 UNK        -0.5000 
    110 CA        -6.0619  -25.9667  -55.3991 C.3       20 UNK         0.1400 
    111 CB        -5.8485  -27.3073  -56.1338 C.3       20 UNK        -0.1800 
    112 C         -5.0008  -24.8967  -55.7314 C.2       20 UNK         0.5000 
    113 O         -4.1877  -25.0734  -56.6413 O.2       20 UNK        -0.5000 
    114 N         -5.0324  -23.8093  -54.9462 N.am      21 UNK        -0.5000 
    115 CA        -4.0559  -22.7217  -54.8882 C.3       21 UNK         0.1400 
    116 CB        -4.0373  -21.9155  -56.2058 C.3       21 UNK        -0.1800 
    117 C         -2.6725  -23.2335  -54.4287 C.2       21 UNK         0.5000 
    118 O         -2.6036  -24.1594  -53.6188 O.2       21 UNK        -0.5000 
    119 N         -1.5966  -22.6273  -54.9391 N.am      22 UNK        -0.5000 
    120 CA        -0.2085  -23.0512  -54.6875 C.3       22 UNK         0.1400 
    121 C          0.2748  -24.2130  -55.6094 C.2       22 UNK         0.5000 
    122 N         -0.5481  -24.7551  -56.5000 N.am      22 UNK        -0.7600 
    123 O          1.4209  -24.6425  -55.5093 O.2       22 UNK        -0.5000 
    124 C124        0.7678  -21.8495  -54.7267 C.3       23 UNK        -0.0398 
    125 S125        0.4238  -20.6287  -53.4155 S.3       23 UNK        -0.2404 
    126 C126        1.2710  -19.1802  -54.1114 C.3       23 UNK        -0.0205 
    127 H127        5.2523  -12.8627  -46.4443 H         1 UNK         0.0600 
    128 H128        4.5202  -11.8505  -47.6918 H         1 UNK         0.0600 
    129 H129        5.6145  -13.1623  -48.1460 H         1 UNK         0.0600 
    130 H130        2.4968  -12.4649  -48.4474 H         1 UNK         0.3000 
    131 H131        1.6153  -15.1883  -48.5891 H         1 UNK         0.0600 
    132 H132        0.9172  -13.0366  -50.0303 H         1 UNK         0.0800 
    133 H133       -0.2942  -12.8240  -48.8147 H         1 UNK         0.0800 
    134 H134       -0.8541  -14.9010  -52.5496 H         1 UNK         0.0800 
    135 H135        0.4801  -13.8821  -52.0848 H         1 UNK         0.0800 
    136 H136       -0.2007  -16.9302  -53.6011 H         1 UNK         0.1150 
    137 H137        3.2218  -19.1133  -52.2155 H         1 UNK         0.1150 
    138 H138        2.3145  -15.2759  -50.5603 H         1 UNK         0.1150 
    139 H139        4.8642  -17.7483  -50.6670 H         1 UNK         0.0800 
    140 H140        4.1858  -16.4408  -49.7307 H         1 UNK         0.0800 
    141 H141        1.3204  -17.4545  -49.1704 H         1 UNK         0.0800 
    142 H142        1.7914  -17.5126  -47.5014 H         1 UNK         0.0800 
    143 H143        1.1131  -20.0375  -49.0574 H         1 UNK         0.0600 
    144 H144        1.2485  -19.4148  -46.1665 H         1 UNK         0.3000 
    145 H145        1.6057  -22.9144  -45.3887 H         1 UNK         0.0600 
    146 H146        3.5249  -21.8993  -44.2163 H         1 UNK         0.0600 
    147 H147        3.8152  -21.8977  -45.9499 H         1 UNK         0.0600 
    148 H148        3.3485  -20.4083  -45.1378 H         1 UNK         0.0600 
    149 H149        1.3052  -20.5246  -43.7885 H         1 UNK         0.3000 
    150 H150       -2.1340  -21.0963  -43.0088 H         1 UNK         0.0600 
    151 H151       -0.8825  -22.6608  -41.5137 H         1 UNK         0.0600 
    152 H152       -1.2349  -21.1415  -40.7039 H         1 UNK         0.0600 
    153 H153        0.3891  -21.4612  -41.3089 H         1 UNK         0.0600 
    154 H154       -0.2865  -19.1787  -42.0205 H         1 UNK         0.3000 
    155 H155       -0.8016  -16.7199  -44.5838 H         1 UNK         0.0600 
    156 H156       -1.5665  -16.9183  -41.6251 H         1 UNK         0.0600 
    157 H157       -1.2717  -15.4187  -42.4955 H         1 UNK         0.0600 
    158 H158       -2.6279  -16.4419  -42.9442 H         1 UNK         0.0600 
    159 H159        0.8828  -16.6292  -42.3308 H         1 UNK         0.3000 
    160 H160        3.7930  -18.1617  -43.7713 H         1 UNK         0.0600 
    161 H161        3.0558  -15.2956  -42.9783 H         1 UNK         0.0600 
    162 H162        3.8088  -15.7997  -44.4805 H         1 UNK         0.0600 
    163 H163        4.6854  -15.9667  -42.9675 H         1 UNK         0.0600 
    164 H164        3.1550  -17.0809  -41.1770 H         1 UNK         0.3000 
    165 H165        2.1730  -20.1610  -39.6787 H         1 UNK         0.0600 
    166 H166        4.0483  -19.5810  -38.1642 H         1 UNK         0.0600 
    167 H167        4.6713  -20.2169  -39.6782 H         1 UNK         0.0600 
    168 H168        4.7243  -18.4853  -39.3698 H         1 UNK         0.0600 
    169 H169        2.5617  -17.5079  -38.6586 H         1 UNK         0.3000 
    170 H170       -0.7377  -16.3112  -39.2799 H         1 UNK         0.0600 
    171 H171       -0.9027  -17.6840  -37.1961 H         1 UNK         0.0600 
    172 H172        0.6790  -17.1101  -36.6811 H         1 UNK         0.0600 
    173 H173       -0.6694  -15.9826  -36.8294 H         1 UNK         0.0600 
    174 H174        1.4190  -15.0751  -37.9446 H         1 UNK         0.3000 
    175 H175        2.1310  -13.0105  -39.1791 H         1 UNK         0.0600 
    176 H176        4.3259  -14.9945  -40.0672 H         1 UNK         0.0600 
    177 H177        4.6228  -13.4171  -39.3418 H         1 UNK         0.0600 
    178 H178        3.8562  -14.6823  -38.3991 H         1 UNK         0.0600 
    179 H179        2.2619  -13.7815  -41.9219 H         1 UNK         0.3000 
    180 H180        2.5996  -10.5755  -43.1158 H         1 UNK         0.0600 
    181 H181        4.8072  -12.6387  -43.6421 H         1 UNK         0.0600 
    182 H182        5.0730  -10.9851  -43.1024 H         1 UNK         0.0600 
    183 H183        4.3754  -11.2815  -44.6850 H         1 UNK         0.0600 
    184 H184        2.5616  -13.1240  -44.4494 H         1 UNK         0.3000 
    185 H185        0.2577  -14.4826  -44.2301 H         1 UNK         0.0600 
    186 H186       -1.9165  -13.3333  -43.7205 H         1 UNK         0.0600 
    187 H187       -1.7420  -12.3536  -45.1727 H         1 UNK         0.0600 
    188 H188       -1.9544  -14.0991  -45.2965 H         1 UNK         0.0600 
    189 H189        1.0347  -12.5704  -46.2764 H         1 UNK         0.3000 
    190 H190       -0.5850  -17.3982  -47.2551 H         1 UNK         0.3000 
    191 H191       -2.5667  -17.1347  -49.0767 H         1 UNK         0.0600 
    192 H192       -2.6458  -16.5200  -46.0938 H         1 UNK         0.0600 
    193 H193       -3.8881  -15.9894  -47.2190 H         1 UNK         0.0600 
    194 H194       -2.2468  -15.4298  -47.4266 H         1 UNK         0.0600 
    195 H195       -2.8768  -19.2552  -46.1971 H         1 UNK         0.3000 
    196 H196       -5.5946  -19.9534  -46.5932 H         1 UNK         0.0600 
    197 H197       -5.0851  -21.7755  -44.9683 H         1 UNK         0.0600 
    198 H198       -4.3807  -20.2527  -44.4442 H         1 UNK         0.0600 
    199 H199       -3.3611  -21.4925  -45.1745 H         1 UNK         0.0600 
    200 H200       -2.7096  -21.1737  -48.1813 H         1 UNK         0.3000 
    201 H201       -4.1141  -23.5060  -49.3547 H         1 UNK         0.0600 
    202 H202       -1.7606  -23.8401  -48.6830 H         1 UNK         0.0600 
    203 H203       -1.2408  -22.4776  -49.6687 H         1 UNK         0.0600 
    204 H204       -1.8906  -23.9173  -50.4344 H         1 UNK         0.0600 
    205 H205       -2.5547  -20.4309  -50.2788 H         1 UNK         0.3000 
    206 H206       -2.9501  -20.4596  -53.0166 H         1 UNK         0.0600 
    207 H207       -1.4328  -18.9105  -51.7569 H         1 UNK         0.0600 
    208 H208       -2.4539  -18.0479  -52.8963 H         1 UNK         0.0600 
    209 H209       -2.8347  -18.0147  -51.1812 H         1 UNK         0.0600 
    210 H210       -5.2099  -19.3088  -50.5125 H         1 UNK         0.3000 
    211 H211       -7.1601  -18.1800  -52.3032 H         1 UNK         0.0600 
    212 H212       -7.3498  -19.0102  -49.3634 H         1 UNK         0.0600 
    213 H213       -8.5110  -18.0015  -50.2222 H         1 UNK         0.0600 
    214 H214       -6.8749  -17.4219  -49.9619 H         1 UNK         0.0600 
    215 H215       -6.7142  -20.4372  -53.4996 H         1 UNK         0.3000 
    216 H216       -7.5931  -22.0850  -54.6346 H         1 UNK         0.0600 
    217 H217      -10.0551  -22.2071  -54.9013 H         1 UNK         0.0600 
    218 H218       -9.5117  -20.5372  -54.8941 H         1 UNK         0.0600 
    219 H219      -10.2874  -21.2206  -53.4655 H         1 UNK         0.0600 
    220 H220       -8.3535  -22.3026  -51.2406 H         1 UNK         0.3000 
    221 H221       -9.6827  -24.6679  -51.0242 H         1 UNK         0.0600 
    222 H222       -7.6337  -23.5124  -49.0676 H         1 UNK         0.0600 
    223 H223       -9.3350  -23.0636  -49.1726 H         1 UNK         0.0600 
    224 H224       -8.8826  -24.6807  -48.6543 H         1 UNK         0.0600 
    225 H225       -6.1673  -24.4165  -51.4377 H         1 UNK         0.3000 
    226 H226       -5.8531  -27.3818  -51.1975 H         1 UNK         0.0600 
    227 H227       -4.3732  -25.9129  -49.7940 H         1 UNK         0.0600 
    228 H228       -3.4644  -26.8747  -50.9463 H         1 UNK         0.0600 
    229 H229       -3.7478  -25.1707  -51.2703 H         1 UNK         0.0600 
    230 H230       -7.0089  -25.7035  -53.5423 H         1 UNK         0.3000 
    231 H231       -7.0164  -25.5624  -55.7387 H         1 UNK         0.0600 
    232 H232       -5.9287  -27.1720  -57.2128 H         1 UNK         0.0600 
    233 H233       -6.5995  -28.0412  -55.8417 H         1 UNK         0.0600 
    234 H234       -4.8652  -27.7338  -55.9358 H         1 UNK         0.0600 
    235 H235       -5.7017  -23.8169  -54.1923 H         1 UNK         0.3000 
    236 H236       -4.4105  -22.0519  -54.1077 H         1 UNK         0.0600 
    237 H237       -3.5940  -22.4790  -57.0274 H         1 UNK         0.0600 
    238 H238       -5.0476  -21.6346  -56.5038 H         1 UNK         0.0600 
    239 H239       -3.4742  -20.9883  -56.0935 H         1 UNK         0.0600 
    240 H240       -1.7207  -21.8782  -55.6037 H         1 UNK         0.3000 
    241 H241       -0.1567  -23.4607  -53.6767 H         1 UNK         0.0600 
    242 H242       -0.2181  -25.5088  -57.0822 H         1 UNK         0.3800 
    243 H243       -1.5080  -24.4538  -56.5709 H         1 UNK         0.3800 
    244 H244        1.7990  -22.1810  -54.5927 H         1 UNK         0.0800 
    245 H245        0.7260  -21.3614  -55.7018 H         1 UNK         0.0800 
    246 H246        2.2282  -19.4863  -54.5366 H         1 UNK         0.0800 
    247 H247        0.6810  -18.7800  -54.9373 H         1 UNK         0.0800 
@<TRIPOS>BOND
     1    1    2 1    
     2    1  127 1    
     3    1  128 1    
     4    1  129 1    
     5    2    3 2    
     6    2    4 am   BACKBONE|DICT|INTERRES
     7    4    5 1    
     8    4  130 1    
     9    5    6 1    
    10    5   65 1    
    11    5  131 1    
    12    6    7 1    
    13    6  132 1    
    14    6  133 1    
    15    7    8 1    
    16    8    9 1    
    17    8  134 1    
    18    8  135 1    
    19    9   10 ar   
    20    9   14 ar   
    21   10   11 ar   
    22   10  136 1    
    23   11   12 ar   
    24   11  126 1    
    25   12   13 ar   
    26   12  137 1    
    27   13   14 ar   
    28   13   15 1    
    29   14  138 1    
    30   15   16 1    
    31   15  139 1    
    32   15  140 1    
    33   16   17 1    
    34   17   18 1    
    35   17  141 1    
    36   17  142 1    
    37   18   19 1    
    38   18   67 1    
    39   18  143 1    
    40   19   20 am   BACKBONE|DICT|INTERRES
    41   19  144 1    
    42   20   21 2    
    43   20   22 1    
    44   22   23 1    
    45   22   24 1    
    46   22  145 1    
    47   23  146 1    
    48   23  147 1    
    49   23  148 1    
    50   24   25 am   BACKBONE|DICT|INTERRES
    51   24  149 1    
    52   25   26 2    
    53   25   27 1    
    54   27   28 1    
    55   27   29 1    
    56   27  150 1    
    57   28  151 1    
    58   28  152 1    
    59   28  153 1    
    60   29   30 am   BACKBONE|DICT|INTERRES
    61   29  154 1    
    62   30   31 2    
    63   30   32 1    
    64   32   33 1    
    65   32   34 1    
    66   32  155 1    
    67   33  156 1    
    68   33  157 1    
    69   33  158 1    
    70   34   35 am   BACKBONE|DICT|INTERRES
    71   34  159 1    
    72   35   36 2    
    73   35   37 1    
    74   37   38 1    
    75   37   39 1    
    76   37  160 1    
    77   38  161 1    
    78   38  162 1    
    79   38  163 1    
    80   39   40 am   BACKBONE|DICT|INTERRES
    81   39  164 1    
    82   40   41 2    
    83   40   42 1    
    84   42   43 1    
    85   42   44 1    
    86   42  165 1    
    87   43  166 1    
    88   43  167 1    
    89   43  168 1    
    90   44   45 am   BACKBONE|DICT|INTERRES
    91   44  169 1    
    92   45   46 2    
    93   45   47 1    
    94   47   48 1    
    95   47   49 1    
    96   47  170 1    
    97   48  171 1    
    98   48  172 1    
    99   48  173 1    
   100   49   50 am   BACKBONE|DICT|INTERRES
   101   49  174 1    
   102   50   51 2    
   103   50   52 1    
   104   52   53 1    
   105   52   54 1    
   106   52  175 1    
   107   53  176 1    
   108   53  177 1    
   109   53  178 1    
   110   54   55 am   BACKBONE|DICT|INTERRES
   111   54  179 1    
   112   55   56 2    
   113   55   57 1    
   114   57   58 1    
   115   57   59 1    
   116   57  180 1    
   117   58  181 1    
   118   58  182 1    
   119   58  183 1    
   120   59   60 am   BACKBONE|DICT|INTERRES
   121   59  184 1    
   122   60   61 2    
   123   60   62 1    
   124   62   63 1    
   125   62   64 1    
   126   62  185 1    
   127   63  186 1    
   128   63  187 1    
   129   63  188 1    
   130   64   65 am   BACKBONE|DICT|INTERRES
   131   64  189 1    
   132   65   66 2    
   133   67   68 2    
   134   67   69 am   BACKBONE|DICT|INTERRES
   135   69   70 1    
   136   69  190 1    
   137   70   71 1    
   138   70   72 1    
   139   70  191 1    
   140   71  192 1    
   141   71  193 1    
   142   71  194 1    
   143   72   73 2    
   144   72   74 am   BACKBONE|DICT|INTERRES
   145   74   75 1    
   146   74  195 1    
   147   75   76 1    
   148   75   77 1    
   149   75  196 1    
   150   76  197 1    
   151   76  198 1    
   152   76  199 1    
   153   77   78 2    
   154   77   79 am   BACKBONE|DICT|INTERRES
   155   79   80 1    
   156   79  200 1    
   157   80   81 1    
   158   80   82 1    
   159   80  201 1    
   160   81  202 1    
   161   81  203 1    
   162   81  204 1    
   163   82   83 2    
   164   82   84 am   BACKBONE|DICT|INTERRES
   165   84   85 1    
   166   84  205 1    
   167   85   86 1    
   168   85   87 1    
   169   85  206 1    
   170   86  207 1    
   171   86  208 1    
   172   86  209 1    
   173   87   88 2    
   174   87   89 am   BACKBONE|DICT|INTERRES
   175   89   90 1    
   176   89  210 1    
   177   90   91 1    
   178   90   92 1    
   179   90  211 1    
   180   91  212 1    
   181   91  213 1    
   182   91  214 1    
   183   92   93 2    
   184   92   94 am   BACKBONE|DICT|INTERRES
   185   94   95 1    
   186   94  215 1    
   187   95   96 1    
   188   95   97 1    
   189   95  216 1    
   190   96  217 1    
   191   96  218 1    
   192   96  219 1    
   193   97   98 2    
   194   97   99 am   BACKBONE|DICT|INTERRES
   195   99  100 1    
   196   99  220 1    
   197  100  101 1    
   198  100  102 1    
   199  100  221 1    
   200  101  222 1    
   201  101  223 1    
   202  101  224 1    
   203  102  103 2    
   204  102  104 am   BACKBONE|DICT|INTERRES
   205  104  105 1    
   206  104  225 1    
   207  105  106 1    
   208  105  107 1    
   209  105  226 1    
   210  106  227 1    
   211  106  228 1    
   212  106  229 1    
   213  107  108 2    
   214  107  109 am   BACKBONE|DICT|INTERRES
   215  109  110 1    
   216  109  230 1    
   217  110  111 1    
   218  110  112 1    
   219  110  231 1    
   220  111  232 1    
   221  111  233 1    
   222  111  234 1    
   223  112  113 2    
   224  112  114 am   BACKBONE|DICT|INTERRES
   225  114  115 1    
   226  114  235 1    
   227  115  116 1    
   228  115  117 1    
   229  115  236 1    
   230  116  237 1    
   231  116  238 1    
   232  116  239 1    
   233  117  118 2    
   234  117  119 am   BACKBONE|DICT|INTERRES
   235  119  120 1    
   236  119  240 1    
   237  120  121 1    
   238  120  124 1    
   239  120  241 1    
   240  121  122 am   BACKBONE|DICT|INTERRES
   241  121  123 2    
   242  122  242 1    
   243  122  243 1    
   244  124  125 1    
   245  124  244 1    
   246  124  245 1    
   247  125  126 1    
   248  126  246 1    
   249  126  247 1    
@<TRIPOS>SUBSTRUCTURE
     1 UNK         1 GROUP             0       ****    0 ROOT    
