@<TRIPOS>MOLECULE
3R540
247   249    1
SMALL
USER_CHARGES


@<TRIPOS>ATOM
      1 CA          3.4601  -10.3590  -47.3858 C.3       0 UNK        -0.1800 
      2 C           2.3675  -11.3612  -47.7313 C.2       0 UNK         0.5000 
      3 O           1.6554  -11.1741  -48.7176 O.2       0 UNK        -0.5000 
      4 N           2.2365  -12.4102  -46.9108 N.am      1 UNK        -0.5000 
      5 CA          1.2016  -13.4511  -46.9569 C.3       1 UNK         0.1400 
      6 C6          1.1837  -14.2857  -48.2658 C.3       23 UNK        -0.0398 
      7 S7          2.7676  -15.1297  -48.6044 S.3       23 UNK        -0.2404 
      8 C8          2.4129  -15.9320  -50.2029 C.3       23 UNK        -0.0205 
      9 C9          1.4403  -17.0940  -50.0568 C.ar      23 UNK        -0.0193 
     10 C10         0.0643  -16.8751  -50.1749 C.ar      23 UNK        -0.1150 
     11 C11        -0.8417  -17.9217  -49.9897 C.ar      23 UNK        -0.0193 
     12 C12        -0.3566  -19.2039  -49.7160 C.ar      23 UNK        -0.1150 
     13 C13         1.0164  -19.4475  -49.6387 C.ar      23 UNK        -0.0193 
     14 C14         1.9122  -18.3860  -49.7994 C.ar      23 UNK        -0.1150 
     15 C15         1.5171  -20.8615  -49.3914 C.3       23 UNK        -0.0205 
     16 S16         1.6772  -21.2033  -47.6148 S.3       23 UNK        -0.2404 
     17 C17         1.5043  -23.0149  -47.5780 C.3       23 UNK        -0.0398 
     18 CA          0.1331  -23.5351  -47.0765 C.3       11 UNK         0.1400 
     19 N          -0.2014  -23.0889  -45.7190 N.am      11 UNK        -0.5000 
     20 C          -1.0767  -23.7261  -44.9270 C.2       10 UNK         0.5000 
     21 O          -1.6755  -24.7483  -45.2613 O.2       10 UNK        -0.5000 
     22 CA         -1.3593  -23.1039  -43.5503 C.3       10 UNK         0.1400 
     23 CB         -0.2037  -23.3773  -42.5760 C.3       10 UNK        -0.1800 
     24 N          -1.6120  -21.6661  -43.6361 N.am      10 UNK        -0.5000 
     25 C          -2.7280  -21.1332  -44.1580 C.2       9 UNK         0.5000 
     26 O          -3.6471  -21.8078  -44.6210 O.2       9 UNK        -0.5000 
     27 CA         -2.8336  -19.5939  -44.2014 C.3       9 UNK         0.1400 
     28 CB         -3.5179  -19.0673  -42.9318 C.3       9 UNK        -0.1800 
     29 N          -1.5442  -18.9232  -44.3606 N.am      9 UNK        -0.5000 
     30 C          -0.7165  -19.1067  -45.3995 C.2       8 UNK         0.5000 
     31 O          -1.0105  -19.7944  -46.3759 O.2       8 UNK        -0.5000 
     32 CA          0.6860  -18.4686  -45.3085 C.3       8 UNK         0.1400 
     33 CB          0.7316  -17.1711  -46.1248 C.3       8 UNK        -0.1800 
     34 N           1.1437  -18.1995  -43.9416 N.am      8 UNK        -0.5000 
     35 C           1.2422  -19.1071  -42.9551 C.2       7 UNK         0.5000 
     36 O           1.0155  -20.3065  -43.1157 O.2       7 UNK        -0.5000 
     37 CA          1.5954  -18.5998  -41.5400 C.3       7 UNK         0.1400 
     38 CB          3.0496  -18.9524  -41.1930 C.3       7 UNK        -0.1800 
     39 N           1.4015  -17.1604  -41.3521 N.am      7 UNK        -0.5000 
     40 C           0.2476  -16.4913  -41.4927 C.2       6 UNK         0.5000 
     41 O          -0.8370  -17.0403  -41.6932 O.2       6 UNK        -0.5000 
     42 CA          0.3308  -14.9500  -41.4720 C.3       6 UNK         0.1400 
     43 CB         -0.1858  -14.3955  -40.1361 C.3       6 UNK        -0.1800 
     44 N           1.6713  -14.4041  -41.7274 N.am      6 UNK        -0.5000 
     45 C           2.3929  -14.5885  -42.8431 C.2       5 UNK         0.5000 
     46 O           2.0171  -15.2842  -43.7876 O.2       5 UNK        -0.5000 
     47 CA          3.7664  -13.8838  -42.8829 C.3       5 UNK         0.1400 
     48 CB          4.4867  -14.0378  -44.2387 C.3       5 UNK        -0.1800 
     49 N           3.6864  -12.4722  -42.4857 N.am      5 UNK        -0.5000 
     50 C           2.9429  -11.5243  -43.0711 C.2       4 UNK         0.5000 
     51 O           2.2569  -11.7068  -44.0799 O.2       4 UNK        -0.5000 
     52 CA          2.9717  -10.1276  -42.4332 C.3       4 UNK         0.1400 
     53 CB          3.8296   -9.1702  -43.2743 C.3       4 UNK        -0.1800 
     54 N           1.6055   -9.6198  -42.3743 N.am      4 UNK        -0.5000 
     55 C           0.7370   -9.8842  -41.3894 C.2       3 UNK         0.5000 
     56 O           1.0469  -10.4099  -40.3196 O.2       3 UNK        -0.5000 
     57 CA         -0.7383   -9.5479  -41.6823 C.3       3 UNK         0.1400 
     58 CB         -1.0269   -8.0632  -41.4126 C.3       3 UNK        -0.1800 
     59 N          -1.1042   -9.8751  -43.0642 N.am      3 UNK        -0.5000 
     60 C          -1.1763  -11.1248  -43.5452 C.2       2 UNK         0.5000 
     61 O          -1.0688  -12.1281  -42.8398 O.2       2 UNK        -0.5000 
     62 CA         -1.3678  -11.3012  -45.0592 C.3       2 UNK         0.1400 
     63 CB         -1.5604   -9.9867  -45.8449 C.3       2 UNK        -0.1800 
     64 N          -0.1981  -12.0071  -45.5667 N.am      2 UNK        -0.5000 
     65 C          -0.1812  -12.8627  -46.5944 C.2       1 UNK         0.5000 
     66 O          -1.1836  -13.1675  -47.2437 O.2       1 UNK        -0.5000 
     67 C          -1.0271  -23.2982  -48.0695 C.2       11 UNK         0.5000 
     68 O          -1.1816  -24.0829  -49.0074 O.2       11 UNK        -0.5000 
     69 N          -1.8590  -22.2751  -47.8153 N.am      12 UNK        -0.5000 
     70 CA         -3.1323  -22.0497  -48.5003 C.3       12 UNK         0.1400 
     71 CB         -3.7270  -20.6994  -48.0753 C.3       12 UNK        -0.1800 
     72 C          -4.1342  -23.1852  -48.2287 C.2       12 UNK         0.5000 
     73 O          -4.6621  -23.7622  -49.1777 O.2       12 UNK        -0.5000 
     74 N          -4.3456  -23.5200  -46.9460 N.am      13 UNK        -0.5000 
     75 CA         -5.2345  -24.5993  -46.5011 C.3       13 UNK         0.1400 
     76 CB         -5.3449  -24.5784  -44.9694 C.3       13 UNK        -0.1800 
     77 C          -4.8007  -25.9928  -46.9942 C.2       13 UNK         0.5000 
     78 O          -5.6560  -26.8189  -47.3137 O.2       13 UNK        -0.5000 
     79 N          -3.4825  -26.2120  -47.0885 N.am      14 UNK        -0.5000 
     80 CA         -2.8693  -27.4047  -47.6756 C.3       14 UNK         0.1400 
     81 CB         -1.3973  -27.4673  -47.2380 C.3       14 UNK        -0.1800 
     82 C          -2.9674  -27.4600  -49.2157 C.2       14 UNK         0.5000 
     83 O          -2.6550  -28.5028  -49.7916 O.2       14 UNK        -0.5000 
     84 N          -3.3664  -26.3467  -49.8527 N.am      15 UNK        -0.5000 
     85 CA         -3.4515  -26.1200  -51.2995 C.3       15 UNK         0.1400 
     86 CB         -4.5163  -27.0329  -51.9428 C.3       15 UNK        -0.1800 
     87 C          -2.0833  -26.1966  -52.0085 C.2       15 UNK         0.5000 
     88 O          -2.0224  -26.5054  -53.1990 O.2       15 UNK        -0.5000 
     89 N          -1.0043  -25.8910  -51.2751 N.am      16 UNK        -0.5000 
     90 CA          0.3752  -25.9546  -51.7589 C.3       16 UNK         0.1400 
     91 CB          1.3264  -26.0009  -50.5556 C.3       16 UNK        -0.1800 
     92 C           0.7306  -24.7915  -52.7026 C.2       16 UNK         0.5000 
     93 O           1.6250  -24.9417  -53.5354 O.2       16 UNK        -0.5000 
     94 N           0.0107  -23.6664  -52.5771 N.am      17 UNK        -0.5000 
     95 CA          0.0997  -22.5201  -53.4852 C.3       17 UNK         0.1400 
     96 CB         -0.6411  -21.3269  -52.8620 C.3       17 UNK        -0.1800 
     97 C          -0.4637  -22.8264  -54.8882 C.2       17 UNK         0.5000 
     98 O           0.0503  -22.2923  -55.8703 O.2       17 UNK        -0.5000 
     99 N          -1.4961  -23.6813  -54.9251 N.am      18 UNK        -0.5000 
    100 CA        -2.2715  -24.2066  -56.0585 C.3       18 UNK         0.1400 
    101 CB        -2.4169  -23.2106  -57.2305 C.3       18 UNK        -0.1800 
    102 C         -3.6783  -24.5787  -55.5606 C.2       18 UNK         0.5000 
    103 O         -4.2438  -25.5821  -55.9948 O.2       18 UNK        -0.5000 
    104 N         -4.2062  -23.7507  -54.6532 N.am      19 UNK        -0.5000 
    105 CA        -5.5227  -23.8101  -54.0332 C.3       19 UNK         0.1400 
    106 CB        -6.6148  -23.4732  -55.0685 C.3       19 UNK        -0.1800 
    107 C         -5.5240  -22.7871  -52.8873 C.2       19 UNK         0.5000 
    108 O         -4.5821  -21.9967  -52.7764 O.2       19 UNK        -0.5000 
    109 N         -6.5987  -22.7713  -52.0895 N.am      20 UNK        -0.5000 
    110 CA        -6.8066  -21.8088  -50.9994 C.3       20 UNK         0.1400 
    111 CB        -7.9841  -22.2780  -50.1321 C.3       20 UNK        -0.1800 
    112 C         -7.0115  -20.3535  -51.4734 C.2       20 UNK         0.5000 
    113 O         -6.8592  -19.4303  -50.6737 O.2       20 UNK        -0.5000 
    114 N         -7.3306  -20.1723  -52.7631 N.am      21 UNK        -0.5000 
    115 CA        -7.3562  -18.8784  -53.4484 C.3       21 UNK         0.1400 
    116 CB        -8.1485  -19.0302  -54.7563 C.3       21 UNK        -0.1800 
    117 C         -5.9452  -18.3182  -53.7348 C.2       21 UNK         0.5000 
    118 O         -5.8116  -17.1114  -53.9432 O.2       21 UNK        -0.5000 
    119 N         -4.9306  -19.1949  -53.7285 N.am      22 UNK        -0.5000 
    120 CA        -3.5028  -18.9016  -53.9315 C.3       22 UNK         0.1400 
    121 C         -3.1691  -18.3528  -55.3543 C.2       22 UNK         0.5000 
    122 N         -2.0151  -17.7288  -55.5562 N.am      22 UNK        -0.7600 
    123 O         -3.9247  -18.5352  -56.3067 O.2       22 UNK        -0.5000 
    124 C124       -2.8924  -18.0653  -52.7682 C.3       23 UNK        -0.0398 
    125 S125       -3.2336  -18.7973  -51.1325 S.3       23 UNK        -0.2404 
    126 C126       -2.3399  -17.6519  -50.0355 C.3       23 UNK        -0.0205 
    127 H127        4.0041  -10.6473  -46.4855 H         1 UNK         0.0600 
    128 H128        4.1742  -10.2836  -48.2058 H         1 UNK         0.0600 
    129 H129        3.0252   -9.3738  -47.2173 H         1 UNK         0.0600 
    130 H130        2.8046  -12.4306  -46.0739 H         1 UNK         0.3000 
    131 H131        1.4426  -14.1375  -46.1447 H         1 UNK         0.0600 
    132 H132        0.9193  -13.6658  -49.1233 H         1 UNK         0.0800 
    133 H133        0.4113  -15.0506  -48.1909 H         1 UNK         0.0800 
    134 H134        3.3504  -16.2901  -50.6307 H         1 UNK         0.0800 
    135 H135        2.0224  -15.1938  -50.9050 H         1 UNK         0.0800 
    136 H136       -0.3022  -15.8791  -50.3794 H         1 UNK         0.1150 
    137 H137       -1.0499  -20.0185  -49.5652 H         1 UNK         0.1150 
    138 H138        2.9751  -18.5641  -49.7177 H         1 UNK         0.1150 
    139 H139        0.8257  -21.5746  -49.8419 H         1 UNK         0.0800 
    140 H140        2.4804  -21.0160  -49.8795 H         1 UNK         0.0800 
    141 H141        1.7378  -23.4200  -48.5617 H         1 UNK         0.0800 
    142 H142        2.2866  -23.3972  -46.9211 H         1 UNK         0.0800 
    143 H143        0.2448  -24.6198  -47.0232 H         1 UNK         0.0600 
    144 H144        0.2276  -22.2309  -45.4018 H         1 UNK         0.3000 
    145 H145       -2.2548  -23.5815  -43.1466 H         1 UNK         0.0600 
    146 H146       -0.4082  -22.9546  -41.5922 H         1 UNK         0.0600 
    147 H147       -0.0527  -24.4494  -42.4449 H         1 UNK         0.0600 
    148 H148        0.7371  -22.9570  -42.9323 H         1 UNK         0.0600 
    149 H149       -0.8618  -21.0542  -43.3324 H         1 UNK         0.3000 
    150 H150       -3.4533  -19.3286  -45.0600 H         1 UNK         0.0600 
    151 H151       -4.4958  -19.5303  -42.7932 H         1 UNK         0.0600 
    152 H152       -3.6728  -17.9895  -42.9852 H         1 UNK         0.0600 
    153 H153       -2.9246  -19.2756  -42.0403 H         1 UNK         0.0600 
    154 H154       -1.2341  -18.3446  -43.5901 H         1 UNK         0.3000 
    155 H155        1.3976  -19.1676  -45.7438 H         1 UNK         0.0600 
    156 H156        0.0758  -16.4072  -45.7055 H         1 UNK         0.0600 
    157 H157        0.4182  -17.3493  -47.1541 H         1 UNK         0.0600 
    158 H158        1.7427  -16.7659  -46.1610 H         1 UNK         0.0600 
    159 H159        1.3718  -17.2322  -43.7361 H         1 UNK         0.3000 
    160 H160        0.9377  -19.1168  -40.8385 H         1 UNK         0.0600 
    161 H161        3.7543  -18.4428  -41.8514 H         1 UNK         0.0600 
    162 H162        3.2260  -20.0246  -41.2901 H         1 UNK         0.0600 
    163 H163        3.2888  -18.6778  -40.1655 H         1 UNK         0.0600 
    164 H164        2.2357  -16.6165  -41.1908 H         1 UNK         0.3000 
    165 H165       -0.3239  -14.5929  -42.2686 H         1 UNK         0.0600 
    166 H166        0.4510  -14.6947  -39.3028 H         1 UNK         0.0600 
    167 H167       -0.2293  -13.3059  -40.1545 H         1 UNK         0.0600 
    168 H168       -1.1941  -14.7550  -39.9267 H         1 UNK         0.0600 
    169 H169        2.0494  -13.8041  -41.0089 H         1 UNK         0.3000 
    170 H170        4.3822  -14.3803  -42.1317 H         1 UNK         0.0600 
    171 H171        4.6561  -15.0898  -44.4718 H         1 UNK         0.0600 
    172 H172        3.9099  -13.6156  -45.0593 H         1 UNK         0.0600 
    173 H173        5.4602  -13.5479  -44.2262 H         1 UNK         0.0600 
    174 H174        4.2196  -12.2223  -41.6642 H         1 UNK         0.3000 
    175 H175        3.3929  -10.1867  -41.4273 H         1 UNK         0.0600 
    176 H176        3.8502   -8.1724  -42.8357 H         1 UNK         0.0600 
    177 H177        4.8606   -9.5211  -43.3339 H         1 UNK         0.0600 
    178 H178        3.4542   -9.0799  -44.2946 H         1 UNK         0.0600 
    179 H179        1.2432   -9.2345  -43.2333 H         1 UNK         0.3000 
    180 H180       -1.3589  -10.1447  -41.0102 H         1 UNK         0.0600 
    181 H181       -2.0828   -7.8345  -41.5583 H         1 UNK         0.0600 
    182 H182       -0.7768   -7.7988  -40.3843 H         1 UNK         0.0600 
    183 H183       -0.4482   -7.4121  -42.0690 H         1 UNK         0.0600 
    184 H184       -1.2229   -9.1009  -43.7012 H         1 UNK         0.3000 
    185 H185       -2.2567  -11.9214  -45.1908 H         1 UNK         0.0600 
    186 H186       -1.7354  -10.1895  -46.9018 H         1 UNK         0.0600 
    187 H187       -2.4250   -9.4296  -45.4817 H         1 UNK         0.0600 
    188 H188       -0.6847   -9.3398  -45.7785 H         1 UNK         0.0600 
    189 H189        0.6657  -11.8575  -45.0470 H         1 UNK         0.3000 
    190 H190       -1.6161  -21.6185  -47.0803 H         1 UNK         0.3000 
    191 H191       -2.9354  -22.0135  -49.5742 H         1 UNK         0.0600 
    192 H192       -4.6038  -20.4535  -48.6755 H         1 UNK         0.0600 
    193 H193       -3.0074  -19.8944  -48.2059 H         1 UNK         0.0600 
    194 H194       -4.0346  -20.6967  -47.0307 H         1 UNK         0.0600 
    195 H195       -3.8959  -22.9805  -46.2124 H         1 UNK         0.3000 
    196 H196       -6.2250  -24.4005  -46.9153 H         1 UNK         0.0600 
    197 H197       -6.0029  -25.3716  -44.6125 H         1 UNK         0.0600 
    198 H198       -5.7571  -23.6326  -44.6176 H         1 UNK         0.0600 
    199 H199       -4.3732  -24.7174  -44.4943 H         1 UNK         0.0600 
    200 H200       -2.8495  -25.5096  -46.7191 H         1 UNK         0.3000 
    201 H201       -3.3815  -28.2847  -47.2815 H         1 UNK         0.0600 
    202 H202       -1.3045  -27.4448  -46.1520 H         1 UNK         0.0600 
    203 H203       -0.8251  -26.6330  -47.6431 H         1 UNK         0.0600 
    204 H204       -0.9239  -28.3866  -47.5850 H         1 UNK         0.0600 
    205 H205       -3.6142  -25.5414  -49.2888 H         1 UNK         0.3000 
    206 H206       -3.7877  -25.0899  -51.4234 H         1 UNK         0.0600 
    207 H207       -5.4867  -26.9009  -51.4642 H         1 UNK         0.0600 
    208 H208       -4.6430  -26.8085  -53.0020 H         1 UNK         0.0600 
    209 H209       -4.2466  -28.0865  -51.8710 H         1 UNK         0.0600 
    210 H210       -1.1400  -25.5519  -50.3271 H         1 UNK         0.3000 
    211 H211        0.4991  -26.8823  -52.3218 H         1 UNK         0.0600 
    212 H212        1.2309  -25.1080  -49.9418 H         1 UNK         0.0600 
    213 H213        2.3658  -26.0711  -50.8786 H         1 UNK         0.0600 
    214 H214        1.1212  -26.8653  -49.9237 H         1 UNK         0.0600 
    215 H215       -0.6787  -23.6212  -51.8406 H         1 UNK         0.3000 
    216 H216        1.1518  -22.2499  -53.5983 H         1 UNK         0.0600 
    217 H217       -0.6057  -20.4575  -53.5195 H         1 UNK         0.0600 
    218 H218       -0.1855  -21.0315  -51.9194 H         1 UNK         0.0600 
    219 H219       -1.6902  -21.5545  -52.6684 H         1 UNK         0.0600 
    220 H220       -1.7612  -24.0940  -54.0415 H         1 UNK         0.3000 
    221 H221       -1.7829  -25.1157  -56.4128 H         1 UNK         0.0600 
    222 H222       -2.7513  -22.2298  -56.8899 H         1 UNK         0.0600 
    223 H223       -1.4773  -23.0829  -57.7670 H         1 UNK         0.0600 
    224 H224       -3.1432  -23.5675  -57.9622 H         1 UNK         0.0600 
    225 H225       -3.6659  -22.9525  -54.3403 H         1 UNK         0.3000 
    226 H226       -5.6894  -24.8053  -53.6204 H         1 UNK         0.0600 
    227 H227       -7.6090  -23.4989  -54.6215 H         1 UNK         0.0600 
    228 H228       -6.4699  -22.4797  -55.4953 H         1 UNK         0.0600 
    229 H229       -6.6202  -24.1892  -55.8902 H         1 UNK         0.0600 
    230 H230       -7.3352  -23.4463  -52.2372 H         1 UNK         0.3000 
    231 H231       -5.9087  -21.8053  -50.3806 H         1 UNK         0.0600 
    232 H232       -8.1495  -21.5978  -49.2956 H         1 UNK         0.0600 
    233 H233       -7.7914  -23.2652  -49.7110 H         1 UNK         0.0600 
    234 H234       -8.9111  -22.3282  -50.7044 H         1 UNK         0.0600 
    235 H235       -7.4699  -20.9897  -53.3372 H         1 UNK         0.3000 
    236 H236       -7.8760  -18.1579  -52.8133 H         1 UNK         0.0600 
    237 H237       -7.6766  -19.7451  -55.4317 H         1 UNK         0.0600 
    238 H238       -9.1669  -19.3687  -54.5647 H         1 UNK         0.0600 
    239 H239       -8.2174  -18.0777  -55.2836 H         1 UNK         0.0600 
    240 H240       -5.1273  -20.1607  -53.4989 H         1 UNK         0.3000 
    241 H241       -3.0235  -19.8796  -53.9081 H         1 UNK         0.0600 
    242 H242       -1.8020  -17.3977  -56.4845 H         1 UNK         0.3800 
    243 H243       -1.3488  -17.5767  -54.8165 H         1 UNK         0.3800 
    244 H244       -3.2799  -17.0456  -52.7855 H         1 UNK         0.0800 
    245 H245       -1.8093  -17.9919  -52.8707 H         1 UNK         0.0800 
    246 H246       -2.5458  -16.6266  -50.3462 H         1 UNK         0.0800 
    247 H247       -2.7374  -17.7456  -49.0249 H         1 UNK         0.0800 
@<TRIPOS>BOND
     1    1    2 1    
     2    1  127 1    
     3    1  128 1    
     4    1  129 1    
     5    2    3 2    
     6    2    4 am   BACKBONE|DICT|INTERRES
     7    4    5 1    
     8    4  130 1    
     9    5    6 1    
    10    5   65 1    
    11    5  131 1    
    12    6    7 1    
    13    6  132 1    
    14    6  133 1    
    15    7    8 1    
    16    8    9 1    
    17    8  134 1    
    18    8  135 1    
    19    9   10 ar   
    20    9   14 ar   
    21   10   11 ar   
    22   10  136 1    
    23   11   12 ar   
    24   11  126 1    
    25   12   13 ar   
    26   12  137 1    
    27   13   14 ar   
    28   13   15 1    
    29   14  138 1    
    30   15   16 1    
    31   15  139 1    
    32   15  140 1    
    33   16   17 1    
    34   17   18 1    
    35   17  141 1    
    36   17  142 1    
    37   18   19 1    
    38   18   67 1    
    39   18  143 1    
    40   19   20 am   BACKBONE|DICT|INTERRES
    41   19  144 1    
    42   20   21 2    
    43   20   22 1    
    44   22   23 1    
    45   22   24 1    
    46   22  145 1    
    47   23  146 1    
    48   23  147 1    
    49   23  148 1    
    50   24   25 am   BACKBONE|DICT|INTERRES
    51   24  149 1    
    52   25   26 2    
    53   25   27 1    
    54   27   28 1    
    55   27   29 1    
    56   27  150 1    
    57   28  151 1    
    58   28  152 1    
    59   28  153 1    
    60   29   30 am   BACKBONE|DICT|INTERRES
    61   29  154 1    
    62   30   31 2    
    63   30   32 1    
    64   32   33 1    
    65   32   34 1    
    66   32  155 1    
    67   33  156 1    
    68   33  157 1    
    69   33  158 1    
    70   34   35 am   BACKBONE|DICT|INTERRES
    71   34  159 1    
    72   35   36 2    
    73   35   37 1    
    74   37   38 1    
    75   37   39 1    
    76   37  160 1    
    77   38  161 1    
    78   38  162 1    
    79   38  163 1    
    80   39   40 am   BACKBONE|DICT|INTERRES
    81   39  164 1    
    82   40   41 2    
    83   40   42 1    
    84   42   43 1    
    85   42   44 1    
    86   42  165 1    
    87   43  166 1    
    88   43  167 1    
    89   43  168 1    
    90   44   45 am   BACKBONE|DICT|INTERRES
    91   44  169 1    
    92   45   46 2    
    93   45   47 1    
    94   47   48 1    
    95   47   49 1    
    96   47  170 1    
    97   48  171 1    
    98   48  172 1    
    99   48  173 1    
   100   49   50 am   BACKBONE|DICT|INTERRES
   101   49  174 1    
   102   50   51 2    
   103   50   52 1    
   104   52   53 1    
   105   52   54 1    
   106   52  175 1    
   107   53  176 1    
   108   53  177 1    
   109   53  178 1    
   110   54   55 am   BACKBONE|DICT|INTERRES
   111   54  179 1    
   112   55   56 2    
   113   55   57 1    
   114   57   58 1    
   115   57   59 1    
   116   57  180 1    
   117   58  181 1    
   118   58  182 1    
   119   58  183 1    
   120   59   60 am   BACKBONE|DICT|INTERRES
   121   59  184 1    
   122   60   61 2    
   123   60   62 1    
   124   62   63 1    
   125   62   64 1    
   126   62  185 1    
   127   63  186 1    
   128   63  187 1    
   129   63  188 1    
   130   64   65 am   BACKBONE|DICT|INTERRES
   131   64  189 1    
   132   65   66 2    
   133   67   68 2    
   134   67   69 am   BACKBONE|DICT|INTERRES
   135   69   70 1    
   136   69  190 1    
   137   70   71 1    
   138   70   72 1    
   139   70  191 1    
   140   71  192 1    
   141   71  193 1    
   142   71  194 1    
   143   72   73 2    
   144   72   74 am   BACKBONE|DICT|INTERRES
   145   74   75 1    
   146   74  195 1    
   147   75   76 1    
   148   75   77 1    
   149   75  196 1    
   150   76  197 1    
   151   76  198 1    
   152   76  199 1    
   153   77   78 2    
   154   77   79 am   BACKBONE|DICT|INTERRES
   155   79   80 1    
   156   79  200 1    
   157   80   81 1    
   158   80   82 1    
   159   80  201 1    
   160   81  202 1    
   161   81  203 1    
   162   81  204 1    
   163   82   83 2    
   164   82   84 am   BACKBONE|DICT|INTERRES
   165   84   85 1    
   166   84  205 1    
   167   85   86 1    
   168   85   87 1    
   169   85  206 1    
   170   86  207 1    
   171   86  208 1    
   172   86  209 1    
   173   87   88 2    
   174   87   89 am   BACKBONE|DICT|INTERRES
   175   89   90 1    
   176   89  210 1    
   177   90   91 1    
   178   90   92 1    
   179   90  211 1    
   180   91  212 1    
   181   91  213 1    
   182   91  214 1    
   183   92   93 2    
   184   92   94 am   BACKBONE|DICT|INTERRES
   185   94   95 1    
   186   94  215 1    
   187   95   96 1    
   188   95   97 1    
   189   95  216 1    
   190   96  217 1    
   191   96  218 1    
   192   96  219 1    
   193   97   98 2    
   194   97   99 am   BACKBONE|DICT|INTERRES
   195   99  100 1    
   196   99  220 1    
   197  100  101 1    
   198  100  102 1    
   199  100  221 1    
   200  101  222 1    
   201  101  223 1    
   202  101  224 1    
   203  102  103 2    
   204  102  104 am   BACKBONE|DICT|INTERRES
   205  104  105 1    
   206  104  225 1    
   207  105  106 1    
   208  105  107 1    
   209  105  226 1    
   210  106  227 1    
   211  106  228 1    
   212  106  229 1    
   213  107  108 2    
   214  107  109 am   BACKBONE|DICT|INTERRES
   215  109  110 1    
   216  109  230 1    
   217  110  111 1    
   218  110  112 1    
   219  110  231 1    
   220  111  232 1    
   221  111  233 1    
   222  111  234 1    
   223  112  113 2    
   224  112  114 am   BACKBONE|DICT|INTERRES
   225  114  115 1    
   226  114  235 1    
   227  115  116 1    
   228  115  117 1    
   229  115  236 1    
   230  116  237 1    
   231  116  238 1    
   232  116  239 1    
   233  117  118 2    
   234  117  119 am   BACKBONE|DICT|INTERRES
   235  119  120 1    
   236  119  240 1    
   237  120  121 1    
   238  120  124 1    
   239  120  241 1    
   240  121  122 am   BACKBONE|DICT|INTERRES
   241  121  123 2    
   242  122  242 1    
   243  122  243 1    
   244  124  125 1    
   245  124  244 1    
   246  124  245 1    
   247  125  126 1    
   248  126  246 1    
   249  126  247 1    
@<TRIPOS>SUBSTRUCTURE
     1 UNK         1 GROUP             0       ****    0 ROOT    
