@<TRIPOS>MOLECULE
3R540
247   249    1
SMALL
USER_CHARGES


@<TRIPOS>ATOM
      1 CA          0.5650   -8.9801  -48.2439 C.3       0 UNK        -0.1800 
      2 C           1.6234  -10.0051  -48.6255 C.2       0 UNK         0.5000 
      3 O           2.8151   -9.7445  -48.4615 O.2       0 UNK        -0.5000 
      4 N           1.1936  -11.1704  -49.1296 N.am      1 UNK        -0.5000 
      5 CA          2.0667  -12.2795  -49.5464 C.3       1 UNK         0.1400 
      6 C6          1.3158  -13.2754  -50.4734 C.3       23 UNK        -0.0398 
      7 S7          2.2976  -13.7552  -51.9346 S.3       23 UNK        -0.2404 
      8 C8          2.8600  -15.4336  -51.4846 C.3       23 UNK        -0.0205 
      9 C9          1.7741  -16.5071  -51.3788 C.ar      23 UNK        -0.0193 
     10 C10         0.4895  -16.3549  -51.9198 C.ar      23 UNK        -0.1150 
     11 C11        -0.4659  -17.3682  -51.7927 C.ar      23 UNK        -0.0193 
     12 C12        -0.1268  -18.5536  -51.1356 C.ar      23 UNK        -0.1150 
     13 C13         1.1533  -18.7277  -50.6029 C.ar      23 UNK        -0.0193 
     14 C14         2.0934  -17.7019  -50.7276 C.ar      23 UNK        -0.1150 
     15 C15         1.5361  -20.0235  -49.9030 C.3       23 UNK        -0.0205 
     16 S16         1.5034  -19.8539  -48.0913 S.3       23 UNK        -0.2404 
     17 C17        -0.2869  -19.9006  -47.7470 C.3       23 UNK        -0.0398 
     18 CA         -0.7321  -21.2771  -47.2013 C.3       11 UNK         0.1400 
     19 N          -0.2608  -21.5231  -45.8361 N.am      11 UNK        -0.5000 
     20 C          -0.3888  -22.6826  -45.1756 C.2       10 UNK         0.5000 
     21 O          -0.8905  -23.6956  -45.6622 O.2       10 UNK        -0.5000 
     22 CA          0.0614  -22.6944  -43.7039 C.3       10 UNK         0.1400 
     23 CB          1.5909  -22.7768  -43.5890 C.3       10 UNK        -0.1800 
     24 N          -0.4321  -21.5287  -42.9697 N.am      10 UNK        -0.5000 
     25 C          -1.7281  -21.2819  -42.7291 C.2       9 UNK         0.5000 
     26 O          -2.6426  -22.0358  -43.0607 O.2       9 UNK        -0.5000 
     27 CA         -2.0626  -19.9442  -42.0487 C.3       9 UNK         0.1400 
     28 CB         -1.9132  -20.0500  -40.5239 C.3       9 UNK        -0.1800 
     29 N          -1.2317  -18.8513  -42.5519 N.am      9 UNK        -0.5000 
     30 C          -1.3198  -18.3474  -43.7913 C.2       8 UNK         0.5000 
     31 O          -2.1293  -18.7349  -44.6333 O.2       8 UNK        -0.5000 
     32 CA         -0.2961  -17.2629  -44.1681 C.3       8 UNK         0.1400 
     33 CB         -0.7691  -15.8895  -43.6718 C.3       8 UNK        -0.1800 
     34 N           1.0420  -17.5446  -43.6437 N.am      8 UNK        -0.5000 
     35 C           1.7756  -18.6135  -43.9947 C.2       7 UNK         0.5000 
     36 O           1.3923  -19.4585  -44.7998 O.2       7 UNK        -0.5000 
     37 CA          3.1392  -18.8140  -43.3056 C.3       7 UNK         0.1400 
     38 CB          4.2616  -18.1989  -44.1545 C.3       7 UNK        -0.1800 
     39 N           3.2009  -18.2571  -41.9560 N.am      7 UNK        -0.5000 
     40 C           2.3980  -18.5924  -40.9363 C.2       6 UNK         0.5000 
     41 O           1.5648  -19.4979  -40.9928 O.2       6 UNK        -0.5000 
     42 CA          2.5056  -17.7311  -39.6611 C.3       6 UNK         0.1400 
     43 CB          3.3358  -18.4578  -38.5927 C.3       6 UNK        -0.1800 
     44 N           3.0721  -16.3923  -39.8812 N.am      6 UNK        -0.5000 
     45 C           2.5530  -15.4518  -40.6837 C.2       5 UNK         0.5000 
     46 O           1.5530  -15.6261  -41.3834 O.2       5 UNK        -0.5000 
     47 CA          3.3273  -14.1253  -40.7736 C.3       5 UNK         0.1400 
     48 CB          4.3300  -14.1760  -41.9368 C.3       5 UNK        -0.1800 
     49 N           2.4280  -12.9868  -40.9604 N.am      5 UNK        -0.5000 
     50 C           1.6031  -12.5174  -40.0126 C.2       4 UNK         0.5000 
     51 O           1.5647  -12.9657  -38.8654 O.2       4 UNK        -0.5000 
     52 CA          0.6790  -11.3400  -40.3819 C.3       4 UNK         0.1400 
     53 CB          1.2366  -10.0234  -39.8183 C.3       4 UNK        -0.1800 
     54 N           0.4733  -11.1826  -41.8210 N.am      4 UNK        -0.5000 
     55 C          -0.3084  -11.9641  -42.5766 C.2       3 UNK         0.5000 
     56 O          -0.9674  -12.9047  -42.1342 O.2       3 UNK        -0.5000 
     57 CA         -0.3814  -11.6312  -44.0816 C.3       3 UNK         0.1400 
     58 CB         -0.1353  -10.1386  -44.3946 C.3       3 UNK        -0.1800 
     59 N           0.4978  -12.4691  -44.9042 N.am      3 UNK        -0.5000 
     60 C           1.8239  -12.6415  -44.7718 C.2       2 UNK         0.5000 
     61 O           2.5004  -12.1574  -43.8644 O.2       2 UNK        -0.5000 
     62 CA          2.5161  -13.4327  -45.8904 C.3       2 UNK         0.1400 
     63 CB          2.2695  -14.9466  -45.7674 C.3       2 UNK        -0.1800 
     64 N           2.0522  -12.9322  -47.1816 N.am      2 UNK        -0.5000 
     65 C           2.7146  -13.0041  -48.3420 C.2       1 UNK         0.5000 
     66 O           3.7904  -13.5868  -48.4811 O.2       1 UNK        -0.5000 
     67 C          -2.2581  -21.4415  -47.3265 C.2       11 UNK         0.5000 
     68 O          -2.7098  -22.0432  -48.3002 O.2       11 UNK        -0.5000 
     69 N          -3.0206  -20.9423  -46.3430 N.am      12 UNK        -0.5000 
     70 CA         -4.4735  -21.1009  -46.2714 C.3       12 UNK         0.1400 
     71 CB         -5.0426  -20.2208  -45.1489 C.3       12 UNK        -0.1800 
     72 C          -4.8983  -22.5690  -46.0900 C.2       12 UNK         0.5000 
     73 O          -5.7878  -23.0299  -46.8051 O.2       12 UNK        -0.5000 
     74 N          -4.2309  -23.2866  -45.1742 N.am      13 UNK        -0.5000 
     75 CA         -4.4595  -24.7078  -44.8986 C.3       13 UNK         0.1400 
     76 CB         -3.6550  -25.1265  -43.6588 C.3       13 UNK        -0.1800 
     77 C          -4.1259  -25.6178  -46.0957 C.2       13 UNK         0.5000 
     78 O          -4.8684  -26.5614  -46.3690 O.2       13 UNK        -0.5000 
     79 N          -3.0351  -25.2997  -46.8049 N.am      14 UNK        -0.5000 
     80 CA         -2.6026  -25.9834  -48.0252 C.3       14 UNK         0.1400 
     81 CB         -1.1072  -25.6994  -48.2402 C.3       14 UNK        -0.1800 
     82 C          -3.4015  -25.5711  -49.2781 C.2       14 UNK         0.5000 
     83 O          -3.2172  -26.1836  -50.3308 O.2       14 UNK        -0.5000 
     84 N          -4.2194  -24.5134  -49.1708 N.am      15 UNK        -0.5000 
     85 CA         -4.9638  -23.8495  -50.2452 C.3       15 UNK         0.1400 
     86 CB         -6.1071  -24.7493  -50.7564 C.3       15 UNK        -0.1800 
     87 C          -4.0369  -23.3588  -51.3757 C.2       15 UNK         0.5000 
     88 O          -4.3409  -23.5557  -52.5529 O.2       15 UNK        -0.5000 
     89 N          -2.9122  -22.7402  -50.9894 N.am      16 UNK        -0.5000 
     90 CA         -1.8018  -22.2960  -51.8414 C.3       16 UNK         0.1400 
     91 CB         -2.2417  -21.1558  -52.7823 C.3       16 UNK        -0.1800 
     92 C          -1.1086  -23.4606  -52.5817 C.2       16 UNK         0.5000 
     93 O          -0.6776  -23.2978  -53.7227 O.2       16 UNK        -0.5000 
     94 N          -1.0245  -24.6162  -51.9048 N.am      17 UNK        -0.5000 
     95 CA         -0.5618  -25.9129  -52.4108 C.3       17 UNK         0.1400 
     96 CB          0.9278  -25.8669  -52.8124 C.3       17 UNK        -0.1800 
     97 C          -1.4911  -26.4389  -53.5229 C.2       17 UNK         0.5000 
     98 O          -1.0333  -26.7632  -54.6203 O.2       17 UNK        -0.5000 
     99 N          -2.7913  -26.4934  -53.1962 N.am      18 UNK        -0.5000 
    100 CA        -3.9115  -26.8981  -54.0507 C.3       18 UNK         0.1400 
    101 CB        -3.8379  -28.4068  -54.3653 C.3       18 UNK        -0.1800 
    102 C         -4.0511  -26.0175  -55.3115 C.2       18 UNK         0.5000 
    103 O         -4.1686  -26.5343  -56.4246 O.2       18 UNK        -0.5000 
    104 N         -4.0425  -24.6963  -55.1037 N.am      19 UNK        -0.5000 
    105 CA        -4.1919  -23.6675  -56.1330 C.3       19 UNK         0.1400 
    106 CB        -2.8277  -23.0139  -56.4137 C.3       19 UNK        -0.1800 
    107 C         -5.2719  -22.6514  -55.7175 C.2       19 UNK         0.5000 
    108 O         -5.1295  -21.4541  -55.9733 O.2       19 UNK        -0.5000 
    109 N         -6.3321  -23.1551  -55.0649 N.am      20 UNK        -0.5000 
    110 CA        -7.5510  -22.4484  -54.6491 C.3       20 UNK         0.1400 
    111 CB        -8.4065  -22.1078  -55.8869 C.3       20 UNK        -0.1800 
    112 C         -7.2954  -21.2167  -53.7536 C.2       20 UNK         0.5000 
    113 O         -8.0216  -20.2254  -53.8500 O.2       20 UNK        -0.5000 
    114 N         -6.2412  -21.2835  -52.9258 N.am      21 UNK        -0.5000 
    115 CA        -5.7548  -20.2166  -52.0387 C.3       21 UNK         0.1400 
    116 CB        -6.7481  -19.9761  -50.8833 C.3       21 UNK        -0.1800 
    117 C         -5.3745  -18.9212  -52.7929 C.2       21 UNK         0.5000 
    118 O         -5.5156  -17.8275  -52.2446 O.2       21 UNK        -0.5000 
    119 N         -4.9178  -19.0782  -54.0439 N.am      22 UNK        -0.5000 
    120 CA        -4.6466  -18.0148  -55.0262 C.3       22 UNK         0.1400 
    121 C         -5.9279  -17.3350  -55.6044 C.2       22 UNK         0.5000 
    122 N         -7.1325  -17.8401  -55.3621 N.am      22 UNK        -0.7600 
    123 O         -5.8316  -16.3403  -56.3185 O.2       22 UNK        -0.5000 
    124 C124       -3.5881  -16.9691  -54.5671 C.3       23 UNK        -0.0398 
    125 S125       -1.9800  -17.6931  -54.0884 S.3       23 UNK        -0.2404 
    126 C126       -1.8672  -17.1675  -52.3501 C.3       23 UNK        -0.0205 
    127 H127       -0.4391   -9.4040  -48.2718 H         1 UNK         0.0600 
    128 H128        0.5987   -8.1343  -48.9305 H         1 UNK         0.0600 
    129 H129        0.7482   -8.6078  -47.2360 H         1 UNK         0.0600 
    130 H130        0.2016  -11.3159  -49.2547 H         1 UNK         0.3000 
    131 H131        2.8857  -11.8277  -50.1108 H         1 UNK         0.0600 
    132 H132        0.9700  -14.1612  -49.9367 H         1 UNK         0.0800 
    133 H133        0.4088  -12.8167  -50.8698 H         1 UNK         0.0800 
    134 H134        3.5839  -15.7584  -52.2329 H         1 UNK         0.0800 
    135 H135        3.4035  -15.3717  -50.5407 H         1 UNK         0.0800 
    136 H136        0.2184  -15.4491  -52.4419 H         1 UNK         0.1150 
    137 H137       -0.8605  -19.3388  -51.0376 H         1 UNK         0.1150 
    138 H138        3.0826  -17.8374  -50.3125 H         1 UNK         0.1150 
    139 H139        0.8839  -20.8418  -50.2086 H         1 UNK         0.0800 
    140 H140        2.5432  -20.3115  -50.2079 H         1 UNK         0.0800 
    141 H141       -0.8286  -19.6463  -48.6581 H         1 UNK         0.0800 
    142 H142       -0.5226  -19.1113  -47.0315 H         1 UNK         0.0800 
    143 H143       -0.2899  -22.0493  -47.8347 H         1 UNK         0.0600 
    144 H144        0.2213  -20.7492  -45.3827 H         1 UNK         0.3000 
    145 H145       -0.3599  -23.5860  -43.2347 H         1 UNK         0.0600 
    146 H146        1.9669  -23.6792  -44.0725 H         1 UNK         0.0600 
    147 H147        2.0817  -21.9265  -44.0615 H         1 UNK         0.0600 
    148 H148        1.9075  -22.8099  -42.5464 H         1 UNK         0.0600 
    149 H149        0.2530  -20.8490  -42.6689 H         1 UNK         0.3000 
    150 H150       -3.1053  -19.7076  -42.2708 H         1 UNK         0.0600 
    151 H151       -2.1890  -19.1158  -40.0345 H         1 UNK         0.0600 
    152 H152       -0.8914  -20.2932  -40.2317 H         1 UNK         0.0600 
    153 H153       -2.5619  -20.8303  -40.1239 H         1 UNK         0.0600 
    154 H154       -0.5002  -18.5150  -41.9413 H         1 UNK         0.3000 
    155 H155       -0.2264  -17.2291  -45.2573 H         1 UNK         0.0600 
    156 H156       -1.7157  -15.6101  -44.1355 H         1 UNK         0.0600 
    157 H157       -0.0474  -15.1090  -43.9063 H         1 UNK         0.0600 
    158 H158       -0.9187  -15.8800  -42.5914 H         1 UNK         0.0600 
    159 H159        1.3897  -16.9107  -42.9309 H         1 UNK         0.3000 
    160 H160        3.3141  -19.8887  -43.2289 H         1 UNK         0.0600 
    161 H161        4.2458  -18.5970  -45.1703 H         1 UNK         0.0600 
    162 H162        5.2422  -18.4229  -43.7344 H         1 UNK         0.0600 
    163 H163        4.1659  -17.1149  -44.2255 H         1 UNK         0.0600 
    164 H164        3.8546  -17.5032  -41.8095 H         1 UNK         0.3000 
    165 H165        1.4920  -17.6000  -39.2771 H         1 UNK         0.0600 
    166 H166        3.3399  -17.9061  -37.6525 H         1 UNK         0.0600 
    167 H167        2.9256  -19.4471  -38.3846 H         1 UNK         0.0600 
    168 H168        4.3708  -18.5916  -38.9098 H         1 UNK         0.0600 
    169 H169        3.9077  -16.1748  -39.3571 H         1 UNK         0.3000 
    170 H170        3.8815  -13.9736  -39.8449 H         1 UNK         0.0600 
    171 H171        4.8749  -13.2364  -42.0305 H         1 UNK         0.0600 
    172 H172        5.0672  -14.9652  -41.7849 H         1 UNK         0.0600 
    173 H173        3.8343  -14.3708  -42.8880 H         1 UNK         0.0600 
    174 H174        2.3795  -12.5932  -41.8947 H         1 UNK         0.3000 
    175 H175       -0.2897  -11.5266  -39.9136 H         1 UNK         0.0600 
    176 H176        2.2037   -9.7756  -40.2578 H         1 UNK         0.0600 
    177 H177        0.5570   -9.1927  -40.0098 H         1 UNK         0.0600 
    178 H178        1.3735  -10.0867  -38.7380 H         1 UNK         0.0600 
    179 H179        1.0080  -10.4581  -42.2779 H         1 UNK         0.3000 
    180 H180       -1.4027  -11.8607  -44.3898 H         1 UNK         0.0600 
    181 H181       -0.3762   -9.9193  -45.4343 H         1 UNK         0.0600 
    182 H182        0.9012   -9.8433  -44.2288 H         1 UNK         0.0600 
    183 H183       -0.7675   -9.4973  -43.7790 H         1 UNK         0.0600 
    184 H184        0.0271  -12.9804  -45.6363 H         1 UNK         0.3000 
    185 H185        3.5886  -13.2456  -45.8022 H         1 UNK         0.0600 
    186 H186        1.2332  -15.2056  -45.9833 H         1 UNK         0.0600 
    187 H187        2.8997  -15.5057  -46.4591 H         1 UNK         0.0600 
    188 H188        2.4983  -15.3004  -44.7621 H         1 UNK         0.0600 
    189 H189        1.2193  -12.3619  -47.1569 H         1 UNK         0.3000 
    190 H190       -2.5854  -20.4026  -45.6011 H         1 UNK         0.3000 
    191 H191       -4.8928  -20.7503  -47.2170 H         1 UNK         0.0600 
    192 H192       -4.6339  -20.4919  -44.1755 H         1 UNK         0.0600 
    193 H193       -6.1273  -20.3173  -45.0885 H         1 UNK         0.0600 
    194 H194       -4.8196  -19.1681  -45.3232 H         1 UNK         0.0600 
    195 H195       -3.5334  -22.8223  -44.5987 H         1 UNK         0.3000 
    196 H196       -5.5202  -24.8353  -44.6730 H         1 UNK         0.0600 
    197 H197       -3.8151  -26.1797  -43.4248 H         1 UNK         0.0600 
    198 H198       -3.9534  -24.5499  -42.7831 H         1 UNK         0.0600 
    199 H199       -2.5844  -24.9803  -43.8056 H         1 UNK         0.0600 
    200 H200       -2.4363  -24.5492  -46.4699 H         1 UNK         0.3000 
    201 H201       -2.7319  -27.0593  -47.8922 H         1 UNK         0.0600 
    202 H202       -0.5199  -26.0107  -47.3761 H         1 UNK         0.0600 
    203 H203       -0.9196  -24.6373  -48.4047 H         1 UNK         0.0600 
    204 H204       -0.7211  -26.2425  -49.1032 H         1 UNK         0.0600 
    205 H205       -4.2805  -24.0636  -48.2665 H         1 UNK         0.3000 
    206 H206       -5.4119  -22.9576  -49.8050 H         1 UNK         0.0600 
    207 H207       -6.7309  -24.2183  -51.4765 H         1 UNK         0.0600 
    208 H208       -5.7300  -25.6464  -51.2482 H         1 UNK         0.0600 
    209 H209       -6.7540  -25.0635  -49.9374 H         1 UNK         0.0600 
    210 H210       -2.7887  -22.5837  -49.9885 H         1 UNK         0.3000 
    211 H211       -1.0500  -21.8882  -51.1659 H         1 UNK         0.0600 
    212 H212       -3.0136  -21.4734  -53.4821 H         1 UNK         0.0600 
    213 H213       -1.4022  -20.7836  -53.3706 H         1 UNK         0.0600 
    214 H214       -2.6285  -20.3093  -52.2185 H         1 UNK         0.0600 
    215 H215       -1.4544  -24.6449  -50.9922 H         1 UNK         0.3000 
    216 H216       -0.6504  -26.6168  -51.5823 H         1 UNK         0.0600 
    217 H217        1.2902  -26.8637  -53.0660 H         1 UNK         0.0600 
    218 H218        1.5447  -25.4955  -51.9942 H         1 UNK         0.0600 
    219 H219        1.1010  -25.2297  -53.6797 H         1 UNK         0.0600 
    220 H220       -3.0430  -26.2299  -52.2467 H         1 UNK         0.3000 
    221 H221       -4.8154  -26.7311  -53.4632 H         1 UNK         0.0600 
    222 H222       -2.9729  -28.6522  -54.9821 H         1 UNK         0.0600 
    223 H223       -3.7756  -28.9966  -53.4507 H         1 UNK         0.0600 
    224 H224       -4.7272  -28.7370  -54.9034 H         1 UNK         0.0600 
    225 H225       -3.9866  -24.3498  -54.1467 H         1 UNK         0.3000 
    226 H226       -4.5462  -24.1162  -57.0628 H         1 UNK         0.0600 
    227 H227       -2.0788  -23.7614  -56.6761 H         1 UNK         0.0600 
    228 H228       -2.8927  -22.3114  -57.2453 H         1 UNK         0.0600 
    229 H229       -2.4602  -22.4642  -55.5484 H         1 UNK         0.0600 
    230 H230       -6.3180  -24.1455  -54.8677 H         1 UNK         0.3000 
    231 H231       -8.1188  -23.1504  -54.0370 H         1 UNK         0.0600 
    232 H232       -7.9187  -21.3667  -56.5213 H         1 UNK         0.0600 
    233 H233       -8.5957  -22.9944  -56.4919 H         1 UNK         0.0600 
    234 H234       -9.3769  -21.7034  -55.5966 H         1 UNK         0.0600 
    235 H235       -5.6740  -22.1250  -52.9584 H         1 UNK         0.3000 
    236 H236       -4.8329  -20.5801  -51.5894 H         1 UNK         0.0600 
    237 H237       -7.6825  -19.5396  -51.2369 H         1 UNK         0.0600 
    238 H238       -6.9863  -20.9061  -50.3674 H         1 UNK         0.0600 
    239 H239       -6.3289  -19.2945  -50.1422 H         1 UNK         0.0600 
    240 H240       -4.8860  -20.0153  -54.4290 H         1 UNK         0.3000 
    241 H241       -4.2175  -18.5390  -55.8807 H         1 UNK         0.0600 
    242 H242       -7.2600  -18.6642  -54.7838 H         1 UNK         0.3800 
    243 H243       -7.9408  -17.3871  -55.7576 H         1 UNK         0.3800 
    244 H244       -3.3790  -16.2699  -55.3782 H         1 UNK         0.0800 
    245 H245       -3.9833  -16.3593  -53.7543 H         1 UNK         0.0800 
    246 H246       -2.5961  -17.7210  -51.7564 H         1 UNK         0.0800 
    247 H247       -2.1405  -16.1145  -52.2676 H         1 UNK         0.0800 
@<TRIPOS>BOND
     1    1    2 1    
     2    1  127 1    
     3    1  128 1    
     4    1  129 1    
     5    2    3 2    
     6    2    4 am   BACKBONE|DICT|INTERRES
     7    4    5 1    
     8    4  130 1    
     9    5    6 1    
    10    5   65 1    
    11    5  131 1    
    12    6    7 1    
    13    6  132 1    
    14    6  133 1    
    15    7    8 1    
    16    8    9 1    
    17    8  134 1    
    18    8  135 1    
    19    9   10 ar   
    20    9   14 ar   
    21   10   11 ar   
    22   10  136 1    
    23   11   12 ar   
    24   11  126 1    
    25   12   13 ar   
    26   12  137 1    
    27   13   14 ar   
    28   13   15 1    
    29   14  138 1    
    30   15   16 1    
    31   15  139 1    
    32   15  140 1    
    33   16   17 1    
    34   17   18 1    
    35   17  141 1    
    36   17  142 1    
    37   18   19 1    
    38   18   67 1    
    39   18  143 1    
    40   19   20 am   BACKBONE|DICT|INTERRES
    41   19  144 1    
    42   20   21 2    
    43   20   22 1    
    44   22   23 1    
    45   22   24 1    
    46   22  145 1    
    47   23  146 1    
    48   23  147 1    
    49   23  148 1    
    50   24   25 am   BACKBONE|DICT|INTERRES
    51   24  149 1    
    52   25   26 2    
    53   25   27 1    
    54   27   28 1    
    55   27   29 1    
    56   27  150 1    
    57   28  151 1    
    58   28  152 1    
    59   28  153 1    
    60   29   30 am   BACKBONE|DICT|INTERRES
    61   29  154 1    
    62   30   31 2    
    63   30   32 1    
    64   32   33 1    
    65   32   34 1    
    66   32  155 1    
    67   33  156 1    
    68   33  157 1    
    69   33  158 1    
    70   34   35 am   BACKBONE|DICT|INTERRES
    71   34  159 1    
    72   35   36 2    
    73   35   37 1    
    74   37   38 1    
    75   37   39 1    
    76   37  160 1    
    77   38  161 1    
    78   38  162 1    
    79   38  163 1    
    80   39   40 am   BACKBONE|DICT|INTERRES
    81   39  164 1    
    82   40   41 2    
    83   40   42 1    
    84   42   43 1    
    85   42   44 1    
    86   42  165 1    
    87   43  166 1    
    88   43  167 1    
    89   43  168 1    
    90   44   45 am   BACKBONE|DICT|INTERRES
    91   44  169 1    
    92   45   46 2    
    93   45   47 1    
    94   47   48 1    
    95   47   49 1    
    96   47  170 1    
    97   48  171 1    
    98   48  172 1    
    99   48  173 1    
   100   49   50 am   BACKBONE|DICT|INTERRES
   101   49  174 1    
   102   50   51 2    
   103   50   52 1    
   104   52   53 1    
   105   52   54 1    
   106   52  175 1    
   107   53  176 1    
   108   53  177 1    
   109   53  178 1    
   110   54   55 am   BACKBONE|DICT|INTERRES
   111   54  179 1    
   112   55   56 2    
   113   55   57 1    
   114   57   58 1    
   115   57   59 1    
   116   57  180 1    
   117   58  181 1    
   118   58  182 1    
   119   58  183 1    
   120   59   60 am   BACKBONE|DICT|INTERRES
   121   59  184 1    
   122   60   61 2    
   123   60   62 1    
   124   62   63 1    
   125   62   64 1    
   126   62  185 1    
   127   63  186 1    
   128   63  187 1    
   129   63  188 1    
   130   64   65 am   BACKBONE|DICT|INTERRES
   131   64  189 1    
   132   65   66 2    
   133   67   68 2    
   134   67   69 am   BACKBONE|DICT|INTERRES
   135   69   70 1    
   136   69  190 1    
   137   70   71 1    
   138   70   72 1    
   139   70  191 1    
   140   71  192 1    
   141   71  193 1    
   142   71  194 1    
   143   72   73 2    
   144   72   74 am   BACKBONE|DICT|INTERRES
   145   74   75 1    
   146   74  195 1    
   147   75   76 1    
   148   75   77 1    
   149   75  196 1    
   150   76  197 1    
   151   76  198 1    
   152   76  199 1    
   153   77   78 2    
   154   77   79 am   BACKBONE|DICT|INTERRES
   155   79   80 1    
   156   79  200 1    
   157   80   81 1    
   158   80   82 1    
   159   80  201 1    
   160   81  202 1    
   161   81  203 1    
   162   81  204 1    
   163   82   83 2    
   164   82   84 am   BACKBONE|DICT|INTERRES
   165   84   85 1    
   166   84  205 1    
   167   85   86 1    
   168   85   87 1    
   169   85  206 1    
   170   86  207 1    
   171   86  208 1    
   172   86  209 1    
   173   87   88 2    
   174   87   89 am   BACKBONE|DICT|INTERRES
   175   89   90 1    
   176   89  210 1    
   177   90   91 1    
   178   90   92 1    
   179   90  211 1    
   180   91  212 1    
   181   91  213 1    
   182   91  214 1    
   183   92   93 2    
   184   92   94 am   BACKBONE|DICT|INTERRES
   185   94   95 1    
   186   94  215 1    
   187   95   96 1    
   188   95   97 1    
   189   95  216 1    
   190   96  217 1    
   191   96  218 1    
   192   96  219 1    
   193   97   98 2    
   194   97   99 am   BACKBONE|DICT|INTERRES
   195   99  100 1    
   196   99  220 1    
   197  100  101 1    
   198  100  102 1    
   199  100  221 1    
   200  101  222 1    
   201  101  223 1    
   202  101  224 1    
   203  102  103 2    
   204  102  104 am   BACKBONE|DICT|INTERRES
   205  104  105 1    
   206  104  225 1    
   207  105  106 1    
   208  105  107 1    
   209  105  226 1    
   210  106  227 1    
   211  106  228 1    
   212  106  229 1    
   213  107  108 2    
   214  107  109 am   BACKBONE|DICT|INTERRES
   215  109  110 1    
   216  109  230 1    
   217  110  111 1    
   218  110  112 1    
   219  110  231 1    
   220  111  232 1    
   221  111  233 1    
   222  111  234 1    
   223  112  113 2    
   224  112  114 am   BACKBONE|DICT|INTERRES
   225  114  115 1    
   226  114  235 1    
   227  115  116 1    
   228  115  117 1    
   229  115  236 1    
   230  116  237 1    
   231  116  238 1    
   232  116  239 1    
   233  117  118 2    
   234  117  119 am   BACKBONE|DICT|INTERRES
   235  119  120 1    
   236  119  240 1    
   237  120  121 1    
   238  120  124 1    
   239  120  241 1    
   240  121  122 am   BACKBONE|DICT|INTERRES
   241  121  123 2    
   242  122  242 1    
   243  122  243 1    
   244  124  125 1    
   245  124  244 1    
   246  124  245 1    
   247  125  126 1    
   248  126  246 1    
   249  126  247 1    
@<TRIPOS>SUBSTRUCTURE
     1 UNK         1 GROUP             0       ****    0 ROOT    
