@<TRIPOS>MOLECULE
3R540
247   249    1
SMALL
USER_CHARGES


@<TRIPOS>ATOM
      1 CA          1.9542  -10.4460  -49.0748 C.3       0 UNK        -0.1800 
      2 C           1.0971  -11.5995  -48.5566 C.2       0 UNK         0.5000 
      3 O          -0.0159  -11.3605  -48.0940 O.2       0 UNK        -0.5000 
      4 N           1.5519  -12.8603  -48.6130 N.am      1 UNK        -0.5000 
      5 CA          2.8489  -13.3348  -49.1237 C.3       1 UNK         0.1400 
      6 C6          2.8681  -14.8747  -49.2973 C.3       23 UNK        -0.0398 
      7 S7          1.5345  -15.4711  -50.3923 S.3       23 UNK        -0.2404 
      8 C8          1.0982  -17.0463  -49.5949 C.3       23 UNK        -0.0205 
      9 C9         -0.1016  -17.6895  -50.2703 C.ar      23 UNK        -0.0193 
     10 C10         0.0529  -18.3837  -51.4733 C.ar      23 UNK        -0.1150 
     11 C11        -1.0530  -18.9500  -52.1150 C.ar      23 UNK        -0.0193 
     12 C12        -2.3186  -18.8379  -51.5294 C.ar      23 UNK        -0.1150 
     13 C13        -2.4834  -18.1570  -50.3187 C.ar      23 UNK        -0.0193 
     14 C14        -1.3713  -17.5799  -49.6986 C.ar      23 UNK        -0.1150 
     15 C15        -3.8641  -18.0194  -49.6909 C.3       23 UNK        -0.0205 
     16 S16        -4.3804  -19.5223  -48.7982 S.3       23 UNK        -0.2404 
     17 C17        -3.1240  -19.6136  -47.4781 C.3       23 UNK        -0.0398 
     18 CA         -2.0604  -20.7054  -47.7594 C.3       11 UNK         0.1400 
     19 N          -0.7603  -20.3903  -47.1610 N.am      11 UNK        -0.5000 
     20 C           0.3612  -21.1012  -47.3497 C.2       10 UNK         0.5000 
     21 O           0.4359  -22.0758  -48.0963 O.2       10 UNK        -0.5000 
     22 CA          1.5915  -20.7055  -46.5145 C.3       10 UNK         0.1400 
     23 CB          2.3315  -19.5178  -47.1444 C.3       10 UNK        -0.1800 
     24 N           1.2489  -20.3998  -45.1259 N.am      10 UNK        -0.5000 
     25 C           0.7344  -21.2848  -44.2605 C.2       9 UNK         0.5000 
     26 O           0.5564  -22.4733  -44.5255 O.2       9 UNK        -0.5000 
     27 CA          0.2953  -20.7431  -42.8882 C.3       9 UNK         0.1400 
     28 CB          1.4967  -20.6066  -41.9416 C.3       9 UNK        -0.1800 
     29 N          -0.4094  -19.4635  -42.9864 N.am      9 UNK        -0.5000 
     30 C          -1.5784  -19.2894  -43.6206 C.2       8 UNK         0.5000 
     31 O          -2.2094  -20.2015  -44.1551 O.2       8 UNK        -0.5000 
     32 CA         -2.1101  -17.8488  -43.7203 C.3       8 UNK         0.1400 
     33 CB         -2.7858  -17.4227  -42.4088 C.3       8 UNK        -0.1800 
     34 N          -1.0666  -16.8875  -44.0793 N.am      8 UNK        -0.5000 
     35 C          -0.3963  -16.8988  -45.2411 C.2       7 UNK         0.5000 
     36 O          -0.6224  -17.6922  -46.1531 O.2       7 UNK        -0.5000 
     37 CA          0.7559  -15.8924  -45.3936 C.3       7 UNK         0.1400 
     38 CB          0.2241  -14.4965  -45.7478 C.3       7 UNK        -0.1800 
     39 N           1.5826  -15.8119  -44.1929 N.am      7 UNK        -0.5000 
     40 C           2.3076  -16.8191  -43.6891 C.2       6 UNK         0.5000 
     41 O           2.4030  -17.9255  -44.2177 O.2       6 UNK        -0.5000 
     42 CA          2.9992  -16.5601  -42.3405 C.3       6 UNK         0.1400 
     43 CB          4.3128  -15.7869  -42.5298 C.3       6 UNK        -0.1800 
     44 N           2.1326  -15.8351  -41.4115 N.am      6 UNK        -0.5000 
     45 C           1.0323  -16.3477  -40.8438 C.2       5 UNK         0.5000 
     46 O           0.6406  -17.4999  -41.0282 O.2       5 UNK        -0.5000 
     47 CA          0.2173  -15.4011  -39.9439 C.3       5 UNK         0.1400 
     48 CB          0.8157  -15.3483  -38.5303 C.3       5 UNK        -0.1800 
     49 N           0.1301  -14.0437  -40.4858 N.am      5 UNK        -0.5000 
     50 C          -0.5523  -13.7193  -41.5925 C.2       4 UNK         0.5000 
     51 O          -1.1893  -14.5295  -42.2657 O.2       4 UNK        -0.5000 
     52 CA         -0.4654  -12.2507  -42.0522 C.3       4 UNK         0.1400 
     53 CB         -1.4474  -11.3759  -41.2584 C.3       4 UNK        -0.1800 
     54 N           0.8814  -11.6704  -41.9725 N.am      4 UNK        -0.5000 
     55 C           1.9622  -12.1765  -42.5800 C.2       3 UNK         0.5000 
     56 O           1.9613  -13.2534  -43.1782 O.2       3 UNK        -0.5000 
     57 CA          3.2717  -11.3693  -42.4885 C.3       3 UNK         0.1400 
     58 CB          4.0049  -11.6930  -41.1777 C.3       3 UNK        -0.1800 
     59 N           4.1547  -11.6884  -43.6136 N.am      3 UNK        -0.5000 
     60 C           3.8848  -11.3921  -44.8919 C.2       2 UNK         0.5000 
     61 O           2.9779  -10.6292  -45.2338 O.2       2 UNK        -0.5000 
     62 CA          4.7183  -12.0933  -45.9793 C.3       2 UNK         0.1400 
     63 CB          5.6134  -13.2423  -45.4634 C.3       2 UNK        -0.1800 
     64 N           3.7771  -12.5964  -46.9731 N.am      2 UNK        -0.5000 
     65 C           4.0437  -12.8901  -48.2495 C.2       1 UNK         0.5000 
     66 O           5.1657  -12.8108  -48.7502 O.2       1 UNK        -0.5000 
     67 C          -2.5652  -22.0949  -47.3234 C.2       11 UNK         0.5000 
     68 O          -2.9645  -22.8922  -48.1714 O.2       11 UNK        -0.5000 
     69 N          -2.5082  -22.3772  -46.0149 N.am      12 UNK        -0.5000 
     70 CA         -2.8854  -23.6624  -45.4257 C.3       12 UNK         0.1400 
     71 CB         -2.8485  -23.5554  -43.8945 C.3       12 UNK        -0.1800 
     72 C          -2.0221  -24.8378  -45.9186 C.2       12 UNK         0.5000 
     73 O          -2.5481  -25.9345  -46.1048 O.2       12 UNK        -0.5000 
     74 N          -0.7262  -24.5873  -46.1371 N.am      13 UNK        -0.5000 
     75 CA          0.2224  -25.5627  -46.6625 C.3       13 UNK         0.1400 
     76 CB          1.6550  -25.1046  -46.3441 C.3       13 UNK        -0.1800 
     77 C           0.0458  -25.8098  -48.1718 C.2       13 UNK         0.5000 
     78 O          -0.0971  -26.9621  -48.5827 O.2       13 UNK        -0.5000 
     79 N           0.1004  -24.7371  -48.9719 N.am      14 UNK        -0.5000 
     80 CA          0.2275  -24.8188  -50.4271 C.3       14 UNK         0.1400 
     81 CB          1.0836  -23.6434  -50.9211 C.3       14 UNK        -0.1800 
     82 C          -1.1206  -24.8506  -51.1639 C.2       14 UNK         0.5000 
     83 O          -1.2486  -25.5899  -52.1409 O.2       14 UNK        -0.5000 
     84 N          -2.0941  -24.0543  -50.7045 N.am      15 UNK        -0.5000 
     85 CA         -3.4040  -23.9060  -51.3481 C.3       15 UNK         0.1400 
     86 CB         -3.8196  -22.4245  -51.3011 C.3       15 UNK        -0.1800 
     87 C          -4.4857  -24.7773  -50.6832 C.2       15 UNK         0.5000 
     88 O          -5.5812  -24.8881  -51.2318 O.2       15 UNK        -0.5000 
     89 N          -4.1737  -25.3452  -49.5077 N.am      16 UNK        -0.5000 
     90 CA         -5.0809  -26.0303  -48.5778 C.3       16 UNK         0.1400 
     91 CB         -5.7391  -27.2671  -49.2258 C.3       16 UNK        -0.1800 
     92 C          -6.0987  -25.0710  -47.9170 C.2       16 UNK         0.5000 
     93 O          -7.1612  -25.5187  -47.4826 O.2       16 UNK        -0.5000 
     94 N          -5.7225  -23.7844  -47.8289 N.am      17 UNK        -0.5000 
     95 CA         -6.4568  -22.6217  -47.3181 C.3       17 UNK         0.1400 
     96 CB         -6.8869  -22.8166  -45.8507 C.3       17 UNK        -0.1800 
     97 C          -7.6535  -22.1992  -48.1945 C.2       17 UNK         0.5000 
     98 O          -8.3330  -23.0400  -48.7854 O.2       17 UNK        -0.5000 
     99 N          -7.9042  -20.8806  -48.2239 N.am      18 UNK        -0.5000 
    100 CA        -9.0242  -20.2047  -48.8950 C.3       18 UNK         0.1400 
    101 CB       -10.3469  -20.5045  -48.1585 C.3       18 UNK        -0.1800 
    102 C         -9.1007  -20.4911  -50.4114 C.2       18 UNK         0.5000 
    103 O        -10.1862  -20.7141  -50.9519 O.2       18 UNK        -0.5000 
    104 N         -7.9372  -20.4838  -51.0677 N.am      19 UNK        -0.5000 
    105 CA        -7.7578  -20.7526  -52.4900 C.3       19 UNK         0.1400 
    106 CB        -7.6948  -22.2744  -52.7230 C.3       19 UNK        -0.1800 
    107 C         -6.4965  -20.0253  -52.9826 C.2       19 UNK         0.5000 
    108 O         -5.8481  -19.3238  -52.2038 O.2       19 UNK        -0.5000 
    109 N         -6.1752  -20.1929  -54.2669 N.am      20 UNK        -0.5000 
    110 CA        -5.0183  -19.6022  -54.9333 C.3       20 UNK         0.1400 
    111 CB        -5.4093  -18.2273  -55.5106 C.3       20 UNK        -0.1800 
    112 C         -4.4973  -20.5743  -56.0065 C.2       20 UNK         0.5000 
    113 O         -4.9473  -21.7221  -56.0588 O.2       20 UNK        -0.5000 
    114 N         -3.5634  -20.0930  -56.8407 N.am      21 UNK        -0.5000 
    115 CA        -2.8845  -20.8193  -57.9214 C.3       21 UNK         0.1400 
    116 CB        -3.8798  -21.2562  -59.0180 C.3       21 UNK        -0.1800 
    117 C         -2.0173  -21.9746  -57.3813 C.2       21 UNK         0.5000 
    118 O         -2.1757  -23.1268  -57.7893 O.2       21 UNK        -0.5000 
    119 N         -1.1158  -21.6262  -56.4544 N.am      22 UNK        -0.5000 
    120 CA        -0.1658  -22.5442  -55.8018 C.3       22 UNK         0.1400 
    121 C          0.9368  -23.1279  -56.7370 C.2       22 UNK         0.5000 
    122 N          1.1714  -22.5772  -57.9222 N.am      22 UNK        -0.7600 
    123 O          1.5922  -24.1024  -56.3786 O.2       22 UNK        -0.5000 
    124 C124        0.4879  -21.8931  -54.5562 C.3       23 UNK        -0.0398 
    125 S125       -0.7109  -21.4503  -53.2518 S.3       23 UNK        -0.2404 
    126 C126       -0.8760  -19.6497  -53.4546 C.3       23 UNK        -0.0205 
    127 H127        2.7203  -10.1823  -48.3459 H         1 UNK         0.0600 
    128 H128        1.3371   -9.5630  -49.2418 H         1 UNK         0.0600 
    129 H129        2.4353  -10.6893  -50.0212 H         1 UNK         0.0600 
    130 H130        0.9300  -13.5946  -48.3101 H         1 UNK         0.3000 
    131 H131        2.9974  -12.8976  -50.1126 H         1 UNK         0.0600 
    132 H132        3.8177  -15.2004  -49.7263 H         1 UNK         0.0800 
    133 H133        2.7877  -15.3659  -48.3258 H         1 UNK         0.0800 
    134 H134        0.8815  -16.8718  -48.5406 H         1 UNK         0.0800 
    135 H135        1.9526  -17.7230  -49.6346 H         1 UNK         0.0800 
    136 H136        1.0338  -18.4634  -51.9204 H         1 UNK         0.1150 
    137 H137       -3.1783  -19.2774  -52.0145 H         1 UNK         0.1150 
    138 H138       -1.4926  -17.0413  -48.7692 H         1 UNK         0.1150 
    139 H139       -3.8920  -17.1686  -49.0085 H         1 UNK         0.0800 
    140 H140       -4.5947  -17.8009  -50.4700 H         1 UNK         0.0800 
    141 H141       -3.6239  -19.7703  -46.5206 H         1 UNK         0.0800 
    142 H142       -2.6545  -18.6356  -47.3918 H         1 UNK         0.0800 
    143 H143       -1.8867  -20.7472  -48.8374 H         1 UNK         0.0600 
    144 H144       -0.7197  -19.5641  -46.5709 H         1 UNK         0.3000 
    145 H145        2.2722  -21.5592  -46.5079 H         1 UNK         0.0600 
    146 H146        3.2640  -19.3126  -46.6186 H         1 UNK         0.0600 
    147 H147        2.5814  -19.7204  -48.1866 H         1 UNK         0.0600 
    148 H148        1.7290  -18.6114  -47.1164 H         1 UNK         0.0600 
    149 H149        1.4225  -19.4486  -44.8119 H         1 UNK         0.3000 
    150 H150       -0.3956  -21.4681  -42.4532 H         1 UNK         0.0600 
    151 H151        2.0231  -21.5563  -41.8396 H         1 UNK         0.0600 
    152 H152        1.1793  -20.3017  -40.9443 H         1 UNK         0.0600 
    153 H153        2.2145  -19.8702  -42.3031 H         1 UNK         0.0600 
    154 H154        0.0273  -18.6679  -42.5314 H         1 UNK         0.3000 
    155 H155       -2.8642  -17.8300  -44.5099 H         1 UNK         0.0600 
    156 H156       -2.0744  -17.3765  -41.5841 H         1 UNK         0.0600 
    157 H157       -3.5713  -18.1251  -42.1274 H         1 UNK         0.0600 
    158 H158       -3.2482  -16.4403  -42.5062 H         1 UNK         0.0600 
    159 H159       -0.8548  -16.1687  -43.3946 H         1 UNK         0.3000 
    160 H160        1.3939  -16.2328  -46.2110 H         1 UNK         0.0600 
    161 H161       -0.4216  -14.1015  -44.9629 H         1 UNK         0.0600 
    162 H162       -0.3573  -14.5212  -46.6702 H         1 UNK         0.0600 
    163 H163        1.0399  -13.7883  -45.8890 H         1 UNK         0.0600 
    164 H164        1.6028  -14.9128  -43.7136 H         1 UNK         0.3000 
    165 H165        3.2380  -17.5297  -41.8985 H         1 UNK         0.0600 
    166 H166        4.8509  -15.6898  -41.5868 H         1 UNK         0.0600 
    167 H167        4.9724  -16.3018  -43.2295 H         1 UNK         0.0600 
    168 H168        4.1387  -14.7844  -42.9189 H         1 UNK         0.0600 
    169 H169        2.3439  -14.8603  -41.2608 H         1 UNK         0.3000 
    170 H170       -0.7951  -15.8041  -39.8695 H         1 UNK         0.0600 
    171 H171        0.8775  -16.3470  -38.0958 H         1 UNK         0.0600 
    172 H172        1.8222  -14.9281  -38.5324 H         1 UNK         0.0600 
    173 H173        0.2003  -14.7432  -37.8643 H         1 UNK         0.0600 
    174 H174        0.6349  -13.3185  -39.9981 H         1 UNK         0.3000 
    175 H175       -0.7650  -12.2251  -43.1020 H         1 UNK         0.0600 
    176 H176       -1.1740  -11.3168  -40.2042 H         1 UNK         0.0600 
    177 H177       -1.4805  -10.3608  -41.6544 H         1 UNK         0.0600 
    178 H178       -2.4604  -11.7771  -41.3132 H         1 UNK         0.0600 
    179 H179        0.9622  -10.7906  -41.4833 H         1 UNK         0.3000 
    180 H180        3.0356  -10.3036  -42.5162 H         1 UNK         0.0600 
    181 H181        4.2569  -12.7520  -41.1065 H         1 UNK         0.0600 
    182 H182        3.3905  -11.4429  -40.3118 H         1 UNK         0.0600 
    183 H183        4.9298  -11.1222  -41.0926 H         1 UNK         0.0600 
    184 H184        4.8979  -12.3437  -43.4239 H         1 UNK         0.3000 
    185 H185        5.3492  -11.3301  -46.4390 H         1 UNK         0.0600 
    186 H186        6.3314  -12.8900  -44.7221 H         1 UNK         0.0600 
    187 H187        5.0224  -14.0407  -45.0145 H         1 UNK         0.0600 
    188 H188        6.1930  -13.6826  -46.2747 H         1 UNK         0.0600 
    189 H189        2.8141  -12.6197  -46.6654 H         1 UNK         0.3000 
    190 H190       -2.2017  -21.6533  -45.3691 H         1 UNK         0.3000 
    191 H191       -3.9124  -23.8743  -45.7218 H         1 UNK         0.0600 
    192 H192       -1.8468  -23.3259  -43.5311 H         1 UNK         0.0600 
    193 H193       -3.1610  -24.4912  -43.4297 H         1 UNK         0.0600 
    194 H194       -3.5204  -22.7742  -43.5384 H         1 UNK         0.0600 
    195 H195       -0.3585  -23.6735  -45.8935 H         1 UNK         0.3000 
    196 H196        0.0585  -26.5125  -46.1489 H         1 UNK         0.0600 
    197 H197        2.3877  -25.8173  -46.7244 H         1 UNK         0.0600 
    198 H198        1.8099  -25.0213  -45.2682 H         1 UNK         0.0600 
    199 H199        1.8789  -24.1338  -46.7872 H         1 UNK         0.0600 
    200 H200        0.2023  -23.8097  -48.5618 H         1 UNK         0.3000 
    201 H201        0.7630  -25.7353  -50.6856 H         1 UNK         0.0600 
    202 H202        2.0558  -23.6271  -50.4283 H         1 UNK         0.0600 
    203 H203        0.5989  -22.6840  -50.7359 H         1 UNK         0.0600 
    204 H204        1.2639  -23.7200  -51.9931 H         1 UNK         0.0600 
    205 H205       -1.9443  -23.5062  -49.8651 H         1 UNK         0.3000 
    206 H206       -3.3361  -24.1971  -52.3984 H         1 UNK         0.0600 
    207 H207       -2.9860  -21.7612  -51.5229 H         1 UNK         0.0600 
    208 H208       -4.5952  -22.2204  -52.0376 H         1 UNK         0.0600 
    209 H209       -4.2154  -22.1380  -50.3272 H         1 UNK         0.0600 
    210 H210       -3.2462  -25.1612  -49.1503 H         1 UNK         0.3000 
    211 H211       -4.4531  -26.3985  -47.7679 H         1 UNK         0.0600 
    212 H212       -6.4842  -26.9900  -49.9716 H         1 UNK         0.0600 
    213 H213       -6.2451  -27.8751  -48.4752 H         1 UNK         0.0600 
    214 H214       -4.9968  -27.9021  -49.7094 H         1 UNK         0.0600 
    215 H215       -4.8056  -23.5604  -48.2039 H         1 UNK         0.3000 
    216 H216       -5.7349  -21.8048  -47.3383 H         1 UNK         0.0600 
    217 H217       -7.3231  -21.9008  -45.4502 H         1 UNK         0.0600 
    218 H218       -6.0408  -23.0727  -45.2146 H         1 UNK         0.0600 
    219 H219       -7.6368  -23.6007  -45.7455 H         1 UNK         0.0600 
    220 H220       -7.2774  -20.2670  -47.7222 H         1 UNK         0.3000 
    221 H221       -8.8349  -19.1343  -48.8023 H         1 UNK         0.0600 
    222 H222      -10.6259  -21.5555  -48.2408 H         1 UNK         0.0600 
    223 H223      -10.2723  -20.2599  -47.0990 H         1 UNK         0.0600 
    224 H224      -11.1671  -19.9146  -48.5691 H         1 UNK         0.0600 
    225 H225       -7.0882  -20.2200  -50.5834 H         1 UNK         0.3000 
    226 H226       -8.6019  -20.3384  -53.0452 H         1 UNK         0.0600 
    227 H227       -8.6199  -22.7583  -52.4093 H         1 UNK         0.0600 
    228 H228       -7.5475  -22.5190  -53.7751 H         1 UNK         0.0600 
    229 H229       -6.8815  -22.7296  -52.1594 H         1 UNK         0.0600 
    230 H230       -6.6941  -20.8507  -54.8338 H         1 UNK         0.3000 
    231 H231       -4.2114  -19.4696  -54.2106 H         1 UNK         0.0600 
    232 H232       -5.8174  -17.5777  -54.7359 H         1 UNK         0.0600 
    233 H233       -6.1610  -18.3221  -56.2951 H         1 UNK         0.0600 
    234 H234       -4.5491  -17.7094  -55.9351 H         1 UNK         0.0600 
    235 H235       -3.2716  -19.1334  -56.7198 H         1 UNK         0.3000 
    236 H236       -2.1945  -20.1101  -58.3811 H         1 UNK         0.0600 
    237 H237       -4.5817  -22.0099  -58.6607 H         1 UNK         0.0600 
    238 H238       -4.4573  -20.4083  -59.3861 H         1 UNK         0.0600 
    239 H239       -3.3523  -21.6842  -59.8712 H         1 UNK         0.0600 
    240 H240       -1.0608  -20.6599  -56.1725 H         1 UNK         0.3000 
    241 H241       -0.7438  -23.4037  -55.4561 H         1 UNK         0.0600 
    242 H242        1.8852  -22.9679  -58.5174 H         1 UNK         0.3800 
    243 H243        0.6448  -21.7769  -58.2327 H         1 UNK         0.3800 
    244 H244        1.0762  -21.0208  -54.8436 H         1 UNK         0.0800 
    245 H245        1.1979  -22.5852  -54.1010 H         1 UNK         0.0800 
    246 H246       -1.7285  -19.4389  -54.1005 H         1 UNK         0.0800 
    247 H247       -0.0022  -19.2395  -53.9620 H         1 UNK         0.0800 
@<TRIPOS>BOND
     1    1    2 1    
     2    1  127 1    
     3    1  128 1    
     4    1  129 1    
     5    2    3 2    
     6    2    4 am   BACKBONE|DICT|INTERRES
     7    4    5 1    
     8    4  130 1    
     9    5    6 1    
    10    5   65 1    
    11    5  131 1    
    12    6    7 1    
    13    6  132 1    
    14    6  133 1    
    15    7    8 1    
    16    8    9 1    
    17    8  134 1    
    18    8  135 1    
    19    9   10 ar   
    20    9   14 ar   
    21   10   11 ar   
    22   10  136 1    
    23   11   12 ar   
    24   11  126 1    
    25   12   13 ar   
    26   12  137 1    
    27   13   14 ar   
    28   13   15 1    
    29   14  138 1    
    30   15   16 1    
    31   15  139 1    
    32   15  140 1    
    33   16   17 1    
    34   17   18 1    
    35   17  141 1    
    36   17  142 1    
    37   18   19 1    
    38   18   67 1    
    39   18  143 1    
    40   19   20 am   BACKBONE|DICT|INTERRES
    41   19  144 1    
    42   20   21 2    
    43   20   22 1    
    44   22   23 1    
    45   22   24 1    
    46   22  145 1    
    47   23  146 1    
    48   23  147 1    
    49   23  148 1    
    50   24   25 am   BACKBONE|DICT|INTERRES
    51   24  149 1    
    52   25   26 2    
    53   25   27 1    
    54   27   28 1    
    55   27   29 1    
    56   27  150 1    
    57   28  151 1    
    58   28  152 1    
    59   28  153 1    
    60   29   30 am   BACKBONE|DICT|INTERRES
    61   29  154 1    
    62   30   31 2    
    63   30   32 1    
    64   32   33 1    
    65   32   34 1    
    66   32  155 1    
    67   33  156 1    
    68   33  157 1    
    69   33  158 1    
    70   34   35 am   BACKBONE|DICT|INTERRES
    71   34  159 1    
    72   35   36 2    
    73   35   37 1    
    74   37   38 1    
    75   37   39 1    
    76   37  160 1    
    77   38  161 1    
    78   38  162 1    
    79   38  163 1    
    80   39   40 am   BACKBONE|DICT|INTERRES
    81   39  164 1    
    82   40   41 2    
    83   40   42 1    
    84   42   43 1    
    85   42   44 1    
    86   42  165 1    
    87   43  166 1    
    88   43  167 1    
    89   43  168 1    
    90   44   45 am   BACKBONE|DICT|INTERRES
    91   44  169 1    
    92   45   46 2    
    93   45   47 1    
    94   47   48 1    
    95   47   49 1    
    96   47  170 1    
    97   48  171 1    
    98   48  172 1    
    99   48  173 1    
   100   49   50 am   BACKBONE|DICT|INTERRES
   101   49  174 1    
   102   50   51 2    
   103   50   52 1    
   104   52   53 1    
   105   52   54 1    
   106   52  175 1    
   107   53  176 1    
   108   53  177 1    
   109   53  178 1    
   110   54   55 am   BACKBONE|DICT|INTERRES
   111   54  179 1    
   112   55   56 2    
   113   55   57 1    
   114   57   58 1    
   115   57   59 1    
   116   57  180 1    
   117   58  181 1    
   118   58  182 1    
   119   58  183 1    
   120   59   60 am   BACKBONE|DICT|INTERRES
   121   59  184 1    
   122   60   61 2    
   123   60   62 1    
   124   62   63 1    
   125   62   64 1    
   126   62  185 1    
   127   63  186 1    
   128   63  187 1    
   129   63  188 1    
   130   64   65 am   BACKBONE|DICT|INTERRES
   131   64  189 1    
   132   65   66 2    
   133   67   68 2    
   134   67   69 am   BACKBONE|DICT|INTERRES
   135   69   70 1    
   136   69  190 1    
   137   70   71 1    
   138   70   72 1    
   139   70  191 1    
   140   71  192 1    
   141   71  193 1    
   142   71  194 1    
   143   72   73 2    
   144   72   74 am   BACKBONE|DICT|INTERRES
   145   74   75 1    
   146   74  195 1    
   147   75   76 1    
   148   75   77 1    
   149   75  196 1    
   150   76  197 1    
   151   76  198 1    
   152   76  199 1    
   153   77   78 2    
   154   77   79 am   BACKBONE|DICT|INTERRES
   155   79   80 1    
   156   79  200 1    
   157   80   81 1    
   158   80   82 1    
   159   80  201 1    
   160   81  202 1    
   161   81  203 1    
   162   81  204 1    
   163   82   83 2    
   164   82   84 am   BACKBONE|DICT|INTERRES
   165   84   85 1    
   166   84  205 1    
   167   85   86 1    
   168   85   87 1    
   169   85  206 1    
   170   86  207 1    
   171   86  208 1    
   172   86  209 1    
   173   87   88 2    
   174   87   89 am   BACKBONE|DICT|INTERRES
   175   89   90 1    
   176   89  210 1    
   177   90   91 1    
   178   90   92 1    
   179   90  211 1    
   180   91  212 1    
   181   91  213 1    
   182   91  214 1    
   183   92   93 2    
   184   92   94 am   BACKBONE|DICT|INTERRES
   185   94   95 1    
   186   94  215 1    
   187   95   96 1    
   188   95   97 1    
   189   95  216 1    
   190   96  217 1    
   191   96  218 1    
   192   96  219 1    
   193   97   98 2    
   194   97   99 am   BACKBONE|DICT|INTERRES
   195   99  100 1    
   196   99  220 1    
   197  100  101 1    
   198  100  102 1    
   199  100  221 1    
   200  101  222 1    
   201  101  223 1    
   202  101  224 1    
   203  102  103 2    
   204  102  104 am   BACKBONE|DICT|INTERRES
   205  104  105 1    
   206  104  225 1    
   207  105  106 1    
   208  105  107 1    
   209  105  226 1    
   210  106  227 1    
   211  106  228 1    
   212  106  229 1    
   213  107  108 2    
   214  107  109 am   BACKBONE|DICT|INTERRES
   215  109  110 1    
   216  109  230 1    
   217  110  111 1    
   218  110  112 1    
   219  110  231 1    
   220  111  232 1    
   221  111  233 1    
   222  111  234 1    
   223  112  113 2    
   224  112  114 am   BACKBONE|DICT|INTERRES
   225  114  115 1    
   226  114  235 1    
   227  115  116 1    
   228  115  117 1    
   229  115  236 1    
   230  116  237 1    
   231  116  238 1    
   232  116  239 1    
   233  117  118 2    
   234  117  119 am   BACKBONE|DICT|INTERRES
   235  119  120 1    
   236  119  240 1    
   237  120  121 1    
   238  120  124 1    
   239  120  241 1    
   240  121  122 am   BACKBONE|DICT|INTERRES
   241  121  123 2    
   242  122  242 1    
   243  122  243 1    
   244  124  125 1    
   245  124  244 1    
   246  124  245 1    
   247  125  126 1    
   248  126  246 1    
   249  126  247 1    
@<TRIPOS>SUBSTRUCTURE
     1 UNK         1 GROUP             0       ****    0 ROOT    
