@<TRIPOS>MOLECULE
3R540
247   249    1
SMALL
USER_CHARGES


@<TRIPOS>ATOM
      1 CA         -4.2484   -7.0476  -47.7193 C.3       0 UNK        -0.1800 
      2 C          -3.1585   -7.9744  -48.2399 C.2       0 UNK         0.5000 
      3 O          -2.0968   -7.5029  -48.6491 O.2       0 UNK        -0.5000 
      4 N          -3.4204   -9.2866  -48.2350 N.am      1 UNK        -0.5000 
      5 CA         -2.4717  -10.3354  -48.6210 C.3       1 UNK         0.1400 
      6 C6         -3.2060  -11.6402  -49.0239 C.3       23 UNK        -0.0398 
      7 S7         -4.1710  -12.4156  -47.6776 S.3       23 UNK        -0.2404 
      8 C8         -3.1838  -13.9072  -47.3404 C.3       23 UNK        -0.0205 
      9 C9         -3.5275  -15.0387  -48.2962 C.ar      23 UNK        -0.0193 
     10 C10        -2.7971  -15.2308  -49.4728 C.ar      23 UNK        -0.1150 
     11 C11        -3.0894  -16.3016  -50.3242 C.ar      23 UNK        -0.0193 
     12 C12        -4.1374  -17.1687  -50.0022 C.ar      23 UNK        -0.1150 
     13 C13        -4.8766  -16.9842  -48.8290 C.ar      23 UNK        -0.0193 
     14 C14        -4.5654  -15.9185  -47.9815 C.ar      23 UNK        -0.1150 
     15 C15        -6.0181  -17.9254  -48.4732 C.3       23 UNK        -0.0205 
     16 S16        -5.5033  -19.6679  -48.4105 S.3       23 UNK        -0.2404 
     17 C17        -4.3247  -19.6915  -47.0165 C.3       23 UNK        -0.0398 
     18 CA         -3.7374  -21.1114  -46.8163 C.3       11 UNK         0.1400 
     19 N          -2.3723  -21.0866  -46.2717 N.am      11 UNK        -0.5000 
     20 C          -1.5338  -22.1338  -46.3431 C.2       10 UNK         0.5000 
     21 O          -1.8131  -23.1766  -46.9265 O.2       10 UNK        -0.5000 
     22 CA         -0.1945  -22.0603  -45.5867 C.3       10 UNK         0.1400 
     23 CB          0.9882  -21.8215  -46.5388 C.3       10 UNK        -0.1800 
     24 N          -0.1866  -21.1002  -44.4807 N.am      10 UNK        -0.5000 
     25 C          -0.9674  -21.2209  -43.3942 C.2       9 UNK         0.5000 
     26 O          -1.8081  -22.1158  -43.2738 O.2       9 UNK        -0.5000 
     27 CA         -0.7915  -20.1741  -42.2749 C.3       9 UNK         0.1400 
     28 CB         -1.3584  -20.6469  -40.9208 C.3       9 UNK        -0.1800 
     29 N           0.5927  -19.7191  -42.1289 N.am      9 UNK        -0.5000 
     30 C           1.6801  -20.4593  -41.8576 C.2       8 UNK         0.5000 
     31 O           1.6475  -21.6664  -41.6161 O.2       8 UNK        -0.5000 
     32 CA          3.0385  -19.7314  -41.8771 C.3       8 UNK         0.1400 
     33 CB          4.0276  -20.4267  -42.8295 C.3       8 UNK        -0.1800 
     34 N           2.8870  -18.3340  -42.2915 N.am      8 UNK        -0.5000 
     35 C           3.0329  -17.2771  -41.4841 C.2       7 UNK         0.5000 
     36 O           3.3765  -17.3562  -40.3041 O.2       7 UNK        -0.5000 
     37 CA          2.7347  -15.8937  -42.0872 C.3       7 UNK         0.1400 
     38 CB          4.0022  -15.2988  -42.7197 C.3       7 UNK        -0.1800 
     39 N           1.6508  -15.8793  -43.0738 N.am      7 UNK        -0.5000 
     40 C           0.3547  -16.0804  -42.7931 C.2       6 UNK         0.5000 
     41 O          -0.0522  -16.4967  -41.7092 O.2       6 UNK        -0.5000 
     42 CA         -0.6560  -15.7519  -43.9043 C.3       6 UNK         0.1400 
     43 CB         -0.7388  -14.2311  -44.1179 C.3       6 UNK        -0.1800 
     44 N          -0.2751  -16.3873  -45.1593 N.am      6 UNK        -0.5000 
     45 C          -0.7940  -17.5277  -45.6324 C.2       5 UNK         0.5000 
     46 O          -1.7028  -18.1641  -45.0965 O.2       5 UNK        -0.5000 
     47 CA         -0.1401  -18.0914  -46.9059 C.3       5 UNK         0.1400 
     48 CB         -0.7266  -17.4244  -48.1500 C.3       5 UNK        -0.1800 
     49 N           1.3114  -17.9309  -46.9384 N.am      5 UNK        -0.5000 
     50 C           2.1722  -18.3236  -45.9907 C.2       4 UNK         0.5000 
     51 O           1.8462  -18.9647  -44.9911 O.2       4 UNK        -0.5000 
     52 CA          3.6331  -17.8657  -46.1587 C.3       4 UNK         0.1400 
     53 CB          4.4649  -18.9815  -46.8065 C.3       4 UNK        -0.1800 
     54 N           3.7890  -16.6294  -46.9386 N.am      4 UNK        -0.5000 
     55 C           3.2288  -15.4444  -46.6507 C.2       3 UNK         0.5000 
     56 O           2.5014  -15.2629  -45.6702 O.2       3 UNK        -0.5000 
     57 CA          3.5373  -14.2805  -47.6161 C.3       3 UNK         0.1400 
     58 CB          3.4239  -14.6940  -49.1009 C.3       3 UNK        -0.1800 
     59 N           2.7272  -13.0872  -47.3391 N.am      3 UNK        -0.5000 
     60 C           1.3999  -12.9448  -47.4729 C.2       2 UNK         0.5000 
     61 O           0.6527  -13.8155  -47.9252 O.2       2 UNK        -0.5000 
     62 CA          0.7980  -11.6014  -47.0209 C.3       2 UNK         0.1400 
     63 CB          1.8093  -10.4353  -46.9695 C.3       2 UNK        -0.1800 
     64 N          -0.3146  -11.2526  -47.9005 N.am      2 UNK        -0.5000 
     65 C          -1.4002  -10.5668  -47.5282 C.2       1 UNK         0.5000 
     66 O          -1.5743  -10.1411  -46.3822 O.2       1 UNK        -0.5000 
     67 C          -4.6920  -22.0310  -46.0124 C.2       11 UNK         0.5000 
     68 O          -5.7101  -22.4704  -46.5474 O.2       11 UNK        -0.5000 
     69 N          -4.3528  -22.3277  -44.7499 N.am      12 UNK        -0.5000 
     70 CA         -5.0457  -23.3273  -43.9409 C.3       12 UNK         0.1400 
     71 CB         -5.0522  -22.8891  -42.4672 C.3       12 UNK        -0.1800 
     72 C          -4.3791  -24.7027  -44.1055 C.2       12 UNK         0.5000 
     73 O          -5.0767  -25.6961  -44.3125 O.2       12 UNK        -0.5000 
     74 N          -3.0427  -24.7372  -44.0049 N.am      13 UNK        -0.5000 
     75 CA         -2.2536  -25.9701  -43.9787 C.3       13 UNK         0.1400 
     76 CB         -0.8661  -25.6639  -43.3946 C.3       13 UNK        -0.1800 
     77 C          -2.1198  -26.6810  -45.3401 C.2       13 UNK         0.5000 
     78 O          -1.9651  -27.9029  -45.3570 O.2       13 UNK        -0.5000 
     79 N          -2.1593  -25.9264  -46.4454 N.am      14 UNK        -0.5000 
     80 CA         -1.9030  -26.4092  -47.8032 C.3       14 UNK         0.1400 
     81 CB         -0.4605  -26.0508  -48.2057 C.3       14 UNK        -0.1800 
     82 C          -2.9599  -25.8859  -48.7935 C.2       14 UNK         0.5000 
     83 O          -2.6208  -25.5187  -49.9222 O.2       14 UNK        -0.5000 
     84 N          -4.2264  -25.9020  -48.3492 N.am      15 UNK        -0.5000 
     85 CA         -5.4543  -25.5872  -49.0931 C.3       15 UNK         0.1400 
     86 CB         -5.6348  -26.5780  -50.2641 C.3       15 UNK        -0.1800 
     87 C          -5.5595  -24.1218  -49.5665 C.2       15 UNK         0.5000 
     88 O          -4.6488  -23.3243  -49.3512 O.2       15 UNK        -0.5000 
     89 N          -6.6823  -23.7896  -50.2210 N.am      16 UNK        -0.5000 
     90 CA         -7.0345  -22.4420  -50.6906 C.3       16 UNK         0.1400 
     91 CB         -8.4577  -22.4764  -51.2687 C.3       16 UNK        -0.1800 
     92 C          -6.0542  -21.8254  -51.7122 C.2       16 UNK         0.5000 
     93 O          -6.0294  -20.6046  -51.8696 O.2       16 UNK        -0.5000 
     94 N          -5.2575  -22.6718  -52.3780 N.am      17 UNK        -0.5000 
     95 CA         -4.1506  -22.2627  -53.2422 C.3       17 UNK         0.1400 
     96 CB         -3.7660  -23.4429  -54.1479 C.3       17 UNK        -0.1800 
     97 C          -2.9159  -21.7786  -52.4562 C.2       17 UNK         0.5000 
     98 O          -2.0361  -21.1661  -53.0590 O.2       17 UNK        -0.5000 
     99 N          -2.8523  -22.0789  -51.1490 N.am      18 UNK        -0.5000 
    100 CA        -1.7408  -21.8308  -50.2306 C.3       18 UNK         0.1400 
    101 CB        -1.6127  -20.3297  -49.9217 C.3       18 UNK        -0.1800 
    102 C         -0.4384  -22.4641  -50.7465 C.2       18 UNK         0.5000 
    103 O          0.5327  -21.7584  -51.0353 O.2       18 UNK        -0.5000 
    104 N         -0.4967  -23.7876  -50.9524 N.am      19 UNK        -0.5000 
    105 CA         0.4723  -24.6587  -51.6270 C.3       19 UNK         0.1400 
    106 CB         1.8449  -24.6439  -50.9259 C.3       19 UNK        -0.1800 
    107 C          0.6023  -24.3679  -53.1352 C.2       19 UNK         0.5000 
    108 O          0.4666  -25.2870  -53.9436 O.2       19 UNK        -0.5000 
    109 N          0.8377  -23.0989  -53.4804 N.am      20 UNK        -0.5000 
    110 CA         0.9400  -22.5758  -54.8399 C.3       20 UNK         0.1400 
    111 CB         2.2633  -23.0315  -55.4867 C.3       20 UNK        -0.1800 
    112 C          0.8178  -21.0412  -54.9055 C.2       20 UNK         0.5000 
    113 O          0.6148  -20.5231  -56.0049 O.2       20 UNK        -0.5000 
    114 N          0.9489  -20.3299  -53.7711 N.am      21 UNK        -0.5000 
    115 CA         1.0396  -18.8646  -53.7002 C.3       21 UNK         0.1400 
    116 CB         1.2990  -18.4438  -52.2446 C.3       21 UNK        -0.1800 
    117 C         -0.1658  -18.0970  -54.2825 C.2       21 UNK         0.5000 
    118 O          0.0179  -16.9935  -54.7981 O.2       21 UNK        -0.5000 
    119 N         -1.3550  -18.7015  -54.2149 N.am      22 UNK        -0.5000 
    120 CA        -2.6064  -18.2291  -54.8250 C.3       22 UNK         0.1400 
    121 C         -3.2231  -19.3084  -55.7647 C.2       22 UNK         0.5000 
    122 N         -2.4438  -20.2453  -56.2945 N.am      22 UNK        -0.7600 
    123 O         -4.4191  -19.2936  -56.0423 O.2       22 UNK        -0.5000 
    124 C124       -3.6021  -17.7007  -53.7542 C.3       23 UNK        -0.0398 
    125 S125       -3.0880  -16.0783  -53.0886 S.3       23 UNK        -0.2404 
    126 C126       -2.2336  -16.5514  -51.5559 C.3       23 UNK        -0.0205 
    127 H127       -3.8803   -6.4785  -46.8657 H         1 UNK         0.0600 
    128 H128       -5.1335   -7.6002  -47.4031 H         1 UNK         0.0600 
    129 H129       -4.5466   -6.3443  -48.4968 H         1 UNK         0.0600 
    130 H130       -4.2939   -9.6187  -47.8517 H         1 UNK         0.3000 
    131 H131       -1.9410   -9.9828  -49.5083 H         1 UNK         0.0600 
    132 H132       -3.8959  -11.4272  -49.8416 H         1 UNK         0.0800 
    133 H133       -2.4956  -12.3561  -49.4353 H         1 UNK         0.0800 
    134 H134       -3.3823  -14.2279  -46.3170 H         1 UNK         0.0800 
    135 H135       -2.1178  -13.6781  -47.3821 H         1 UNK         0.0800 
    136 H136       -1.9739  -14.5715  -49.7071 H         1 UNK         0.1150 
    137 H137       -4.3675  -18.0004  -50.6534 H         1 UNK         0.1150 
    138 H138       -5.1302  -15.7714  -47.0716 H         1 UNK         0.1150 
    139 H139       -6.4681  -17.6556  -47.5166 H         1 UNK         0.0800 
    140 H140       -6.8023  -17.8205  -49.2238 H         1 UNK         0.0800 
    141 H141       -3.5284  -18.9858  -47.2535 H         1 UNK         0.0800 
    142 H142       -4.8033  -19.3163  -46.1102 H         1 UNK         0.0800 
    143 H143       -3.6478  -21.5630  -47.8044 H         1 UNK         0.0600 
    144 H144       -2.1026  -20.2659  -45.7431 H         1 UNK         0.3000 
    145 H145       -0.0386  -23.0437  -45.1427 H         1 UNK         0.0600 
    146 H146        1.0657  -22.6333  -47.2635 H         1 UNK         0.0600 
    147 H147        0.8942  -20.9002  -47.1073 H         1 UNK         0.0600 
    148 H148        1.9319  -21.7842  -45.9941 H         1 UNK         0.0600 
    149 H149        0.4939  -20.3472  -44.5247 H         1 UNK         0.3000 
    150 H150       -1.3667  -19.3007  -42.5848 H         1 UNK         0.0600 
    151 H151       -2.4270  -20.8521  -40.9941 H         1 UNK         0.0600 
    152 H152       -1.2277  -19.8855  -40.1519 H         1 UNK         0.0600 
    153 H153       -0.8738  -21.5606  -40.5755 H         1 UNK         0.0600 
    154 H154        0.7375  -18.7306  -42.2777 H         1 UNK         0.3000 
    155 H155        3.4459  -19.7928  -40.8662 H         1 UNK         0.0600 
    156 H156        3.6346  -20.4984  -43.8434 H         1 UNK         0.0600 
    157 H157        4.2445  -21.4413  -42.4935 H         1 UNK         0.0600 
    158 H158        4.9759  -19.8911  -42.8740 H         1 UNK         0.0600 
    159 H159        2.5736  -18.1944  -43.2453 H         1 UNK         0.3000 
    160 H160        2.4353  -15.2408  -41.2646 H         1 UNK         0.0600 
    161 H161        4.3551  -15.8989  -43.5583 H         1 UNK         0.0600 
    162 H162        4.8131  -15.2427  -41.9924 H         1 UNK         0.0600 
    163 H163        3.8232  -14.2873  -43.0851 H         1 UNK         0.0600 
    164 H164        1.9084  -15.5690  -44.0091 H         1 UNK         0.3000 
    165 H165       -1.6396  -16.1038  -43.5857 H         1 UNK         0.0600 
    166 H166       -1.4879  -13.9778  -44.8663 H         1 UNK         0.0600 
    167 H167       -1.0170  -13.7210  -43.1949 H         1 UNK         0.0600 
    168 H168        0.2133  -13.8153  -44.4499 H         1 UNK         0.0600 
    169 H169        0.5071  -15.9719  -45.6523 H         1 UNK         0.3000 
    170 H170       -0.3729  -19.1525  -46.9509 H         1 UNK         0.0600 
    171 H171       -1.7997  -17.6026  -48.2026 H         1 UNK         0.0600 
    172 H172       -0.5655  -16.3458  -48.1382 H         1 UNK         0.0600 
    173 H173       -0.2846  -17.8149  -49.0663 H         1 UNK         0.0600 
    174 H174        1.6819  -17.3998  -47.7121 H         1 UNK         0.3000 
    175 H175        4.0307  -17.6804  -45.1596 H         1 UNK         0.0600 
    176 H176        4.1349  -19.1902  -47.8250 H         1 UNK         0.0600 
    177 H177        5.5217  -18.7163  -46.8424 H         1 UNK         0.0600 
    178 H178        4.3845  -19.9101  -46.2395 H         1 UNK         0.0600 
    179 H179        4.3792  -16.6948  -47.7553 H         1 UNK         0.3000 
    180 H180        4.5718  -13.9910  -47.4270 H         1 UNK         0.0600 
    181 H181        2.4564  -15.1432  -49.3281 H         1 UNK         0.0600 
    182 H182        4.1920  -15.4181  -49.3732 H         1 UNK         0.0600 
    183 H183        3.5532  -13.8342  -49.7584 H         1 UNK         0.0600 
    184 H184        3.2361  -12.3140  -46.9355 H         1 UNK         0.3000 
    185 H185        0.4159  -11.7710  -46.0122 H         1 UNK         0.0600 
    186 H186        2.5953  -10.6179  -46.2360 H         1 UNK         0.0600 
    187 H187        2.2823  -10.2702  -47.9385 H         1 UNK         0.0600 
    188 H188        1.3212   -9.5049  -46.6786 H         1 UNK         0.0600 
    189 H189       -0.2538  -11.6356  -48.8341 H         1 UNK         0.3000 
    190 H190       -3.4844  -21.9691  -44.3694 H         1 UNK         0.3000 
    191 H191       -6.0867  -23.4161  -44.2592 H         1 UNK         0.0600 
    192 H192       -4.0459  -22.8093  -42.0561 H         1 UNK         0.0600 
    193 H193       -5.5987  -23.6055  -41.8527 H         1 UNK         0.0600 
    194 H194       -5.5389  -21.9211  -42.3477 H         1 UNK         0.0600 
    195 H195       -2.5478  -23.8735  -43.8060 H         1 UNK         0.3000 
    196 H196       -2.7497  -26.6668  -43.2993 H         1 UNK         0.0600 
    197 H197       -0.2882  -26.5798  -43.2645 H         1 UNK         0.0600 
    198 H198       -0.9428  -25.1866  -42.4173 H         1 UNK         0.0600 
    199 H199       -0.2905  -25.0069  -44.0447 H         1 UNK         0.0600 
    200 H200       -2.2701  -24.9182  -46.3679 H         1 UNK         0.3000 
    201 H201       -1.9924  -27.4967  -47.8350 H         1 UNK         0.0600 
    202 H202        0.2595  -26.4513  -47.4922 H         1 UNK         0.0600 
    203 H203       -0.3136  -24.9718  -48.2580 H         1 UNK         0.0600 
    204 H204       -0.2120  -26.4682  -49.1815 H         1 UNK         0.0600 
    205 H205       -4.3662  -26.1725  -47.3860 H         1 UNK         0.3000 
    206 H206       -6.2738  -25.7425  -48.3899 H         1 UNK         0.0600 
    207 H207       -5.5261  -27.6089  -49.9270 H         1 UNK         0.0600 
    208 H208       -6.6254  -26.4942  -50.7115 H         1 UNK         0.0600 
    209 H209       -4.9043  -26.4081  -51.0559 H         1 UNK         0.0600 
    210 H210       -7.3834  -24.5013  -50.3665 H         1 UNK         0.3000 
    211 H211       -7.0401  -21.7878  -49.8173 H         1 UNK         0.0600 
    212 H212       -8.5258  -23.1441  -52.1284 H         1 UNK         0.0600 
    213 H213       -8.7705  -21.4844  -51.5977 H         1 UNK         0.0600 
    214 H214       -9.1796  -22.8107  -50.5233 H         1 UNK         0.0600 
    215 H215       -5.3500  -23.6592  -52.1919 H         1 UNK         0.3000 
    216 H216       -4.4841  -21.4378  -53.8750 H         1 UNK         0.0600 
    217 H217       -2.9619  -23.1642  -54.8306 H         1 UNK         0.0600 
    218 H218       -4.6105  -23.7655  -54.7569 H         1 UNK         0.0600 
    219 H219       -3.4202  -24.2995  -53.5675 H         1 UNK         0.0600 
    220 H220       -3.6296  -22.5808  -50.7260 H         1 UNK         0.3000 
    221 H221       -1.9899  -22.3474  -49.3070 H         1 UNK         0.0600 
    222 H222       -1.4047  -19.7526  -50.8203 H         1 UNK         0.0600 
    223 H223       -2.5279  -19.9368  -49.4808 H         1 UNK         0.0600 
    224 H224       -0.8024  -20.1534  -49.2150 H         1 UNK         0.0600 
    225 H225       -1.3578  -24.2609  -50.6864 H         1 UNK         0.3000 
    226 H226        0.0690  -25.6683  -51.5351 H         1 UNK         0.0600 
    227 H227        1.7513  -24.8799  -49.8663 H         1 UNK         0.0600 
    228 H228        2.5106  -25.3866  -51.3668 H         1 UNK         0.0600 
    229 H229        2.3408  -23.6767  -51.0091 H         1 UNK         0.0600 
    230 H230        0.8674  -22.4290  -52.7184 H         1 UNK         0.3000 
    231 H231        0.1075  -22.9793  -55.4200 H         1 UNK         0.0600 
    232 H232        2.3694  -22.6268  -56.4941 H         1 UNK         0.0600 
    233 H233        2.3168  -24.1165  -55.5732 H         1 UNK         0.0600 
    234 H234        3.1248  -22.6989  -54.9066 H         1 UNK         0.0600 
    235 H235        1.0378  -20.8065  -52.8843 H         1 UNK         0.3000 
    236 H236        1.9110  -18.5735  -54.2901 H         1 UNK         0.0600 
    237 H237        2.2215  -18.8830  -51.8648 H         1 UNK         0.0600 
    238 H238        1.3958  -17.3605  -52.1598 H         1 UNK         0.0600 
    239 H239        0.4884  -18.7519  -51.5862 H         1 UNK         0.0600 
    240 H240       -1.4146  -19.6249  -53.7864 H         1 UNK         0.3000 
    241 H241       -2.3856  -17.4027  -55.5025 H         1 UNK         0.0600 
    242 H242       -2.8465  -20.9290  -56.9148 H         1 UNK         0.3800 
    243 H243       -1.4449  -20.2444  -56.1260 H         1 UNK         0.3800 
    244 H244       -4.5938  -17.5498  -54.1828 H         1 UNK         0.0800 
    245 H245       -3.7318  -18.4277  -52.9511 H         1 UNK         0.0800 
    246 H246       -1.3037  -15.9844  -51.4915 H         1 UNK         0.0800 
    247 H247       -1.9384  -17.5996  -51.5920 H         1 UNK         0.0800 
@<TRIPOS>BOND
     1    1    2 1    
     2    1  127 1    
     3    1  128 1    
     4    1  129 1    
     5    2    3 2    
     6    2    4 am   BACKBONE|DICT|INTERRES
     7    4    5 1    
     8    4  130 1    
     9    5    6 1    
    10    5   65 1    
    11    5  131 1    
    12    6    7 1    
    13    6  132 1    
    14    6  133 1    
    15    7    8 1    
    16    8    9 1    
    17    8  134 1    
    18    8  135 1    
    19    9   10 ar   
    20    9   14 ar   
    21   10   11 ar   
    22   10  136 1    
    23   11   12 ar   
    24   11  126 1    
    25   12   13 ar   
    26   12  137 1    
    27   13   14 ar   
    28   13   15 1    
    29   14  138 1    
    30   15   16 1    
    31   15  139 1    
    32   15  140 1    
    33   16   17 1    
    34   17   18 1    
    35   17  141 1    
    36   17  142 1    
    37   18   19 1    
    38   18   67 1    
    39   18  143 1    
    40   19   20 am   BACKBONE|DICT|INTERRES
    41   19  144 1    
    42   20   21 2    
    43   20   22 1    
    44   22   23 1    
    45   22   24 1    
    46   22  145 1    
    47   23  146 1    
    48   23  147 1    
    49   23  148 1    
    50   24   25 am   BACKBONE|DICT|INTERRES
    51   24  149 1    
    52   25   26 2    
    53   25   27 1    
    54   27   28 1    
    55   27   29 1    
    56   27  150 1    
    57   28  151 1    
    58   28  152 1    
    59   28  153 1    
    60   29   30 am   BACKBONE|DICT|INTERRES
    61   29  154 1    
    62   30   31 2    
    63   30   32 1    
    64   32   33 1    
    65   32   34 1    
    66   32  155 1    
    67   33  156 1    
    68   33  157 1    
    69   33  158 1    
    70   34   35 am   BACKBONE|DICT|INTERRES
    71   34  159 1    
    72   35   36 2    
    73   35   37 1    
    74   37   38 1    
    75   37   39 1    
    76   37  160 1    
    77   38  161 1    
    78   38  162 1    
    79   38  163 1    
    80   39   40 am   BACKBONE|DICT|INTERRES
    81   39  164 1    
    82   40   41 2    
    83   40   42 1    
    84   42   43 1    
    85   42   44 1    
    86   42  165 1    
    87   43  166 1    
    88   43  167 1    
    89   43  168 1    
    90   44   45 am   BACKBONE|DICT|INTERRES
    91   44  169 1    
    92   45   46 2    
    93   45   47 1    
    94   47   48 1    
    95   47   49 1    
    96   47  170 1    
    97   48  171 1    
    98   48  172 1    
    99   48  173 1    
   100   49   50 am   BACKBONE|DICT|INTERRES
   101   49  174 1    
   102   50   51 2    
   103   50   52 1    
   104   52   53 1    
   105   52   54 1    
   106   52  175 1    
   107   53  176 1    
   108   53  177 1    
   109   53  178 1    
   110   54   55 am   BACKBONE|DICT|INTERRES
   111   54  179 1    
   112   55   56 2    
   113   55   57 1    
   114   57   58 1    
   115   57   59 1    
   116   57  180 1    
   117   58  181 1    
   118   58  182 1    
   119   58  183 1    
   120   59   60 am   BACKBONE|DICT|INTERRES
   121   59  184 1    
   122   60   61 2    
   123   60   62 1    
   124   62   63 1    
   125   62   64 1    
   126   62  185 1    
   127   63  186 1    
   128   63  187 1    
   129   63  188 1    
   130   64   65 am   BACKBONE|DICT|INTERRES
   131   64  189 1    
   132   65   66 2    
   133   67   68 2    
   134   67   69 am   BACKBONE|DICT|INTERRES
   135   69   70 1    
   136   69  190 1    
   137   70   71 1    
   138   70   72 1    
   139   70  191 1    
   140   71  192 1    
   141   71  193 1    
   142   71  194 1    
   143   72   73 2    
   144   72   74 am   BACKBONE|DICT|INTERRES
   145   74   75 1    
   146   74  195 1    
   147   75   76 1    
   148   75   77 1    
   149   75  196 1    
   150   76  197 1    
   151   76  198 1    
   152   76  199 1    
   153   77   78 2    
   154   77   79 am   BACKBONE|DICT|INTERRES
   155   79   80 1    
   156   79  200 1    
   157   80   81 1    
   158   80   82 1    
   159   80  201 1    
   160   81  202 1    
   161   81  203 1    
   162   81  204 1    
   163   82   83 2    
   164   82   84 am   BACKBONE|DICT|INTERRES
   165   84   85 1    
   166   84  205 1    
   167   85   86 1    
   168   85   87 1    
   169   85  206 1    
   170   86  207 1    
   171   86  208 1    
   172   86  209 1    
   173   87   88 2    
   174   87   89 am   BACKBONE|DICT|INTERRES
   175   89   90 1    
   176   89  210 1    
   177   90   91 1    
   178   90   92 1    
   179   90  211 1    
   180   91  212 1    
   181   91  213 1    
   182   91  214 1    
   183   92   93 2    
   184   92   94 am   BACKBONE|DICT|INTERRES
   185   94   95 1    
   186   94  215 1    
   187   95   96 1    
   188   95   97 1    
   189   95  216 1    
   190   96  217 1    
   191   96  218 1    
   192   96  219 1    
   193   97   98 2    
   194   97   99 am   BACKBONE|DICT|INTERRES
   195   99  100 1    
   196   99  220 1    
   197  100  101 1    
   198  100  102 1    
   199  100  221 1    
   200  101  222 1    
   201  101  223 1    
   202  101  224 1    
   203  102  103 2    
   204  102  104 am   BACKBONE|DICT|INTERRES
   205  104  105 1    
   206  104  225 1    
   207  105  106 1    
   208  105  107 1    
   209  105  226 1    
   210  106  227 1    
   211  106  228 1    
   212  106  229 1    
   213  107  108 2    
   214  107  109 am   BACKBONE|DICT|INTERRES
   215  109  110 1    
   216  109  230 1    
   217  110  111 1    
   218  110  112 1    
   219  110  231 1    
   220  111  232 1    
   221  111  233 1    
   222  111  234 1    
   223  112  113 2    
   224  112  114 am   BACKBONE|DICT|INTERRES
   225  114  115 1    
   226  114  235 1    
   227  115  116 1    
   228  115  117 1    
   229  115  236 1    
   230  116  237 1    
   231  116  238 1    
   232  116  239 1    
   233  117  118 2    
   234  117  119 am   BACKBONE|DICT|INTERRES
   235  119  120 1    
   236  119  240 1    
   237  120  121 1    
   238  120  124 1    
   239  120  241 1    
   240  121  122 am   BACKBONE|DICT|INTERRES
   241  121  123 2    
   242  122  242 1    
   243  122  243 1    
   244  124  125 1    
   245  124  244 1    
   246  124  245 1    
   247  125  126 1    
   248  126  246 1    
   249  126  247 1    
@<TRIPOS>SUBSTRUCTURE
     1 UNK         1 GROUP             0       ****    0 ROOT    
