@<TRIPOS>MOLECULE
3R540
247   249    1
SMALL
USER_CHARGES


@<TRIPOS>ATOM
      1 CA         -4.5555  -16.8399  -46.9385 C.3       0 UNK        -0.1800 
      2 C          -3.8023  -15.5390  -46.6997 C.2       0 UNK         0.5000 
      3 O          -4.4245  -14.4947  -46.5023 O.2       0 UNK        -0.5000 
      4 N          -2.4647  -15.5951  -46.7008 N.am      1 UNK        -0.5000 
      5 CA         -1.5502  -14.4656  -46.4873 C.3       1 UNK         0.1400 
      6 C6         -0.1468  -14.7302  -47.0957 C.3       23 UNK        -0.0398 
      7 S7         -0.2042  -15.1096  -48.8776 S.3       23 UNK        -0.2404 
      8 C8          1.5378  -15.5309  -49.2206 C.3       23 UNK        -0.0205 
      9 C9          1.6773  -16.7993  -50.0555 C.ar      23 UNK        -0.0193 
     10 C10         1.0527  -16.8943  -51.3035 C.ar      23 UNK        -0.1150 
     11 C11         1.1650  -18.0578  -52.0686 C.ar      23 UNK        -0.0193 
     12 C12         1.9433  -19.1181  -51.5997 C.ar      23 UNK        -0.1150 
     13 C13         2.5949  -19.0302  -50.3674 C.ar      23 UNK        -0.0193 
     14 C14         2.4496  -17.8722  -49.5943 C.ar      23 UNK        -0.1150 
     15 C15         3.4787  -20.1782  -49.8969 C.3       23 UNK        -0.0205 
     16 S16         2.5245  -21.6724  -49.4780 S.3       23 UNK        -0.2404 
     17 C17         1.7740  -21.1603  -47.9027 C.3       23 UNK        -0.0398 
     18 CA          0.4358  -21.8641  -47.5721 C.3       11 UNK         0.1400 
     19 N           0.0612  -21.6562  -46.1695 N.am      11 UNK        -0.5000 
     20 C          -1.0427  -22.1030  -45.5513 C.2       10 UNK         0.5000 
     21 O          -1.8995  -22.8128  -46.0818 O.2       10 UNK        -0.5000 
     22 CA         -1.2420  -21.6495  -44.0931 C.3       10 UNK         0.1400 
     23 CB         -0.4726  -22.5696  -43.1344 C.3       10 UNK        -0.1800 
     24 N          -0.8560  -20.2553  -43.8581 N.am      10 UNK        -0.5000 
     25 C          -1.4031  -19.1936  -44.4705 C.2       9 UNK         0.5000 
     26 O          -2.3019  -19.2696  -45.3060 O.2       9 UNK        -0.5000 
     27 CA         -0.7922  -17.8179  -44.1559 C.3       9 UNK         0.1400 
     28 CB         -1.1881  -17.3214  -42.7580 C.3       9 UNK        -0.1800 
     29 N           0.6602  -17.8276  -44.2984 N.am      9 UNK        -0.5000 
     30 C           1.3040  -18.0788  -45.4460 C.2       8 UNK         0.5000 
     31 O           0.7355  -18.2282  -46.5280 O.2       8 UNK        -0.5000 
     32 CA          2.8319  -18.2375  -45.3597 C.3       8 UNK         0.1400 
     33 CB          3.5386  -16.8787  -45.4663 C.3       8 UNK        -0.1800 
     34 N           3.2488  -18.9069  -44.1264 N.am      8 UNK        -0.5000 
     35 C           3.0297  -20.2003  -43.8520 C.2       7 UNK         0.5000 
     36 O           2.4748  -20.9777  -44.6266 O.2       7 UNK        -0.5000 
     37 CA          3.4677  -20.6964  -42.4621 C.3       7 UNK         0.1400 
     38 CB          4.9786  -20.9709  -42.4331 C.3       7 UNK        -0.1800 
     39 N           3.1231  -19.7529  -41.3981 N.am      7 UNK        -0.5000 
     40 C           1.8689  -19.4599  -41.0268 C.2       6 UNK         0.5000 
     41 O           0.8712  -19.9912  -41.5137 O.2       6 UNK        -0.5000 
     42 CA          1.6981  -18.3531  -39.9676 C.3       6 UNK         0.1400 
     43 CB          1.7593  -18.9488  -38.5534 C.3       6 UNK        -0.1800 
     44 N           2.6722  -17.2605  -40.0772 N.am      6 UNK        -0.5000 
     45 C           2.8468  -16.4968  -41.1641 C.2       5 UNK         0.5000 
     46 O           2.2514  -16.6819  -42.2268 O.2       5 UNK        -0.5000 
     47 CA          3.9041  -15.3804  -41.0604 C.3       5 UNK         0.1400 
     48 CB          5.3102  -15.9654  -41.2683 C.3       5 UNK        -0.1800 
     49 N           3.6920  -14.3203  -42.0485 N.am      5 UNK        -0.5000 
     50 C           2.6329  -13.5007  -42.0838 C.2       4 UNK         0.5000 
     51 O           1.7658  -13.4772  -41.2060 O.2       4 UNK        -0.5000 
     52 CA          2.5537  -12.5418  -43.2906 C.3       4 UNK         0.1400 
     53 CB          2.8440  -13.2557  -44.6257 C.3       4 UNK        -0.1800 
     54 N           1.2302  -11.9285  -43.3766 N.am      4 UNK        -0.5000 
     55 C           0.8944  -10.7324  -42.8750 C.2       3 UNK         0.5000 
     56 O           1.6960   -9.9754  -42.3249 O.2       3 UNK        -0.5000 
     57 CA         -0.5760  -10.2846  -43.0238 C.3       3 UNK         0.1400 
     58 CB         -0.7056   -9.2335  -44.1376 C.3       3 UNK        -0.1800 
     59 N          -1.4922  -11.3882  -43.3157 N.am      3 UNK        -0.5000 
     60 C          -1.9244  -12.2839  -42.4179 C.2       2 UNK         0.5000 
     61 O          -1.6798  -12.2133  -41.2133 O.2       2 UNK        -0.5000 
     62 CA         -2.7656  -13.4630  -42.9517 C.3       2 UNK         0.1400 
     63 CB         -4.2573  -13.2370  -42.6624 C.3       2 UNK        -0.1800 
     64 N          -2.6018  -13.7417  -44.3834 N.am      2 UNK        -0.5000 
     65 C          -1.4635  -14.1084  -44.9857 C.2       1 UNK         0.5000 
     66 O          -0.3881  -14.1827  -44.3932 O.2       1 UNK        -0.5000 
     67 C          -0.7000  -21.4718  -48.5365 C.2       11 UNK         0.5000 
     68 O          -1.2110  -22.3357  -49.2484 O.2       11 UNK        -0.5000 
     69 N          -1.1124  -20.1994  -48.4937 N.am      12 UNK        -0.5000 
     70 CA         -2.1868  -19.6780  -49.3377 C.3       12 UNK         0.1400 
     71 CB         -2.0786  -18.1508  -49.3888 C.3       12 UNK        -0.1800 
     72 C          -3.5962  -20.1130  -48.8931 C.2       12 UNK         0.5000 
     73 O          -4.5155  -20.0773  -49.7100 O.2       12 UNK        -0.5000 
     74 N          -3.7665  -20.4817  -47.6156 N.am      13 UNK        -0.5000 
     75 CA         -5.0457  -20.9362  -47.0756 C.3       13 UNK         0.1400 
     76 CB         -5.0422  -20.8504  -45.5425 C.3       13 UNK        -0.1800 
     77 C          -5.4165  -22.3546  -47.5376 C.2       13 UNK         0.5000 
     78 O          -6.5632  -22.5652  -47.9377 O.2       13 UNK        -0.5000 
     79 N          -4.4691  -23.3012  -47.4563 N.am      14 UNK        -0.5000 
     80 CA         -4.7301  -24.7077  -47.7689 C.3       14 UNK         0.1400 
     81 CB         -5.4982  -25.3733  -46.6098 C.3       14 UNK        -0.1800 
     82 C          -3.4814  -25.5363  -48.1050 C.2       14 UNK         0.5000 
     83 O          -3.6041  -26.4843  -48.8829 O.2       14 UNK        -0.5000 
     84 N          -2.3186  -25.2301  -47.5094 N.am      15 UNK        -0.5000 
     85 CA         -1.1329  -26.0950  -47.5846 C.3       15 UNK         0.1400 
     86 CB         -0.1372  -25.7315  -46.4727 C.3       15 UNK        -0.1800 
     87 C          -0.4640  -26.1522  -48.9743 C.2       15 UNK         0.5000 
     88 O           0.2043  -27.1428  -49.2728 O.2       15 UNK        -0.5000 
     89 N          -0.6944  -25.1359  -49.8135 N.am      16 UNK        -0.5000 
     90 CA         -0.3744  -25.1261  -51.2413 C.3       16 UNK         0.1400 
     91 CB          0.7164  -24.0776  -51.5212 C.3       16 UNK        -0.1800 
     92 C          -1.6639  -24.8808  -52.0480 C.2       16 UNK         0.5000 
     93 O          -1.6539  -24.1166  -53.0151 O.2       16 UNK        -0.5000 
     94 N          -2.7556  -25.5325  -51.6179 N.am      17 UNK        -0.5000 
     95 CA         -4.1406  -25.3495  -52.0625 C.3       17 UNK         0.1400 
     96 CB         -4.2914  -25.6273  -53.5753 C.3       17 UNK        -0.1800 
     97 C          -4.7039  -23.9758  -51.6403 C.2       17 UNK         0.5000 
     98 O          -4.0811  -23.2623  -50.8525 O.2       17 UNK        -0.5000 
     99 N          -5.9014  -23.6459  -52.1363 N.am      18 UNK        -0.5000 
    100 CA        -6.5373  -22.3454  -51.9341 C.3       18 UNK         0.1400 
    101 CB        -8.0227  -22.4603  -52.3108 C.3       18 UNK        -0.1800 
    102 C         -5.8560  -21.2578  -52.7830 C.2       18 UNK         0.5000 
    103 O         -5.2641  -21.5677  -53.8208 O.2       18 UNK        -0.5000 
    104 N         -6.0124  -19.9958  -52.3649 N.am      19 UNK        -0.5000 
    105 CA        -5.4152  -18.8041  -52.9787 C.3       19 UNK         0.1400 
    106 CB        -5.7116  -17.5866  -52.0895 C.3       19 UNK        -0.1800 
    107 C         -5.8486  -18.5321  -54.4351 C.2       19 UNK         0.5000 
    108 O         -5.1808  -17.7668  -55.1306 O.2       19 UNK        -0.5000 
    109 N         -6.9373  -19.1732  -54.8823 N.am      20 UNK        -0.5000 
    110 CA        -7.3793  -19.1985  -56.2773 C.3       20 UNK         0.1400 
    111 CB        -8.7896  -19.8045  -56.3409 C.3       20 UNK        -0.1800 
    112 C         -6.4162  -19.9744  -57.2014 C.2       20 UNK         0.5000 
    113 O         -6.3418  -19.6600  -58.3899 O.2       20 UNK        -0.5000 
    114 N         -5.6987  -20.9592  -56.6433 N.am      21 UNK        -0.5000 
    115 CA        -4.6553  -21.7269  -57.3190 C.3       21 UNK         0.1400 
    116 CB        -4.8390  -23.2220  -57.0066 C.3       21 UNK        -0.1800 
    117 C         -3.2740  -21.2258  -56.8692 C.2       21 UNK         0.5000 
    118 O         -2.4810  -20.8011  -57.7093 O.2       21 UNK        -0.5000 
    119 N         -3.0453  -21.2496  -55.5492 N.am      22 UNK        -0.5000 
    120 CA        -1.8499  -20.7816  -54.8354 C.3       22 UNK         0.1400 
    121 C         -0.5264  -21.4400  -55.3276 C.2       22 UNK         0.5000 
    122 N         -0.2788  -22.6926  -54.9740 N.am      22 UNK        -0.7600 
    123 O          0.2806  -20.8334  -56.0280 O.2       22 UNK        -0.5000 
    124 C124       -1.7893  -19.2280  -54.7638 C.3       23 UNK        -0.0398 
    125 S125       -1.3004  -18.6533  -53.1069 S.3       23 UNK        -0.2404 
    126 C126        0.4299  -18.1806  -53.3911 C.3       23 UNK        -0.0205 
    127 H127       -3.9211  -17.7078  -46.7647 H         1 UNK         0.0600 
    128 H128       -4.9219  -16.8819  -47.9642 H         1 UNK         0.0600 
    129 H129       -5.4095  -16.9126  -46.2654 H         1 UNK         0.0600 
    130 H130       -2.0116  -16.4806  -46.8722 H         1 UNK         0.3000 
    131 H131       -1.9632  -13.5912  -46.9948 H         1 UNK         0.0600 
    132 H132        0.3408  -15.5584  -46.5817 H         1 UNK         0.0800 
    133 H133        0.4981  -13.8602  -46.9586 H         1 UNK         0.0800 
    134 H134        2.0832  -15.6353  -48.2830 H         1 UNK         0.0800 
    135 H135        2.0034  -14.7010  -49.7534 H         1 UNK         0.0800 
    136 H136        0.4514  -16.0723  -51.6658 H         1 UNK         0.1150 
    137 H137        2.0392  -20.0183  -52.1909 H         1 UNK         0.1150 
    138 H138        2.9460  -17.8021  -48.6371 H         1 UNK         0.1150 
    139 H139        4.1841  -20.4268  -50.6910 H         1 UNK         0.0800 
    140 H140        4.0819  -19.8803  -49.0378 H         1 UNK         0.0800 
    141 H141        1.6498  -20.0802  -47.9026 H         1 UNK         0.0800 
    142 H142        2.5106  -21.3815  -47.1315 H         1 UNK         0.0800 
    143 H143        0.6010  -22.9319  -47.7033 H         1 UNK         0.0600 
    144 H144        0.7292  -21.1352  -45.6109 H         1 UNK         0.3000 
    145 H145       -2.3040  -21.7384  -43.8606 H         1 UNK         0.0600 
    146 H146       -0.6847  -22.3202  -42.0947 H         1 UNK         0.0600 
    147 H147        0.6051  -22.4956  -43.2820 H         1 UNK         0.0600 
    148 H148       -0.7542  -23.6130  -43.2828 H         1 UNK         0.0600 
    149 H149       -0.1314  -20.0999  -43.1623 H         1 UNK         0.3000 
    150 H150       -1.1840  -17.1085  -44.8826 H         1 UNK         0.0600 
    151 H151       -2.2699  -17.2077  -42.6800 H         1 UNK         0.0600 
    152 H152       -0.7412  -16.3498  -42.5448 H         1 UNK         0.0600 
    153 H153       -0.8739  -18.0119  -41.9767 H         1 UNK         0.0600 
    154 H154        1.2097  -17.6263  -43.4666 H         1 UNK         0.3000 
    155 H155        3.1490  -18.8507  -46.2055 H         1 UNK         0.0600 
    156 H156        3.2352  -16.3464  -46.3673 H         1 UNK         0.0600 
    157 H157        4.6208  -17.0008  -45.5103 H         1 UNK         0.0600 
    158 H158        3.3100  -16.2391  -44.6148 H         1 UNK         0.0600 
    159 H159        3.6403  -18.3192  -43.4055 H         1 UNK         0.3000 
    160 H160        2.9469  -21.6360  -42.2650 H         1 UNK         0.0600 
    161 H161        5.5589  -20.0614  -42.5940 H         1 UNK         0.0600 
    162 H162        5.2604  -21.6822  -43.2106 H         1 UNK         0.0600 
    163 H163        5.2829  -21.3985  -41.4776 H         1 UNK         0.0600 
    164 H164        3.8849  -19.2694  -40.9463 H         1 UNK         0.3000 
    165 H165        0.7067  -17.9187  -40.1087 H         1 UNK         0.0600 
    166 H166        1.5356  -18.1958  -37.7975 H         1 UNK         0.0600 
    167 H167        1.0297  -19.7513  -38.4357 H         1 UNK         0.0600 
    168 H168        2.7433  -19.3648  -38.3334 H         1 UNK         0.0600 
    169 H169        3.2127  -17.0597  -39.2481 H         1 UNK         0.3000 
    170 H170        3.8454  -14.9370  -40.0644 H         1 UNK         0.0600 
    171 H171        5.4166  -16.4170  -42.2557 H         1 UNK         0.0600 
    172 H172        6.0761  -15.1962  -41.1674 H         1 UNK         0.0600 
    173 H173        5.5306  -16.7368  -40.5293 H         1 UNK         0.0600 
    174 H174        4.3516  -14.2868  -42.8107 H         1 UNK         0.3000 
    175 H175        3.3124  -11.7699  -43.1475 H         1 UNK         0.0600 
    176 H176        2.1994  -14.1233  -44.7664 H         1 UNK         0.0600 
    177 H177        2.6876  -12.5864  -45.4718 H         1 UNK         0.0600 
    178 H178        3.8770  -13.5995  -44.6811 H         1 UNK         0.0600 
    179 H179        0.4987  -12.5366  -43.7297 H         1 UNK         0.3000 
    180 H180       -0.8753   -9.8211  -42.0814 H         1 UNK         0.0600 
    181 H181       -1.7277   -8.8618  -44.2129 H         1 UNK         0.0600 
    182 H182       -0.4222   -9.6398  -45.1094 H         1 UNK         0.0600 
    183 H183       -0.0629   -8.3742  -43.9413 H         1 UNK         0.0600 
    184 H184       -1.7579  -11.5156  -44.2807 H         1 UNK         0.3000 
    185 H185       -2.4447  -14.3536  -42.4078 H         1 UNK         0.0600 
    186 H186       -4.6445  -12.3743  -43.2060 H         1 UNK         0.0600 
    187 H187       -4.8503  -14.1067  -42.9461 H         1 UNK         0.0600 
    188 H188       -4.4290  -13.0607  -41.5997 H         1 UNK         0.0600 
    189 H189       -3.4458  -13.7432  -44.9486 H         1 UNK         0.3000 
    190 H190       -0.6634  -19.5504  -47.8586 H         1 UNK         0.3000 
    191 H191       -2.0435  -20.0559  -50.3527 H         1 UNK         0.0600 
    192 H192       -2.0842  -17.7194  -48.3904 H         1 UNK         0.0600 
    193 H193       -2.9008  -17.7091  -49.9532 H         1 UNK         0.0600 
    194 H194       -1.1535  -17.8484  -49.8762 H         1 UNK         0.0600 
    195 H195       -2.9882  -20.4192  -46.9705 H         1 UNK         0.3000 
    196 H196       -5.8243  -20.2593  -47.4344 H         1 UNK         0.0600 
    197 H197       -4.9012  -19.8238  -45.2053 H         1 UNK         0.0600 
    198 H198       -4.2535  -21.4626  -45.1077 H         1 UNK         0.0600 
    199 H199       -5.9905  -21.1972  -45.1300 H         1 UNK         0.0600 
    200 H200       -3.5377  -23.0506  -47.1394 H         1 UNK         0.3000 
    201 H201       -5.3596  -24.7467  -48.6606 H         1 UNK         0.0600 
    202 H202       -6.4735  -24.9117  -46.4562 H         1 UNK         0.0600 
    203 H203       -4.9436  -25.3036  -45.6733 H         1 UNK         0.0600 
    204 H204       -5.6743  -26.4311  -46.8100 H         1 UNK         0.0600 
    205 H205       -2.2479  -24.4152  -46.9056 H         1 UNK         0.3000 
    206 H206       -1.4693  -27.1129  -47.3749 H         1 UNK         0.0600 
    207 H207        0.7330  -26.3885  -46.4978 H         1 UNK         0.0600 
    208 H208        0.2238  -24.7115  -46.5585 H         1 UNK         0.0600 
    209 H209       -0.5940  -25.8376  -45.4886 H         1 UNK         0.0600 
    210 H210       -1.2221  -24.3298  -49.4878 H         1 UNK         0.3000 
    211 H211        0.0052  -26.0996  -51.5570 H         1 UNK         0.0600 
    212 H212        0.3673  -23.0664  -51.3105 H         1 UNK         0.0600 
    213 H213        1.0280  -24.1053  -52.5657 H         1 UNK         0.0600 
    214 H214        1.6025  -24.2618  -50.9142 H         1 UNK         0.0600 
    215 H215       -2.6638  -26.0817  -50.7715 H         1 UNK         0.3000 
    216 H216       -4.7239  -26.0992  -51.5261 H         1 UNK         0.0600 
    217 H217       -5.3391  -25.7324  -53.8574 H         1 UNK         0.0600 
    218 H218       -3.7916  -26.5539  -53.8575 H         1 UNK         0.0600 
    219 H219       -3.8714  -24.8237  -54.1803 H         1 UNK         0.0600 
    220 H220       -6.3474  -24.2662  -52.7949 H         1 UNK         0.3000 
    221 H221       -6.4580  -22.0716  -50.8793 H         1 UNK         0.0600 
    222 H222       -8.1537  -22.7218  -53.3618 H         1 UNK         0.0600 
    223 H223       -8.5230  -23.2207  -51.7106 H         1 UNK         0.0600 
    224 H224       -8.5459  -21.5189  -52.1387 H         1 UNK         0.0600 
    225 H225       -6.4845  -19.8415  -51.4854 H         1 UNK         0.3000 
    226 H226       -4.3353  -18.9587  -52.9905 H         1 UNK         0.0600 
    227 H227       -5.3197  -17.7285  -51.0821 H         1 UNK         0.0600 
    228 H228       -5.2464  -16.6854  -52.4912 H         1 UNK         0.0600 
    229 H229       -6.7828  -17.3979  -52.0112 H         1 UNK         0.0600 
    230 H230       -7.4348  -19.7673  -54.2364 H         1 UNK         0.3000 
    231 H231       -7.4303  -18.1693  -56.6387 H         1 UNK         0.0600 
    232 H232       -9.1630  -19.8175  -57.3658 H         1 UNK         0.0600 
    233 H233       -9.4958  -19.2246  -55.7464 H         1 UNK         0.0600 
    234 H234       -8.8035  -20.8315  -55.9733 H         1 UNK         0.0600 
    235 H235       -5.7837  -21.1158  -55.6440 H         1 UNK         0.3000 
    236 H236       -4.7236  -21.6007  -58.4016 H         1 UNK         0.0600 
    237 H237       -4.8392  -23.4183  -55.9342 H         1 UNK         0.0600 
    238 H238       -5.7818  -23.5915  -57.4102 H         1 UNK         0.0600 
    239 H239       -4.0393  -23.8159  -57.4508 H         1 UNK         0.0600 
    240 H240       -3.7883  -21.5910  -54.9448 H         1 UNK         0.3000 
    241 H241       -2.0045  -21.1558  -53.8215 H         1 UNK         0.0600 
    242 H242        0.5686  -23.1327  -55.2930 H         1 UNK         0.3800 
    243 H243       -0.8984  -23.1999  -54.3413 H         1 UNK         0.3800 
    244 H244       -1.1485  -18.7940  -55.5327 H         1 UNK         0.0800 
    245 H245       -2.7739  -18.8031  -54.9531 H         1 UNK         0.0800 
    246 H246        0.4671  -17.2353  -53.9343 H         1 UNK         0.0800 
    247 H247        0.9183  -18.9239  -54.0232 H         1 UNK         0.0800 
@<TRIPOS>BOND
     1    1    2 1    
     2    1  127 1    
     3    1  128 1    
     4    1  129 1    
     5    2    3 2    
     6    2    4 am   BACKBONE|DICT|INTERRES
     7    4    5 1    
     8    4  130 1    
     9    5    6 1    
    10    5   65 1    
    11    5  131 1    
    12    6    7 1    
    13    6  132 1    
    14    6  133 1    
    15    7    8 1    
    16    8    9 1    
    17    8  134 1    
    18    8  135 1    
    19    9   10 ar   
    20    9   14 ar   
    21   10   11 ar   
    22   10  136 1    
    23   11   12 ar   
    24   11  126 1    
    25   12   13 ar   
    26   12  137 1    
    27   13   14 ar   
    28   13   15 1    
    29   14  138 1    
    30   15   16 1    
    31   15  139 1    
    32   15  140 1    
    33   16   17 1    
    34   17   18 1    
    35   17  141 1    
    36   17  142 1    
    37   18   19 1    
    38   18   67 1    
    39   18  143 1    
    40   19   20 am   BACKBONE|DICT|INTERRES
    41   19  144 1    
    42   20   21 2    
    43   20   22 1    
    44   22   23 1    
    45   22   24 1    
    46   22  145 1    
    47   23  146 1    
    48   23  147 1    
    49   23  148 1    
    50   24   25 am   BACKBONE|DICT|INTERRES
    51   24  149 1    
    52   25   26 2    
    53   25   27 1    
    54   27   28 1    
    55   27   29 1    
    56   27  150 1    
    57   28  151 1    
    58   28  152 1    
    59   28  153 1    
    60   29   30 am   BACKBONE|DICT|INTERRES
    61   29  154 1    
    62   30   31 2    
    63   30   32 1    
    64   32   33 1    
    65   32   34 1    
    66   32  155 1    
    67   33  156 1    
    68   33  157 1    
    69   33  158 1    
    70   34   35 am   BACKBONE|DICT|INTERRES
    71   34  159 1    
    72   35   36 2    
    73   35   37 1    
    74   37   38 1    
    75   37   39 1    
    76   37  160 1    
    77   38  161 1    
    78   38  162 1    
    79   38  163 1    
    80   39   40 am   BACKBONE|DICT|INTERRES
    81   39  164 1    
    82   40   41 2    
    83   40   42 1    
    84   42   43 1    
    85   42   44 1    
    86   42  165 1    
    87   43  166 1    
    88   43  167 1    
    89   43  168 1    
    90   44   45 am   BACKBONE|DICT|INTERRES
    91   44  169 1    
    92   45   46 2    
    93   45   47 1    
    94   47   48 1    
    95   47   49 1    
    96   47  170 1    
    97   48  171 1    
    98   48  172 1    
    99   48  173 1    
   100   49   50 am   BACKBONE|DICT|INTERRES
   101   49  174 1    
   102   50   51 2    
   103   50   52 1    
   104   52   53 1    
   105   52   54 1    
   106   52  175 1    
   107   53  176 1    
   108   53  177 1    
   109   53  178 1    
   110   54   55 am   BACKBONE|DICT|INTERRES
   111   54  179 1    
   112   55   56 2    
   113   55   57 1    
   114   57   58 1    
   115   57   59 1    
   116   57  180 1    
   117   58  181 1    
   118   58  182 1    
   119   58  183 1    
   120   59   60 am   BACKBONE|DICT|INTERRES
   121   59  184 1    
   122   60   61 2    
   123   60   62 1    
   124   62   63 1    
   125   62   64 1    
   126   62  185 1    
   127   63  186 1    
   128   63  187 1    
   129   63  188 1    
   130   64   65 am   BACKBONE|DICT|INTERRES
   131   64  189 1    
   132   65   66 2    
   133   67   68 2    
   134   67   69 am   BACKBONE|DICT|INTERRES
   135   69   70 1    
   136   69  190 1    
   137   70   71 1    
   138   70   72 1    
   139   70  191 1    
   140   71  192 1    
   141   71  193 1    
   142   71  194 1    
   143   72   73 2    
   144   72   74 am   BACKBONE|DICT|INTERRES
   145   74   75 1    
   146   74  195 1    
   147   75   76 1    
   148   75   77 1    
   149   75  196 1    
   150   76  197 1    
   151   76  198 1    
   152   76  199 1    
   153   77   78 2    
   154   77   79 am   BACKBONE|DICT|INTERRES
   155   79   80 1    
   156   79  200 1    
   157   80   81 1    
   158   80   82 1    
   159   80  201 1    
   160   81  202 1    
   161   81  203 1    
   162   81  204 1    
   163   82   83 2    
   164   82   84 am   BACKBONE|DICT|INTERRES
   165   84   85 1    
   166   84  205 1    
   167   85   86 1    
   168   85   87 1    
   169   85  206 1    
   170   86  207 1    
   171   86  208 1    
   172   86  209 1    
   173   87   88 2    
   174   87   89 am   BACKBONE|DICT|INTERRES
   175   89   90 1    
   176   89  210 1    
   177   90   91 1    
   178   90   92 1    
   179   90  211 1    
   180   91  212 1    
   181   91  213 1    
   182   91  214 1    
   183   92   93 2    
   184   92   94 am   BACKBONE|DICT|INTERRES
   185   94   95 1    
   186   94  215 1    
   187   95   96 1    
   188   95   97 1    
   189   95  216 1    
   190   96  217 1    
   191   96  218 1    
   192   96  219 1    
   193   97   98 2    
   194   97   99 am   BACKBONE|DICT|INTERRES
   195   99  100 1    
   196   99  220 1    
   197  100  101 1    
   198  100  102 1    
   199  100  221 1    
   200  101  222 1    
   201  101  223 1    
   202  101  224 1    
   203  102  103 2    
   204  102  104 am   BACKBONE|DICT|INTERRES
   205  104  105 1    
   206  104  225 1    
   207  105  106 1    
   208  105  107 1    
   209  105  226 1    
   210  106  227 1    
   211  106  228 1    
   212  106  229 1    
   213  107  108 2    
   214  107  109 am   BACKBONE|DICT|INTERRES
   215  109  110 1    
   216  109  230 1    
   217  110  111 1    
   218  110  112 1    
   219  110  231 1    
   220  111  232 1    
   221  111  233 1    
   222  111  234 1    
   223  112  113 2    
   224  112  114 am   BACKBONE|DICT|INTERRES
   225  114  115 1    
   226  114  235 1    
   227  115  116 1    
   228  115  117 1    
   229  115  236 1    
   230  116  237 1    
   231  116  238 1    
   232  116  239 1    
   233  117  118 2    
   234  117  119 am   BACKBONE|DICT|INTERRES
   235  119  120 1    
   236  119  240 1    
   237  120  121 1    
   238  120  124 1    
   239  120  241 1    
   240  121  122 am   BACKBONE|DICT|INTERRES
   241  121  123 2    
   242  122  242 1    
   243  122  243 1    
   244  124  125 1    
   245  124  244 1    
   246  124  245 1    
   247  125  126 1    
   248  126  246 1    
   249  126  247 1    
@<TRIPOS>SUBSTRUCTURE
     1 UNK         1 GROUP             0       ****    0 ROOT    
