@<TRIPOS>MOLECULE
3R540
247   249    1
SMALL
USER_CHARGES


@<TRIPOS>ATOM
      1 CA         -1.6692  -15.0681  -51.1751 C.3       0 UNK        -0.1800 
      2 C          -0.6841  -14.3121  -50.2948 C.2       0 UNK         0.5000 
      3 O          -0.3262  -13.1764  -50.6066 O.2       0 UNK        -0.5000 
      4 N          -0.2517  -14.9457  -49.1973 N.am      1 UNK        -0.5000 
      5 CA          0.6187  -14.3951  -48.1468 C.3       1 UNK         0.1400 
      6 C6         -0.0340  -13.2494  -47.3312 C.3       23 UNK        -0.0398 
      7 S7         -1.7055  -13.6115  -46.6718 S.3       23 UNK        -0.2404 
      8 C8         -1.5490  -15.2232  -45.8230 C.3       23 UNK        -0.0205 
      9 C9         -1.8485  -16.4028  -46.7403 C.ar      23 UNK        -0.0193 
     10 C10        -3.1502  -16.6114  -47.2033 C.ar      23 UNK        -0.1150 
     11 C11        -3.4326  -17.6658  -48.0744 C.ar      23 UNK        -0.0193 
     12 C12        -2.4028  -18.5157  -48.4817 C.ar      23 UNK        -0.1150 
     13 C13        -1.0920  -18.3164  -48.0419 C.ar      23 UNK        -0.0193 
     14 C14        -0.8317  -17.2771  -47.1404 C.ar      23 UNK        -0.1150 
     15 C15         0.0165  -19.1953  -48.6228 C.3       23 UNK        -0.0205 
     16 S16         1.4912  -19.4379  -47.5691 S.3       23 UNK        -0.2404 
     17 C17         0.7770  -20.0916  -46.0235 C.3       23 UNK        -0.0398 
     18 CA          0.6202  -21.6297  -45.9793 C.3       11 UNK         0.1400 
     19 N           0.4358  -22.0904  -44.6038 N.am      11 UNK        -0.5000 
     20 C           0.2883  -23.3564  -44.1933 C.2       10 UNK         0.5000 
     21 O           0.2423  -24.3268  -44.9483 O.2       10 UNK        -0.5000 
     22 CA          0.1376  -23.5587  -42.6786 C.3       10 UNK         0.1400 
     23 CB          1.4990  -23.4435  -41.9755 C.3       10 UNK        -0.1800 
     24 N          -0.7850  -22.5738  -42.1174 N.am      10 UNK        -0.5000 
     25 C          -2.1140  -22.7303  -42.0757 C.2       9 UNK         0.5000 
     26 O          -2.6942  -23.7560  -42.4327 O.2       9 UNK        -0.5000 
     27 CA         -2.9398  -21.5368  -41.5581 C.3       9 UNK         0.1400 
     28 CB         -3.1071  -21.6194  -40.0333 C.3       9 UNK        -0.1800 
     29 N          -2.3838  -20.2273  -41.9086 N.am      9 UNK        -0.5000 
     30 C          -2.2572  -19.7633  -43.1592 C.2       8 UNK         0.5000 
     31 O          -2.5239  -20.4169  -44.1664 O.2       8 UNK        -0.5000 
     32 CA         -1.7137  -18.3320  -43.3145 C.3       8 UNK         0.1400 
     33 CB         -2.7868  -17.3214  -42.8807 C.3       8 UNK        -0.1800 
     34 N          -0.4592  -18.0292  -42.6133 N.am      8 UNK        -0.5000 
     35 C           0.6161  -18.8162  -42.4451 C.2       7 UNK         0.5000 
     36 O           0.6478  -20.0143  -42.7257 O.2       7 UNK        -0.5000 
     37 CA          1.9000  -18.1614  -41.9010 C.3       7 UNK         0.1400 
     38 CB          3.0127  -18.2151  -42.9618 C.3       7 UNK        -0.1800 
     39 N           1.7207  -16.7713  -41.4771 N.am      7 UNK        -0.5000 
     40 C           1.1991  -16.3905  -40.3026 C.2       6 UNK         0.5000 
     41 O           0.7841  -17.1822  -39.4561 O.2       6 UNK        -0.5000 
     42 CA          1.1313  -14.8764  -40.0179 C.3       6 UNK         0.1400 
     43 CB          2.2351  -14.4699  -39.0292 C.3       6 UNK        -0.1800 
     44 N           1.2508  -14.0460  -41.2187 N.am      6 UNK        -0.5000 
     45 C           0.2907  -13.8852  -42.1399 C.2       5 UNK         0.5000 
     46 O          -0.8074  -14.4365  -42.0847 O.2       5 UNK        -0.5000 
     47 CA          0.6369  -12.9841  -43.3404 C.3       5 UNK         0.1400 
     48 CB          0.3162  -11.5150  -43.0299 C.3       5 UNK        -0.1800 
     49 N           2.0416  -13.1024  -43.7441 N.am      5 UNK        -0.5000 
     50 C           2.5647  -14.1956  -44.3115 C.2       4 UNK         0.5000 
     51 O           1.9016  -15.1905  -44.6181 O.2       4 UNK        -0.5000 
     52 CA          4.0831  -14.2030  -44.5284 C.3       4 UNK         0.1400 
     53 CB          4.8032  -14.5058  -43.1982 C.3       4 UNK        -0.1800 
     54 N           4.3704  -15.2240  -45.5283 N.am      4 UNK        -0.5000 
     55 C           5.5480  -15.5085  -46.0931 C.2       3 UNK         0.5000 
     56 O           6.6078  -14.9468  -45.8147 O.2       3 UNK        -0.5000 
     57 CA          5.5115  -16.5825  -47.1944 C.3       3 UNK         0.1400 
     58 CB          5.0231  -17.9367  -46.6494 C.3       3 UNK        -0.1800 
     59 N           4.6499  -16.1587  -48.2982 N.am      3 UNK        -0.5000 
     60 C           4.9672  -15.2040  -49.1859 C.2       2 UNK         0.5000 
     61 O           6.0659  -14.6499  -49.2351 O.2       2 UNK        -0.5000 
     62 CA          3.8673  -14.7875  -50.1812 C.3       2 UNK         0.1400 
     63 CB          3.9295  -15.6513  -51.4501 C.3       2 UNK        -0.1800 
     64 N           2.5215  -14.8705  -49.6120 N.am      2 UNK        -0.5000 
     65 C           2.0420  -14.0711  -48.6474 C.2       1 UNK         0.5000 
     66 O           2.6833  -13.1471  -48.1446 O.2       1 UNK        -0.5000 
     67 C          -0.5087  -22.1110  -46.9086 C.2       11 UNK         0.5000 
     68 O          -0.2223  -22.7415  -47.9250 O.2       11 UNK        -0.5000 
     69 N          -1.7648  -21.8360  -46.5279 N.am      12 UNK        -0.5000 
     70 CA         -2.9565  -22.1658  -47.3110 C.3       12 UNK         0.1400 
     71 CB         -4.1662  -21.4160  -46.7332 C.3       12 UNK        -0.1800 
     72 C          -3.2496  -23.6751  -47.3946 C.2       12 UNK         0.5000 
     73 O          -4.0111  -24.0828  -48.2721 O.2       12 UNK        -0.5000 
     74 N          -2.6584  -24.4679  -46.4908 N.am      13 UNK        -0.5000 
     75 CA         -2.7053  -25.9267  -46.5157 C.3       13 UNK         0.1400 
     76 CB         -2.6063  -26.4674  -45.0805 C.3       13 UNK        -0.1800 
     77 C          -1.5851  -26.4992  -47.4015 C.2       13 UNK         0.5000 
     78 O          -1.8468  -27.4036  -48.1950 O.2       13 UNK        -0.5000 
     79 N          -0.3635  -25.9639  -47.2547 N.am      14 UNK        -0.5000 
     80 CA          0.8272  -26.3607  -48.0093 C.3       14 UNK         0.1400 
     81 CB          2.0673  -25.6978  -47.3893 C.3       14 UNK        -0.1800 
     82 C           0.7211  -26.0284  -49.5082 C.2       14 UNK         0.5000 
     83 O           1.0110  -26.8841  -50.3456 O.2       14 UNK        -0.5000 
     84 N           0.2787  -24.8048  -49.8114 N.am      15 UNK        -0.5000 
     85 CA         -0.0777  -24.3369  -51.1419 C.3       15 UNK         0.1400 
     86 CB          0.7363  -23.0727  -51.4701 C.3       15 UNK        -0.1800 
     87 C          -1.5800  -24.0495  -51.0914 C.2       15 UNK         0.5000 
     88 O          -1.9663  -23.0043  -50.5687 O.2       15 UNK        -0.5000 
     89 N          -2.3828  -25.0064  -51.5801 N.am      16 UNK        -0.5000 
     90 CA         -3.8490  -25.0781  -51.5191 C.3       16 UNK         0.1400 
     91 CB         -4.3200  -26.2137  -52.4431 C.3       16 UNK        -0.1800 
     92 C          -4.5603  -23.7536  -51.8602 C.2       16 UNK         0.5000 
     93 O          -4.7533  -23.4478  -53.0386 O.2       16 UNK        -0.5000 
     94 N          -4.8710  -22.9676  -50.8195 N.am      17 UNK        -0.5000 
     95 CA         -5.4304  -21.6116  -50.8711 C.3       17 UNK         0.1400 
     96 CB         -6.9119  -21.6711  -51.2978 C.3       17 UNK        -0.1800 
     97 C          -4.5887  -20.6342  -51.7263 C.2       17 UNK         0.5000 
     98 O          -5.1528  -19.8218  -52.4594 O.2       17 UNK        -0.5000 
     99 N          -3.2546  -20.7680  -51.6468 N.am      18 UNK        -0.5000 
    100 CA        -2.2386  -20.0894  -52.4621 C.3       18 UNK         0.1400 
    101 CB        -2.1898  -18.5758  -52.1664 C.3       18 UNK        -0.1800 
    102 C         -2.3832  -20.4085  -53.9647 C.2       18 UNK         0.5000 
    103 O         -2.2947  -19.5104  -54.8011 O.2       18 UNK        -0.5000 
    104 N         -2.6413  -21.6885  -54.2729 N.am      19 UNK        -0.5000 
    105 CA        -2.9875  -22.2223  -55.5963 C.3       19 UNK         0.1400 
    106 CB        -1.8067  -22.0946  -56.5814 C.3       19 UNK        -0.1800 
    107 C         -4.3016  -21.6050  -56.1197 C.2       19 UNK         0.5000 
    108 O         -4.3671  -21.1288  -57.2540 O.2       19 UNK        -0.5000 
    109 N         -5.3110  -21.6016  -55.2381 N.am      20 UNK        -0.5000 
    110 CA        -6.6593  -21.0446  -55.3887 C.3       20 UNK         0.1400 
    111 CB        -7.4145  -21.7290  -56.5464 C.3       20 UNK        -0.1800 
    112 C         -6.7361  -19.5040  -55.4775 C.2       20 UNK         0.5000 
    113 O         -7.8361  -18.9772  -55.6562 O.2       20 UNK        -0.5000 
    114 N         -5.6112  -18.7908  -55.3143 N.am      21 UNK        -0.5000 
    115 CA        -5.5433  -17.3258  -55.3490 C.3       21 UNK         0.1400 
    116 CB        -4.0775  -16.8710  -55.3601 C.3       21 UNK        -0.1800 
    117 C         -6.3150  -16.6404  -54.2041 C.2       21 UNK         0.5000 
    118 O         -6.8142  -15.5309  -54.3987 O.2       21 UNK        -0.5000 
    119 N         -6.4323  -17.3158  -53.0536 N.am      22 UNK        -0.5000 
    120 CA        -7.2791  -16.8962  -51.9245 C.3       22 UNK         0.1400 
    121 C         -8.7971  -17.1927  -52.1266 C.2       22 UNK         0.5000 
    122 N         -9.2281  -17.8359  -53.2066 N.am      22 UNK        -0.7600 
    123 O         -9.6102  -16.8195  -51.2854 O.2       22 UNK        -0.5000 
    124 C124       -6.7796  -17.4690  -50.5727 C.3       23 UNK        -0.0398 
    125 S125       -5.0751  -16.9692  -50.1683 S.3       23 UNK        -0.2404 
    126 C126       -4.8405  -17.8685  -48.6060 C.3       23 UNK        -0.0205 
    127 H127       -2.0563  -15.9549  -50.6726 H         1 UNK         0.0600 
    128 H128       -1.1878  -15.3797  -52.1019 H         1 UNK         0.0600 
    129 H129       -2.5177  -14.4314  -51.4258 H         1 UNK         0.0600 
    130 H130       -0.6265  -15.8625  -48.9945 H         1 UNK         0.3000 
    131 H131        0.8021  -15.1989  -47.4411 H         1 UNK         0.0600 
    132 H132        0.6026  -12.9774  -46.4886 H         1 UNK         0.0800 
    133 H133       -0.1110  -12.3520  -47.9467 H         1 UNK         0.0800 
    134 H134       -0.5659  -15.3199  -45.3642 H         1 UNK         0.0800 
    135 H135       -2.2672  -15.2322  -45.0045 H         1 UNK         0.0800 
    136 H136       -3.9397  -15.9372  -46.9023 H         1 UNK         0.1150 
    137 H137       -2.6221  -19.3186  -49.1708 H         1 UNK         0.1150 
    138 H138        0.1712  -17.1306  -46.7691 H         1 UNK         0.1150 
    139 H139       -0.3845  -20.1684  -48.9062 H         1 UNK         0.0800 
    140 H140        0.3484  -18.7362  -49.5546 H         1 UNK         0.0800 
    141 H141       -0.1643  -19.5952  -45.7904 H         1 UNK         0.0800 
    142 H142        1.4686  -19.7820  -45.2402 H         1 UNK         0.0800 
    143 H143        1.5508  -22.0782  -46.3331 H         1 UNK         0.0600 
    144 H144        0.4566  -21.3632  -43.8918 H         1 UNK         0.3000 
    145 H145       -0.2468  -24.5666  -42.5068 H         1 UNK         0.0600 
    146 H146        1.4057  -23.6356  -40.9066 H         1 UNK         0.0600 
    147 H147        2.2069  -24.1702  -42.3761 H         1 UNK         0.0600 
    148 H148        1.9388  -22.4530  -42.0997 H         1 UNK         0.0600 
    149 H149       -0.3952  -21.6703  -41.8773 H         1 UNK         0.3000 
    150 H150       -3.9303  -21.6063  -42.0128 H         1 UNK         0.0600 
    151 H151       -3.7702  -20.8360  -39.6657 H         1 UNK         0.0600 
    152 H152       -3.5418  -22.5757  -39.7391 H         1 UNK         0.0600 
    153 H153       -2.1509  -21.5208  -39.5178 H         1 UNK         0.0600 
    154 H154       -2.1067  -19.6299  -41.1435 H         1 UNK         0.3000 
    155 H155       -1.5185  -18.1753  -44.3758 H         1 UNK         0.0600 
    156 H156       -3.0412  -17.4299  -41.8258 H         1 UNK         0.0600 
    157 H157       -3.7037  -17.4524  -43.4572 H         1 UNK         0.0600 
    158 H158       -2.4544  -16.2963  -43.0290 H         1 UNK         0.0600 
    159 H159       -0.3554  -17.0664  -42.3257 H         1 UNK         0.3000 
    160 H160        2.2236  -18.7536  -41.0425 H         1 UNK         0.0600 
    161 H161        2.7504  -17.6440  -43.8528 H         1 UNK         0.0600 
    162 H162        3.2066  -19.2410  -43.2779 H         1 UNK         0.0600 
    163 H163        3.9501  -17.8203  -42.5710 H         1 UNK         0.0600 
    164 H164        2.0042  -16.0591  -42.1338 H         1 UNK         0.3000 
    165 H165        0.1640  -14.6742  -39.5529 H         1 UNK         0.0600 
    166 H166        2.1573  -13.4157  -38.7621 H         1 UNK         0.0600 
    167 H167        2.1631  -15.0432  -38.1039 H         1 UNK         0.0600 
    168 H168        3.2296  -14.6398  -39.4439 H         1 UNK         0.0600 
    169 H169        2.1225  -13.5529  -41.3416 H         1 UNK         0.3000 
    170 H170        0.0080  -13.2949  -44.1746 H         1 UNK         0.0600 
    171 H171       -0.7299  -11.3968  -42.7439 H         1 UNK         0.0600 
    172 H172        0.9263  -11.1315  -42.2112 H         1 UNK         0.0600 
    173 H173        0.4862  -10.8828  -43.9016 H         1 UNK         0.0600 
    174 H174        2.6426  -12.3194  -43.5293 H         1 UNK         0.3000 
    175 H175        4.3937  -13.2307  -44.9152 H         1 UNK         0.0600 
    176 H176        4.5373  -15.4899  -42.8123 H         1 UNK         0.0600 
    177 H177        5.8866  -14.4740  -43.3090 H         1 UNK         0.0600 
    178 H178        4.5442  -13.7731  -42.4332 H         1 UNK         0.0600 
    179 H179        3.5441  -15.7349  -45.8122 H         1 UNK         0.3000 
    180 H180        6.5276  -16.7167  -47.5718 H         1 UNK         0.0600 
    181 H181        3.9914  -17.8928  -46.2988 H         1 UNK         0.0600 
    182 H182        5.6397  -18.2647  -45.8116 H         1 UNK         0.0600 
    183 H183        5.0789  -18.7104  -47.4153 H         1 UNK         0.0600 
    184 H184        3.7287  -16.5672  -48.3420 H         1 UNK         0.3000 
    185 H185        4.0520  -13.7492  -50.4650 H         1 UNK         0.0600 
    186 H186        4.9150  -15.5923  -51.9142 H         1 UNK         0.0600 
    187 H187        3.7311  -16.7018  -51.2336 H         1 UNK         0.0600 
    188 H188        3.2026  -15.3173  -52.1907 H         1 UNK         0.0600 
    189 H189        1.9148  -15.5873  -49.9823 H         1 UNK         0.3000 
    190 H190       -1.9298  -21.3373  -45.6552 H         1 UNK         0.3000 
    191 H191       -2.7941  -21.8079  -48.3292 H         1 UNK         0.0600 
    192 H192       -3.9863  -20.3416  -46.6978 H         1 UNK         0.0600 
    193 H193       -5.0570  -21.5783  -47.3407 H         1 UNK         0.0600 
    194 H194       -4.3948  -21.7485  -45.7199 H         1 UNK         0.0600 
    195 H195       -2.0388  -24.0439  -45.8149 H         1 UNK         0.3000 
    196 H196       -3.6625  -26.2523  -46.9288 H         1 UNK         0.0600 
    197 H197       -2.6656  -27.5564  -45.0702 H         1 UNK         0.0600 
    198 H198       -3.4211  -26.0908  -44.4618 H         1 UNK         0.0600 
    199 H199       -1.6688  -26.1858  -44.6008 H         1 UNK         0.0600 
    200 H200       -0.2230  -25.2493  -46.5457 H         1 UNK         0.3000 
    201 H201        0.9380  -27.4428  -47.9148 H         1 UNK         0.0600 
    202 H202        2.1980  -26.0022  -46.3507 H         1 UNK         0.0600 
    203 H203        1.9950  -24.6095  -47.4103 H         1 UNK         0.0600 
    204 H204        2.9729  -25.9791  -47.9280 H         1 UNK         0.0600 
    205 H205        0.0449  -24.1605  -49.0560 H         1 UNK         0.3000 
    206 H206        0.1236  -25.0915  -51.9050 H         1 UNK         0.0600 
    207 H207        1.8023  -23.2956  -51.5141 H         1 UNK         0.0600 
    208 H208        0.4470  -22.6632  -52.4386 H         1 UNK         0.0600 
    209 H209        0.5928  -22.2898  -50.7236 H         1 UNK         0.0600 
    210 H210       -1.9384  -25.8228  -51.9738 H         1 UNK         0.3000 
    211 H211       -4.1192  -25.3585  -50.5008 H         1 UNK         0.0600 
    212 H212       -4.0112  -26.0478  -53.4761 H         1 UNK         0.0600 
    213 H213       -5.4076  -26.2984  -52.4355 H         1 UNK         0.0600 
    214 H214       -3.9190  -27.1757  -52.1234 H         1 UNK         0.0600 
    215 H215       -4.6102  -23.3046  -49.8949 H         1 UNK         0.3000 
    216 H216       -5.3946  -21.2224  -49.8533 H         1 UNK         0.0600 
    217 H217       -7.3691  -20.6823  -51.3155 H         1 UNK         0.0600 
    218 H218       -7.4919  -22.2801  -50.6046 H         1 UNK         0.0600 
    219 H219       -7.0283  -22.1021  -52.2912 H         1 UNK         0.0600 
    220 H220       -2.8920  -21.5231  -51.0657 H         1 UNK         0.3000 
    221 H221       -1.2769  -20.5083  -52.1624 H         1 UNK         0.0600 
    222 H222       -3.1510  -18.0924  -52.3367 H         1 UNK         0.0600 
    223 H223       -1.8994  -18.3859  -51.1371 H         1 UNK         0.0600 
    224 H224       -1.4537  -18.0716  -52.7932 H         1 UNK         0.0600 
    225 H225       -2.7749  -22.3344  -53.5071 H         1 UNK         0.3000 
    226 H226       -3.1831  -23.2866  -55.4569 H         1 UNK         0.0600 
    227 H227       -0.9024  -22.5450  -56.1725 H         1 UNK         0.0600 
    228 H228       -2.0284  -22.6048  -57.5193 H         1 UNK         0.0600 
    229 H229       -1.5842  -21.0550  -56.8229 H         1 UNK         0.0600 
    230 H230       -5.1335  -22.0509  -54.3434 H         1 UNK         0.3000 
    231 H231       -7.1826  -21.3036  -54.4687 H         1 UNK         0.0600 
    232 H232       -6.9995  -21.4603  -57.5180 H         1 UNK         0.0600 
    233 H233       -8.4662  -21.4404  -56.5528 H         1 UNK         0.0600 
    234 H234       -7.3793  -22.8145  -56.4534 H         1 UNK         0.0600 
    235 H235       -4.7485  -19.2823  -55.1241 H         1 UNK         0.3000 
    236 H236       -5.9997  -17.0021  -56.2867 H         1 UNK         0.0600 
    237 H237       -3.5288  -17.3215  -56.1873 H         1 UNK         0.0600 
    238 H238       -4.0061  -15.7885  -55.4723 H         1 UNK         0.0600 
    239 H239       -3.5685  -17.1363  -54.4344 H         1 UNK         0.0600 
    240 H240       -5.9710  -18.2182  -52.9569 H         1 UNK         0.3000 
    241 H241       -7.2089  -15.8096  -51.8484 H         1 UNK         0.0600 
    242 H242       -8.5921  -18.1316  -53.9377 H         1 UNK         0.3800 
    243 H243      -10.2154  -18.0071  -53.3128 H         1 UNK         0.3800 
    244 H244       -7.4205  -17.1343  -49.7550 H         1 UNK         0.0800 
    245 H245       -6.8332  -18.5570  -50.5788 H         1 UNK         0.0800 
    246 H246       -5.5726  -17.5263  -47.8731 H         1 UNK         0.0800 
    247 H247       -5.0296  -18.9310  -48.7631 H         1 UNK         0.0800 
@<TRIPOS>BOND
     1    1    2 1    
     2    1  127 1    
     3    1  128 1    
     4    1  129 1    
     5    2    3 2    
     6    2    4 am   BACKBONE|DICT|INTERRES
     7    4    5 1    
     8    4  130 1    
     9    5    6 1    
    10    5   65 1    
    11    5  131 1    
    12    6    7 1    
    13    6  132 1    
    14    6  133 1    
    15    7    8 1    
    16    8    9 1    
    17    8  134 1    
    18    8  135 1    
    19    9   10 ar   
    20    9   14 ar   
    21   10   11 ar   
    22   10  136 1    
    23   11   12 ar   
    24   11  126 1    
    25   12   13 ar   
    26   12  137 1    
    27   13   14 ar   
    28   13   15 1    
    29   14  138 1    
    30   15   16 1    
    31   15  139 1    
    32   15  140 1    
    33   16   17 1    
    34   17   18 1    
    35   17  141 1    
    36   17  142 1    
    37   18   19 1    
    38   18   67 1    
    39   18  143 1    
    40   19   20 am   BACKBONE|DICT|INTERRES
    41   19  144 1    
    42   20   21 2    
    43   20   22 1    
    44   22   23 1    
    45   22   24 1    
    46   22  145 1    
    47   23  146 1    
    48   23  147 1    
    49   23  148 1    
    50   24   25 am   BACKBONE|DICT|INTERRES
    51   24  149 1    
    52   25   26 2    
    53   25   27 1    
    54   27   28 1    
    55   27   29 1    
    56   27  150 1    
    57   28  151 1    
    58   28  152 1    
    59   28  153 1    
    60   29   30 am   BACKBONE|DICT|INTERRES
    61   29  154 1    
    62   30   31 2    
    63   30   32 1    
    64   32   33 1    
    65   32   34 1    
    66   32  155 1    
    67   33  156 1    
    68   33  157 1    
    69   33  158 1    
    70   34   35 am   BACKBONE|DICT|INTERRES
    71   34  159 1    
    72   35   36 2    
    73   35   37 1    
    74   37   38 1    
    75   37   39 1    
    76   37  160 1    
    77   38  161 1    
    78   38  162 1    
    79   38  163 1    
    80   39   40 am   BACKBONE|DICT|INTERRES
    81   39  164 1    
    82   40   41 2    
    83   40   42 1    
    84   42   43 1    
    85   42   44 1    
    86   42  165 1    
    87   43  166 1    
    88   43  167 1    
    89   43  168 1    
    90   44   45 am   BACKBONE|DICT|INTERRES
    91   44  169 1    
    92   45   46 2    
    93   45   47 1    
    94   47   48 1    
    95   47   49 1    
    96   47  170 1    
    97   48  171 1    
    98   48  172 1    
    99   48  173 1    
   100   49   50 am   BACKBONE|DICT|INTERRES
   101   49  174 1    
   102   50   51 2    
   103   50   52 1    
   104   52   53 1    
   105   52   54 1    
   106   52  175 1    
   107   53  176 1    
   108   53  177 1    
   109   53  178 1    
   110   54   55 am   BACKBONE|DICT|INTERRES
   111   54  179 1    
   112   55   56 2    
   113   55   57 1    
   114   57   58 1    
   115   57   59 1    
   116   57  180 1    
   117   58  181 1    
   118   58  182 1    
   119   58  183 1    
   120   59   60 am   BACKBONE|DICT|INTERRES
   121   59  184 1    
   122   60   61 2    
   123   60   62 1    
   124   62   63 1    
   125   62   64 1    
   126   62  185 1    
   127   63  186 1    
   128   63  187 1    
   129   63  188 1    
   130   64   65 am   BACKBONE|DICT|INTERRES
   131   64  189 1    
   132   65   66 2    
   133   67   68 2    
   134   67   69 am   BACKBONE|DICT|INTERRES
   135   69   70 1    
   136   69  190 1    
   137   70   71 1    
   138   70   72 1    
   139   70  191 1    
   140   71  192 1    
   141   71  193 1    
   142   71  194 1    
   143   72   73 2    
   144   72   74 am   BACKBONE|DICT|INTERRES
   145   74   75 1    
   146   74  195 1    
   147   75   76 1    
   148   75   77 1    
   149   75  196 1    
   150   76  197 1    
   151   76  198 1    
   152   76  199 1    
   153   77   78 2    
   154   77   79 am   BACKBONE|DICT|INTERRES
   155   79   80 1    
   156   79  200 1    
   157   80   81 1    
   158   80   82 1    
   159   80  201 1    
   160   81  202 1    
   161   81  203 1    
   162   81  204 1    
   163   82   83 2    
   164   82   84 am   BACKBONE|DICT|INTERRES
   165   84   85 1    
   166   84  205 1    
   167   85   86 1    
   168   85   87 1    
   169   85  206 1    
   170   86  207 1    
   171   86  208 1    
   172   86  209 1    
   173   87   88 2    
   174   87   89 am   BACKBONE|DICT|INTERRES
   175   89   90 1    
   176   89  210 1    
   177   90   91 1    
   178   90   92 1    
   179   90  211 1    
   180   91  212 1    
   181   91  213 1    
   182   91  214 1    
   183   92   93 2    
   184   92   94 am   BACKBONE|DICT|INTERRES
   185   94   95 1    
   186   94  215 1    
   187   95   96 1    
   188   95   97 1    
   189   95  216 1    
   190   96  217 1    
   191   96  218 1    
   192   96  219 1    
   193   97   98 2    
   194   97   99 am   BACKBONE|DICT|INTERRES
   195   99  100 1    
   196   99  220 1    
   197  100  101 1    
   198  100  102 1    
   199  100  221 1    
   200  101  222 1    
   201  101  223 1    
   202  101  224 1    
   203  102  103 2    
   204  102  104 am   BACKBONE|DICT|INTERRES
   205  104  105 1    
   206  104  225 1    
   207  105  106 1    
   208  105  107 1    
   209  105  226 1    
   210  106  227 1    
   211  106  228 1    
   212  106  229 1    
   213  107  108 2    
   214  107  109 am   BACKBONE|DICT|INTERRES
   215  109  110 1    
   216  109  230 1    
   217  110  111 1    
   218  110  112 1    
   219  110  231 1    
   220  111  232 1    
   221  111  233 1    
   222  111  234 1    
   223  112  113 2    
   224  112  114 am   BACKBONE|DICT|INTERRES
   225  114  115 1    
   226  114  235 1    
   227  115  116 1    
   228  115  117 1    
   229  115  236 1    
   230  116  237 1    
   231  116  238 1    
   232  116  239 1    
   233  117  118 2    
   234  117  119 am   BACKBONE|DICT|INTERRES
   235  119  120 1    
   236  119  240 1    
   237  120  121 1    
   238  120  124 1    
   239  120  241 1    
   240  121  122 am   BACKBONE|DICT|INTERRES
   241  121  123 2    
   242  122  242 1    
   243  122  243 1    
   244  124  125 1    
   245  124  244 1    
   246  124  245 1    
   247  125  126 1    
   248  126  246 1    
   249  126  247 1    
@<TRIPOS>SUBSTRUCTURE
     1 UNK         1 GROUP             0       ****    0 ROOT    
