@<TRIPOS>MOLECULE
3R540
247   249    1
SMALL
USER_CHARGES


@<TRIPOS>ATOM
      1 CA          4.1961  -13.9318  -45.1472 C.3       0 UNK        -0.1800 
      2 C           2.9011  -13.6179  -45.8808 C.2       0 UNK         0.5000 
      3 O           2.0095  -12.9916  -45.3035 O.2       0 UNK        -0.5000 
      4 N           2.8003  -14.0342  -47.1522 N.am      1 UNK        -0.5000 
      5 CA          1.6372  -13.8828  -48.0412 C.3       1 UNK         0.1400 
      6 C6          1.6797  -14.9135  -49.1993 C.3       23 UNK        -0.0398 
      7 S7          0.0110  -15.3746  -49.7804 S.3       23 UNK        -0.2404 
      8 C8         -0.3169  -16.8835  -48.8171 C.3       23 UNK        -0.0205 
      9 C9          0.5143  -18.0654  -49.2926 C.ar      23 UNK        -0.0193 
     10 C10         0.1214  -18.7859  -50.4235 C.ar      23 UNK        -0.1150 
     11 C11         0.8539  -19.8987  -50.8450 C.ar      23 UNK        -0.0193 
     12 C12         1.9933  -20.2840  -50.1327 C.ar      23 UNK        -0.1150 
     13 C13         2.3944  -19.5750  -48.9965 C.ar      23 UNK        -0.0193 
     14 C14         1.6524  -18.4642  -48.5848 C.ar      23 UNK        -0.1150 
     15 C15         3.6104  -20.0241  -48.1990 C.3       23 UNK        -0.0205 
     16 S16         3.2835  -21.5915  -47.3367 S.3       23 UNK        -0.2404 
     17 C17         4.7423  -21.7335  -46.2523 C.3       23 UNK        -0.0398 
     18 CA          4.5216  -22.6256  -45.0033 C.3       11 UNK         0.1400 
     19 N           3.5581  -22.0435  -44.0571 N.am      11 UNK        -0.5000 
     20 C           3.5385  -22.3149  -42.7431 C.2       10 UNK         0.5000 
     21 O           4.3748  -23.0225  -42.1807 O.2       10 UNK        -0.5000 
     22 CA          2.3713  -21.7362  -41.9235 C.3       10 UNK         0.1400 
     23 CB          2.6346  -20.2695  -41.5490 C.3       10 UNK        -0.1800 
     24 N           1.0866  -21.8512  -42.6162 N.am      10 UNK        -0.5000 
     25 C           0.4261  -23.0017  -42.8154 C.2       9 UNK         0.5000 
     26 O           0.8380  -24.0989  -42.4409 O.2       9 UNK        -0.5000 
     27 CA         -0.9061  -22.9206  -43.5821 C.3       9 UNK         0.1400 
     28 CB         -2.0825  -22.7135  -42.6169 C.3       9 UNK        -0.1800 
     29 N          -0.8931  -21.8457  -44.5721 N.am      9 UNK        -0.5000 
     30 C          -0.3128  -21.9545  -45.7751 C.2       8 UNK         0.5000 
     31 O           0.1829  -22.9998  -46.1955 O.2       8 UNK        -0.5000 
     32 CA         -0.2673  -20.6882  -46.6498 C.3       8 UNK         0.1400 
     33 CB         -1.5076  -20.6207  -47.5460 C.3       8 UNK        -0.1800 
     34 N          -0.1615  -19.4454  -45.8821 N.am      8 UNK        -0.5000 
     35 C           0.8467  -19.1331  -45.0514 C.2       7 UNK         0.5000 
     36 O           1.8451  -19.8346  -44.8980 O.2       7 UNK        -0.5000 
     37 CA          0.6924  -17.8633  -44.1874 C.3       7 UNK         0.1400 
     38 CB          1.4728  -16.6928  -44.8009 C.3       7 UNK        -0.1800 
     39 N          -0.6971  -17.4551  -43.9744 N.am      7 UNK        -0.5000 
     40 C          -1.6622  -18.2230  -43.4442 C.2       6 UNK         0.5000 
     41 O          -1.4527  -19.3400  -42.9692 O.2       6 UNK        -0.5000 
     42 CA         -3.1099  -17.6955  -43.5153 C.3       6 UNK         0.1400 
     43 CB         -3.5701  -17.2145  -42.1311 C.3       6 UNK        -0.1800 
     44 N          -3.3200  -16.6145  -44.4837 N.am      6 UNK        -0.5000 
     45 C          -3.0771  -16.6571  -45.8038 C.2       5 UNK         0.5000 
     46 O          -2.6484  -17.6523  -46.3874 O.2       5 UNK        -0.5000 
     47 CA         -3.2867  -15.3419  -46.5836 C.3       5 UNK         0.1400 
     48 CB         -4.6547  -15.3353  -47.2817 C.3       5 UNK        -0.1800 
     49 N          -3.1791  -14.1545  -45.7273 N.am      5 UNK        -0.5000 
     50 C          -2.0414  -13.7360  -45.1577 C.2       4 UNK         0.5000 
     51 O          -0.9448  -14.2631  -45.3539 O.2       4 UNK        -0.5000 
     52 CA         -2.1671  -12.5921  -44.1452 C.3       4 UNK         0.1400 
     53 CB         -2.4421  -13.1572  -42.7381 C.3       4 UNK        -0.1800 
     54 N          -0.9350  -11.8119  -44.1469 N.am      4 UNK        -0.5000 
     55 C          -0.8061  -10.5718  -43.6567 C.2       3 UNK         0.5000 
     56 O          -1.7145   -9.9565  -43.0969 O.2       3 UNK        -0.5000 
     57 CA          0.5578   -9.8882  -43.8589 C.3       3 UNK         0.1400 
     58 CB          1.5769  -10.3822  -42.8202 C.3       3 UNK        -0.1800 
     59 N           1.0783  -10.1299  -45.2030 N.am      3 UNK        -0.5000 
     60 C           0.6081   -9.5439  -46.3169 C.2       2 UNK         0.5000 
     61 O          -0.2316   -8.6435  -46.3141 O.2       2 UNK        -0.5000 
     62 CA          1.1292  -10.0840  -47.6573 C.3       2 UNK         0.1400 
     63 CB          2.4328   -9.3792  -48.0722 C.3       2 UNK        -0.1800 
     64 N           1.3334  -11.5222  -47.5437 N.am      2 UNK        -0.5000 
     65 C           1.4452  -12.4210  -48.5195 C.2       1 UNK         0.5000 
     66 O           1.4221  -12.1338  -49.7175 O.2       1 UNK        -0.5000 
     67 C           4.1757  -24.0866  -45.3826 C.2       11 UNK         0.5000 
     68 O           5.0153  -24.7669  -45.9741 O.2       11 UNK        -0.5000 
     69 N           2.9586  -24.5323  -45.0327 N.am      12 UNK        -0.5000 
     70 CA          2.3650  -25.8428  -45.3045 C.3       12 UNK         0.1400 
     71 CB          3.1391  -26.9647  -44.5809 C.3       12 UNK        -0.1800 
     72 C           2.1758  -26.0958  -46.8135 C.2       12 UNK         0.5000 
     73 O           2.5784  -27.1417  -47.3282 O.2       12 UNK        -0.5000 
     74 N           1.5568  -25.1204  -47.4894 N.am      13 UNK        -0.5000 
     75 CA          1.1099  -25.2066  -48.8766 C.3       13 UNK         0.1400 
     76 CB          1.2658  -23.8225  -49.5360 C.3       13 UNK        -0.1800 
     77 C          -0.3294  -25.7651  -48.9268 C.2       13 UNK         0.5000 
     78 O          -0.6597  -26.6773  -48.1652 O.2       13 UNK        -0.5000 
     79 N          -1.1707  -25.2284  -49.8219 N.am      14 UNK        -0.5000 
     80 CA         -2.5611  -25.6579  -50.0049 C.3       14 UNK         0.1400 
     81 CB         -3.0774  -25.1245  -51.3472 C.3       14 UNK        -0.1800 
     82 C          -3.5013  -25.2262  -48.8615 C.2       14 UNK         0.5000 
     83 O          -4.5616  -25.8314  -48.6986 O.2       14 UNK        -0.5000 
     84 N          -3.1018  -24.1916  -48.1064 N.am      15 UNK        -0.5000 
     85 CA         -3.7678  -23.5854  -46.9476 C.3       15 UNK         0.1400 
     86 CB         -3.8938  -24.5856  -45.7821 C.3       15 UNK        -0.1800 
     87 C          -5.1127  -22.9094  -47.2774 C.2       15 UNK         0.5000 
     88 O          -5.2252  -21.6908  -47.1533 O.2       15 UNK        -0.5000 
     89 N          -6.1068  -23.7027  -47.6914 N.am      16 UNK        -0.5000 
     90 CA         -7.4668  -23.2550  -47.9961 C.3       16 UNK         0.1400 
     91 CB         -8.4014  -24.4738  -48.0102 C.3       16 UNK        -0.1800 
     92 C          -7.5675  -22.4853  -49.3253 C.2       16 UNK         0.5000 
     93 O          -8.4038  -21.5903  -49.4474 O.2       16 UNK        -0.5000 
     94 N          -6.7093  -22.8356  -50.2925 N.am      17 UNK        -0.5000 
     95 CA         -6.6799  -22.2552  -51.6380 C.3       17 UNK         0.1400 
     96 CB         -6.2756  -23.3429  -52.6466 C.3       17 UNK        -0.1800 
     97 C          -5.7700  -21.0152  -51.7469 C.2       17 UNK         0.5000 
     98 O          -5.4456  -20.6038  -52.8610 O.2       17 UNK        -0.5000 
     99 N          -5.3707  -20.4242  -50.6117 N.am      18 UNK        -0.5000 
    100 CA        -4.5005  -19.2458  -50.5239 C.3       18 UNK         0.1400 
    101 CB        -4.3031  -18.8883  -49.0480 C.3       18 UNK        -0.1800 
    102 C         -5.0270  -18.0179  -51.2919 C.2       18 UNK         0.5000 
    103 O         -4.2373  -17.2879  -51.8901 O.2       18 UNK        -0.5000 
    104 N         -6.3571  -17.8500  -51.3120 N.am      19 UNK        -0.5000 
    105 CA        -7.0670  -16.8131  -52.0671 C.3       19 UNK         0.1400 
    106 CB        -8.5372  -16.7976  -51.6218 C.3       19 UNK        -0.1800 
    107 C         -6.9689  -16.9823  -53.5987 C.2       19 UNK         0.5000 
    108 O         -7.1489  -16.0058  -54.3265 O.2       19 UNK        -0.5000 
    109 N         -6.6670  -18.2045  -54.0552 N.am      20 UNK        -0.5000 
    110 CA        -6.4127  -18.5651  -55.4494 C.3       20 UNK         0.1400 
    111 CB        -7.2275  -19.8283  -55.7816 C.3       20 UNK        -0.1800 
    112 C         -4.9052  -18.7806  -55.7015 C.2       20 UNK         0.5000 
    113 O         -4.5419  -19.4421  -56.6759 O.2       20 UNK        -0.5000 
    114 N         -4.0518  -18.2554  -54.8057 N.am      21 UNK        -0.5000 
    115 CA        -2.5873  -18.3519  -54.8048 C.3       21 UNK         0.1400 
    116 CB        -1.9916  -17.5262  -55.9637 C.3       21 UNK        -0.1800 
    117 C         -2.0737  -19.8074  -54.7760 C.2       21 UNK         0.5000 
    118 O         -1.0431  -20.1104  -55.3793 O.2       21 UNK        -0.5000 
    119 N         -2.8173  -20.6798  -54.0829 N.am      22 UNK        -0.5000 
    120 CA        -2.6068  -22.1331  -53.9862 C.3       22 UNK         0.1400 
    121 C         -2.9155  -22.9161  -55.2996 C.2       22 UNK         0.5000 
    122 N         -3.5365  -22.3163  -56.3099 N.am      22 UNK        -0.7600 
    123 O         -2.6181  -24.1034  -55.3971 O.2       22 UNK        -0.5000 
    124 C124       -1.2423  -22.5336  -53.3545 C.3       23 UNK        -0.0398 
    125 S125       -0.9691  -21.7977  -51.7039 S.3       23 UNK        -0.2404 
    126 C126        0.4160  -20.6761  -52.0739 C.3       23 UNK        -0.0205 
    127 H127        4.8929  -14.4894  -45.7732 H         1 UNK         0.0600 
    128 H128        3.9856  -14.5267  -44.2585 H         1 UNK         0.0600 
    129 H129        4.6819  -13.0080  -44.8334 H         1 UNK         0.0600 
    130 H130        3.5965  -14.4958  -47.5676 H         1 UNK         0.3000 
    131 H131        0.7626  -14.1182  -47.4309 H         1 UNK         0.0600 
    132 H132        2.2657  -14.5489  -50.0446 H         1 UNK         0.0800 
    133 H133        2.1918  -15.8182  -48.8769 H         1 UNK         0.0800 
    134 H134       -0.1477  -16.6887  -47.7578 H         1 UNK         0.0800 
    135 H135       -1.3745  -17.1319  -48.9094 H         1 UNK         0.0800 
    136 H136       -0.7628  -18.4875  -50.9694 H         1 UNK         0.1150 
    137 H137        2.5607  -21.1474  -50.4498 H         1 UNK         0.1150 
    138 H138        1.9497  -17.9222  -47.6987 H         1 UNK         0.1150 
    139 H139        4.4641  -20.1463  -48.8667 H         1 UNK         0.0800 
    140 H140        3.8870  -19.2620  -47.4689 H         1 UNK         0.0800 
    141 H141        5.5730  -22.1161  -46.8476 H         1 UNK         0.0800 
    142 H142        5.0427  -20.7357  -45.9299 H         1 UNK         0.0800 
    143 H143        5.4865  -22.6749  -44.4939 H         1 UNK         0.0600 
    144 H144        2.8691  -21.4028  -44.4455 H         1 UNK         0.3000 
    145 H145        2.3005  -22.3083  -40.9958 H         1 UNK         0.0600 
    146 H146        1.8017  -19.8471  -40.9866 H         1 UNK         0.0600 
    147 H147        2.7989  -19.6476  -42.4284 H         1 UNK         0.0600 
    148 H148        3.5246  -20.1855  -40.9244 H         1 UNK         0.0600 
    149 H149        0.6891  -20.9985  -42.9822 H         1 UNK         0.3000 
    150 H150       -1.0573  -23.8739  -44.0932 H         1 UNK         0.0600 
    151 H151       -2.1558  -23.5420  -41.9116 H         1 UNK         0.0600 
    152 H152       -3.0293  -22.6585  -43.1542 H         1 UNK         0.0600 
    153 H153       -1.9734  -21.7980  -42.0349 H         1 UNK         0.0600 
    154 H154       -1.2479  -20.9455  -44.2689 H         1 UNK         0.3000 
    155 H155        0.6043  -20.7657  -47.2942 H         1 UNK         0.0600 
    156 H156       -1.4742  -19.7522  -48.2014 H         1 UNK         0.0600 
    157 H157       -1.5833  -21.5013  -48.1843 H         1 UNK         0.0600 
    158 H158       -2.4189  -20.5511  -46.9515 H         1 UNK         0.0600 
    159 H159       -0.9484  -18.8093  -45.9545 H         1 UNK         0.3000 
    160 H160        1.1198  -18.0824  -43.2077 H         1 UNK         0.0600 
    161 H161        1.0555  -16.3867  -45.7600 H         1 UNK         0.0600 
    162 H162        2.5178  -16.9588  -44.9656 H         1 UNK         0.0600 
    163 H163        1.4581  -15.8238  -44.1427 H         1 UNK         0.0600 
    164 H164       -0.9572  -16.5529  -44.3493 H         1 UNK         0.3000 
    165 H165       -3.7410  -18.5333  -43.8181 H         1 UNK         0.0600 
    166 H166       -4.6209  -16.9244  -42.1421 H         1 UNK         0.0600 
    167 H167       -3.4613  -18.0039  -41.3860 H         1 UNK         0.0600 
    168 H168       -2.9875  -16.3580  -41.7893 H         1 UNK         0.0600 
    169 H169       -3.6678  -15.7470  -44.1052 H         1 UNK         0.3000 
    170 H170       -2.5101  -15.2840  -47.3493 H         1 UNK         0.0600 
    171 H171       -4.7524  -16.1812  -47.9616 H         1 UNK         0.0600 
    172 H172       -5.4743  -15.3944  -46.5646 H         1 UNK         0.0600 
    173 H173       -4.7904  -14.4304  -47.8743 H         1 UNK         0.0600 
    174 H174       -4.0410  -13.6690  -45.5220 H         1 UNK         0.3000 
    175 H175       -2.9939  -11.9469  -44.4495 H         1 UNK         0.0600 
    176 H176       -1.6273  -13.7982  -42.3986 H         1 UNK         0.0600 
    177 H177       -2.5678  -12.3614  -42.0041 H         1 UNK         0.0600 
    178 H178       -3.3563  -13.7514  -42.7240 H         1 UNK         0.0600 
    179 H179       -0.1444  -12.2711  -44.5865 H         1 UNK         0.3000 
    180 H180        0.4242   -8.8130  -43.7212 H         1 UNK         0.0600 
    181 H181        1.2185  -10.2003  -41.8062 H         1 UNK         0.0600 
    182 H182        2.5298   -9.8635  -42.9261 H         1 UNK         0.0600 
    183 H183        1.7656  -11.4524  -42.9148 H         1 UNK         0.0600 
    184 H184        1.7737  -10.8605  -45.2762 H         1 UNK         0.3000 
    185 H185        0.3646   -9.8984  -48.4144 H         1 UNK         0.0600 
    186 H186        2.2918   -8.2990  -48.1253 H         1 UNK         0.0600 
    187 H187        3.2373   -9.5726  -47.3616 H         1 UNK         0.0600 
    188 H188        2.7680   -9.7102  -49.0551 H         1 UNK         0.0600 
    189 H189        1.3761  -11.8959  -46.5993 H         1 UNK         0.3000 
    190 H190        2.3528  -23.8754  -44.5626 H         1 UNK         0.3000 
    191 H191        1.3621  -25.8132  -44.8756 H         1 UNK         0.0600 
    192 H192        2.6228  -27.9199  -44.6820 H         1 UNK         0.0600 
    193 H193        3.2281  -26.7555  -43.5148 H         1 UNK         0.0600 
    194 H194        4.1441  -27.0939  -44.9831 H         1 UNK         0.0600 
    195 H195        1.2160  -24.3125  -46.9715 H         1 UNK         0.3000 
    196 H196        1.7436  -25.9071  -49.4237 H         1 UNK         0.0600 
    197 H197        0.6249  -23.0719  -49.0710 H         1 UNK         0.0600 
    198 H198        2.2944  -23.4724  -49.4547 H         1 UNK         0.0600 
    199 H199        1.0340  -23.8562  -50.6007 H         1 UNK         0.0600 
    200 H200       -0.8410  -24.4814  -50.4165 H         1 UNK         0.3000 
    201 H201       -2.5791  -26.7491  -50.0468 H         1 UNK         0.0600 
    202 H202       -4.0833  -25.4954  -51.5468 H         1 UNK         0.0600 
    203 H203       -2.4464  -25.4513  -52.1737 H         1 UNK         0.0600 
    204 H204       -3.1149  -24.0351  -51.3565 H         1 UNK         0.0600 
    205 H205       -2.2161  -23.7759  -48.3542 H         1 UNK         0.3000 
    206 H206       -3.1031  -22.7951  -46.6023 H         1 UNK         0.0600 
    207 H207       -2.9168  -24.9747  -45.4953 H         1 UNK         0.0600 
    208 H208       -4.3231  -24.1050  -44.9023 H         1 UNK         0.0600 
    209 H209       -4.5296  -25.4352  -46.0314 H         1 UNK         0.0600 
    210 H210       -5.8910  -24.6835  -47.8442 H         1 UNK         0.3000 
    211 H211       -7.7946  -22.5837  -47.1994 H         1 UNK         0.0600 
    212 H212       -8.1091  -25.1965  -48.7732 H         1 UNK         0.0600 
    213 H213       -9.4305  -24.1758  -48.2158 H         1 UNK         0.0600 
    214 H214       -8.3981  -24.9838  -47.0466 H         1 UNK         0.0600 
    215 H215       -6.0443  -23.5695  -50.0972 H         1 UNK         0.3000 
    216 H216       -7.6850  -21.9238  -51.9065 H         1 UNK         0.0600 
    217 H217       -6.9357  -24.2079  -52.5805 H         1 UNK         0.0600 
    218 H218       -5.2566  -23.6852  -52.4817 H         1 UNK         0.0600 
    219 H219       -6.3331  -22.9727  -53.6713 H         1 UNK         0.0600 
    220 H220       -5.6783  -20.8208  -49.7350 H         1 UNK         0.3000 
    221 H221       -3.5319  -19.5190  -50.9485 H         1 UNK         0.0600 
    222 H222       -3.5748  -18.0855  -48.9362 H         1 UNK         0.0600 
    223 H223       -5.2332  -18.5639  -48.5799 H         1 UNK         0.0600 
    224 H224       -3.9363  -19.7427  -48.4853 H         1 UNK         0.0600 
    225 H225       -6.9283  -18.5055  -50.7985 H         1 UNK         0.3000 
    226 H226       -6.6216  -15.8483  -51.8158 H         1 UNK         0.0600 
    227 H227       -8.6241  -16.6010  -50.5531 H         1 UNK         0.0600 
    228 H228       -9.0951  -16.0168  -52.1406 H         1 UNK         0.0600 
    229 H229       -9.0305  -17.7478  -51.8308 H         1 UNK         0.0600 
    230 H230       -6.4812  -18.9431  -53.3859 H         1 UNK         0.3000 
    231 H231       -6.7386  -17.7646  -56.1161 H         1 UNK         0.0600 
    232 H232       -7.1329  -20.0925  -56.8355 H         1 UNK         0.0600 
    233 H233       -8.2883  -19.6764  -55.5818 H         1 UNK         0.0600 
    234 H234       -6.8959  -20.6870  -55.1967 H         1 UNK         0.0600 
    235 H235       -4.4437  -17.7648  -54.0111 H         1 UNK         0.3000 
    236 H236       -2.2527  -17.8980  -53.8708 H         1 UNK         0.0600 
    237 H237       -2.2385  -17.9557  -56.9351 H         1 UNK         0.0600 
    238 H238       -2.3601  -16.5006  -55.9466 H         1 UNK         0.0600 
    239 H239       -0.9043  -17.4796  -55.8932 H         1 UNK         0.0600 
    240 H240       -3.6819  -20.3544  -53.6623 H         1 UNK         0.3000 
    241 H241       -3.3766  -22.4717  -53.2948 H         1 UNK         0.0600 
    242 H242       -3.7368  -22.8433  -57.1448 H         1 UNK         0.3800 
    243 H243       -3.7908  -21.3362  -56.2674 H         1 UNK         0.3800 
    244 H244       -0.4200  -22.2749  -54.0223 H         1 UNK         0.0800 
    245 H245       -1.1858  -23.6156  -53.2317 H         1 UNK         0.0800 
    246 H246        0.1250  -19.9755  -52.8562 H         1 UNK         0.0800 
    247 H247        1.2509  -21.2543  -52.4727 H         1 UNK         0.0800 
@<TRIPOS>BOND
     1    1    2 1    
     2    1  127 1    
     3    1  128 1    
     4    1  129 1    
     5    2    3 2    
     6    2    4 am   BACKBONE|DICT|INTERRES
     7    4    5 1    
     8    4  130 1    
     9    5    6 1    
    10    5   65 1    
    11    5  131 1    
    12    6    7 1    
    13    6  132 1    
    14    6  133 1    
    15    7    8 1    
    16    8    9 1    
    17    8  134 1    
    18    8  135 1    
    19    9   10 ar   
    20    9   14 ar   
    21   10   11 ar   
    22   10  136 1    
    23   11   12 ar   
    24   11  126 1    
    25   12   13 ar   
    26   12  137 1    
    27   13   14 ar   
    28   13   15 1    
    29   14  138 1    
    30   15   16 1    
    31   15  139 1    
    32   15  140 1    
    33   16   17 1    
    34   17   18 1    
    35   17  141 1    
    36   17  142 1    
    37   18   19 1    
    38   18   67 1    
    39   18  143 1    
    40   19   20 am   BACKBONE|DICT|INTERRES
    41   19  144 1    
    42   20   21 2    
    43   20   22 1    
    44   22   23 1    
    45   22   24 1    
    46   22  145 1    
    47   23  146 1    
    48   23  147 1    
    49   23  148 1    
    50   24   25 am   BACKBONE|DICT|INTERRES
    51   24  149 1    
    52   25   26 2    
    53   25   27 1    
    54   27   28 1    
    55   27   29 1    
    56   27  150 1    
    57   28  151 1    
    58   28  152 1    
    59   28  153 1    
    60   29   30 am   BACKBONE|DICT|INTERRES
    61   29  154 1    
    62   30   31 2    
    63   30   32 1    
    64   32   33 1    
    65   32   34 1    
    66   32  155 1    
    67   33  156 1    
    68   33  157 1    
    69   33  158 1    
    70   34   35 am   BACKBONE|DICT|INTERRES
    71   34  159 1    
    72   35   36 2    
    73   35   37 1    
    74   37   38 1    
    75   37   39 1    
    76   37  160 1    
    77   38  161 1    
    78   38  162 1    
    79   38  163 1    
    80   39   40 am   BACKBONE|DICT|INTERRES
    81   39  164 1    
    82   40   41 2    
    83   40   42 1    
    84   42   43 1    
    85   42   44 1    
    86   42  165 1    
    87   43  166 1    
    88   43  167 1    
    89   43  168 1    
    90   44   45 am   BACKBONE|DICT|INTERRES
    91   44  169 1    
    92   45   46 2    
    93   45   47 1    
    94   47   48 1    
    95   47   49 1    
    96   47  170 1    
    97   48  171 1    
    98   48  172 1    
    99   48  173 1    
   100   49   50 am   BACKBONE|DICT|INTERRES
   101   49  174 1    
   102   50   51 2    
   103   50   52 1    
   104   52   53 1    
   105   52   54 1    
   106   52  175 1    
   107   53  176 1    
   108   53  177 1    
   109   53  178 1    
   110   54   55 am   BACKBONE|DICT|INTERRES
   111   54  179 1    
   112   55   56 2    
   113   55   57 1    
   114   57   58 1    
   115   57   59 1    
   116   57  180 1    
   117   58  181 1    
   118   58  182 1    
   119   58  183 1    
   120   59   60 am   BACKBONE|DICT|INTERRES
   121   59  184 1    
   122   60   61 2    
   123   60   62 1    
   124   62   63 1    
   125   62   64 1    
   126   62  185 1    
   127   63  186 1    
   128   63  187 1    
   129   63  188 1    
   130   64   65 am   BACKBONE|DICT|INTERRES
   131   64  189 1    
   132   65   66 2    
   133   67   68 2    
   134   67   69 am   BACKBONE|DICT|INTERRES
   135   69   70 1    
   136   69  190 1    
   137   70   71 1    
   138   70   72 1    
   139   70  191 1    
   140   71  192 1    
   141   71  193 1    
   142   71  194 1    
   143   72   73 2    
   144   72   74 am   BACKBONE|DICT|INTERRES
   145   74   75 1    
   146   74  195 1    
   147   75   76 1    
   148   75   77 1    
   149   75  196 1    
   150   76  197 1    
   151   76  198 1    
   152   76  199 1    
   153   77   78 2    
   154   77   79 am   BACKBONE|DICT|INTERRES
   155   79   80 1    
   156   79  200 1    
   157   80   81 1    
   158   80   82 1    
   159   80  201 1    
   160   81  202 1    
   161   81  203 1    
   162   81  204 1    
   163   82   83 2    
   164   82   84 am   BACKBONE|DICT|INTERRES
   165   84   85 1    
   166   84  205 1    
   167   85   86 1    
   168   85   87 1    
   169   85  206 1    
   170   86  207 1    
   171   86  208 1    
   172   86  209 1    
   173   87   88 2    
   174   87   89 am   BACKBONE|DICT|INTERRES
   175   89   90 1    
   176   89  210 1    
   177   90   91 1    
   178   90   92 1    
   179   90  211 1    
   180   91  212 1    
   181   91  213 1    
   182   91  214 1    
   183   92   93 2    
   184   92   94 am   BACKBONE|DICT|INTERRES
   185   94   95 1    
   186   94  215 1    
   187   95   96 1    
   188   95   97 1    
   189   95  216 1    
   190   96  217 1    
   191   96  218 1    
   192   96  219 1    
   193   97   98 2    
   194   97   99 am   BACKBONE|DICT|INTERRES
   195   99  100 1    
   196   99  220 1    
   197  100  101 1    
   198  100  102 1    
   199  100  221 1    
   200  101  222 1    
   201  101  223 1    
   202  101  224 1    
   203  102  103 2    
   204  102  104 am   BACKBONE|DICT|INTERRES
   205  104  105 1    
   206  104  225 1    
   207  105  106 1    
   208  105  107 1    
   209  105  226 1    
   210  106  227 1    
   211  106  228 1    
   212  106  229 1    
   213  107  108 2    
   214  107  109 am   BACKBONE|DICT|INTERRES
   215  109  110 1    
   216  109  230 1    
   217  110  111 1    
   218  110  112 1    
   219  110  231 1    
   220  111  232 1    
   221  111  233 1    
   222  111  234 1    
   223  112  113 2    
   224  112  114 am   BACKBONE|DICT|INTERRES
   225  114  115 1    
   226  114  235 1    
   227  115  116 1    
   228  115  117 1    
   229  115  236 1    
   230  116  237 1    
   231  116  238 1    
   232  116  239 1    
   233  117  118 2    
   234  117  119 am   BACKBONE|DICT|INTERRES
   235  119  120 1    
   236  119  240 1    
   237  120  121 1    
   238  120  124 1    
   239  120  241 1    
   240  121  122 am   BACKBONE|DICT|INTERRES
   241  121  123 2    
   242  122  242 1    
   243  122  243 1    
   244  124  125 1    
   245  124  244 1    
   246  124  245 1    
   247  125  126 1    
   248  126  246 1    
   249  126  247 1    
@<TRIPOS>SUBSTRUCTURE
     1 UNK         1 GROUP             0       ****    0 ROOT    
