@<TRIPOS>MOLECULE
3R540
247   249    1
SMALL
USER_CHARGES


@<TRIPOS>ATOM
      1 CA          6.2072  -13.5899  -49.6297 C.3       0 UNK        -0.1800 
      2 C           5.0815  -13.8968  -50.6074 C.2       0 UNK         0.5000 
      3 O           4.8359  -13.1084  -51.5202 O.2       0 UNK        -0.5000 
      4 N           4.4026  -15.0359  -50.4128 N.am      1 UNK        -0.5000 
      5 CA          3.2873  -15.5402  -51.2300 C.3       1 UNK         0.1400 
      6 C6          3.6978  -15.9341  -52.6774 C.3       23 UNK        -0.0398 
      7 S7          4.9750  -17.2423  -52.6918 S.3       23 UNK        -0.2404 
      8 C8          3.9970  -18.7395  -53.0578 C.3       23 UNK        -0.0205 
      9 C9          2.8308  -18.9228  -52.0962 C.ar      23 UNK        -0.0193 
     10 C10         1.5160  -18.7995  -52.5565 C.ar      23 UNK        -0.1150 
     11 C11         0.4422  -18.9082  -51.6698 C.ar      23 UNK        -0.0193 
     12 C12         0.6905  -19.1532  -50.3177 C.ar      23 UNK        -0.1150 
     13 C13         1.9978  -19.2934  -49.8444 C.ar      23 UNK        -0.0193 
     14 C14         3.0652  -19.1823  -50.7418 C.ar      23 UNK        -0.1150 
     15 C15         2.2337  -19.5063  -48.3555 C.3       23 UNK        -0.0205 
     16 S16         3.3751  -20.8757  -47.9878 S.3       23 UNK        -0.2404 
     17 C17         2.9827  -21.1602  -46.2274 C.3       23 UNK        -0.0398 
     18 CA          2.2147  -22.4845  -46.0030 C.3       11 UNK         0.1400 
     19 N           2.3020  -22.9400  -44.6157 N.am      11 UNK        -0.5000 
     20 C           2.0028  -24.1829  -44.2116 C.2       10 UNK         0.5000 
     21 O           1.6730  -25.0911  -44.9751 O.2       10 UNK        -0.5000 
     22 CA          2.0138  -24.4211  -42.6910 C.3       10 UNK         0.1400 
     23 CB          3.4375  -24.7101  -42.1938 C.3       10 UNK        -0.1800 
     24 N           1.4620  -23.2814  -41.9541 N.am      10 UNK        -0.5000 
     25 C           0.1906  -22.8710  -42.0277 C.2       9 UNK         0.5000 
     26 O          -0.6630  -23.4476  -42.7012 O.2       9 UNK        -0.5000 
     27 CA         -0.1855  -21.5791  -41.2783 C.3       9 UNK         0.1400 
     28 CB         -0.3543  -21.8345  -39.7694 C.3       9 UNK        -0.1800 
     29 N           0.7084  -20.4420  -41.5407 N.am      9 UNK        -0.5000 
     30 C           1.9907  -20.2680  -41.1834 C.2       8 UNK         0.5000 
     31 O           2.6681  -21.1169  -40.6030 O.2       8 UNK        -0.5000 
     32 CA          2.6230  -18.9123  -41.5418 C.3       8 UNK         0.1400 
     33 CB          3.1664  -18.9362  -42.9793 C.3       8 UNK        -0.1800 
     34 N           1.6535  -17.8243  -41.4061 N.am      8 UNK        -0.5000 
     35 C           1.4256  -17.1454  -40.2724 C.2       7 UNK         0.5000 
     36 O           2.0830  -17.2951  -39.2418 O.2       7 UNK        -0.5000 
     37 CA          0.2573  -16.1368  -40.2824 C.3       7 UNK         0.1400 
     38 CB          0.7438  -14.7525  -40.7370 C.3       7 UNK        -0.1800 
     39 N          -0.8528  -16.5565  -41.1391 N.am      7 UNK        -0.5000 
     40 C          -1.6399  -17.6168  -40.9059 C.2       6 UNK         0.5000 
     41 O          -1.5910  -18.2881  -39.8758 O.2       6 UNK        -0.5000 
     42 CA         -2.6258  -18.0231  -42.0217 C.3       6 UNK         0.1400 
     43 CB         -4.0448  -17.5397  -41.6874 C.3       6 UNK        -0.1800 
     44 N          -2.2691  -17.5451  -43.3618 N.am      6 UNK        -0.5000 
     45 C          -1.1295  -17.8019  -44.0195 C.2       5 UNK         0.5000 
     46 O          -0.2212  -18.4874  -43.5465 O.2       5 UNK        -0.5000 
     47 CA         -0.9738  -17.2180  -45.4385 C.3       5 UNK         0.1400 
     48 CB         -0.9345  -18.3522  -46.4696 C.3       5 UNK        -0.1800 
     49 N          -2.0224  -16.2679  -45.8237 N.am      5 UNK        -0.5000 
     50 C          -2.1752  -15.0371  -45.3204 C.2       4 UNK         0.5000 
     51 O          -1.4492  -14.5723  -44.4396 O.2       4 UNK        -0.5000 
     52 CA         -3.3316  -14.2027  -45.9077 C.3       4 UNK         0.1400 
     53 CB         -3.4823  -12.8329  -45.2220 C.3       4 UNK        -0.1800 
     54 N          -3.1494  -13.9898  -47.3419 N.am      4 UNK        -0.5000 
     55 C          -3.4966  -14.8422  -48.3155 C.2       3 UNK         0.5000 
     56 O          -4.0462  -15.9274  -48.1182 O.2       3 UNK        -0.5000 
     57 CA         -3.1341  -14.4144  -49.7500 C.3       3 UNK         0.1400 
     58 CB         -4.2192  -13.4891  -50.3214 C.3       3 UNK        -0.1800 
     59 N          -1.8415  -13.7287  -49.8407 N.am      3 UNK        -0.5000 
     60 C          -0.6572  -14.2620  -49.5121 C.2       2 UNK         0.5000 
     61 O          -0.5100  -15.4019  -49.0654 O.2       2 UNK        -0.5000 
     62 CA          0.5620  -13.3348  -49.6582 C.3       2 UNK         0.1400 
     63 CB          0.7948  -12.5512  -48.3566 C.3       2 UNK        -0.1800 
     64 N           1.7645  -14.1027  -49.9669 N.am      2 UNK        -0.5000 
     65 C           2.0542  -14.6111  -51.1720 C.2       1 UNK         0.5000 
     66 O           1.4026  -14.3669  -52.1887 O.2       1 UNK        -0.5000 
     67 C           0.7478  -22.4069  -46.4799 C.2       11 UNK         0.5000 
     68 O           0.4765  -22.7494  -47.6278 O.2       11 UNK        -0.5000 
     69 N          -0.1829  -22.0201  -45.5909 N.am      12 UNK        -0.5000 
     70 CA         -1.6216  -22.0180  -45.8761 C.3       12 UNK         0.1400 
     71 CB         -2.4036  -21.3386  -44.7424 C.3       12 UNK        -0.1800 
     72 C          -2.1624  -23.4347  -46.1179 C.2       12 UNK         0.5000 
     73 O          -2.9262  -23.6325  -47.0595 O.2       12 UNK        -0.5000 
     74 N          -1.7270  -24.3997  -45.2964 N.am      13 UNK        -0.5000 
     75 CA         -2.0498  -25.8184  -45.4509 C.3       13 UNK         0.1400 
     76 CB         -1.5093  -26.6060  -44.2480 C.3       13 UNK        -0.1800 
     77 C          -1.5285  -26.3990  -46.7795 C.2       13 UNK         0.5000 
     78 O          -2.2726  -27.0982  -47.4683 O.2       13 UNK        -0.5000 
     79 N          -0.2830  -26.0556  -47.1393 N.am      14 UNK        -0.5000 
     80 CA          0.3486  -26.4285  -48.4074 C.3       14 UNK         0.1400 
     81 CB          1.8374  -26.0526  -48.3644 C.3       14 UNK        -0.1800 
     82 C          -0.3382  -25.7972  -49.6356 C.2       14 UNK         0.5000 
     83 O          -0.4993  -26.4688  -50.6548 O.2       14 UNK        -0.5000 
     84 N          -0.7524  -24.5303  -49.5079 N.am      15 UNK        -0.5000 
     85 CA         -1.4292  -23.7455  -50.5423 C.3       15 UNK         0.1400 
     86 CB         -1.1051  -22.2591  -50.3226 C.3       15 UNK        -0.1800 
     87 C          -2.9547  -23.9721  -50.6056 C.2       15 UNK         0.5000 
     88 O          -3.6318  -23.2373  -51.3252 O.2       15 UNK        -0.5000 
     89 N          -3.4778  -24.9530  -49.8537 N.am      16 UNK        -0.5000 
     90 CA         -4.8872  -25.3582  -49.7806 C.3       16 UNK         0.1400 
     91 CB         -5.3327  -26.0077  -51.1074 C.3       16 UNK        -0.1800 
     92 C          -5.8154  -24.2120  -49.3229 C.2       16 UNK         0.5000 
     93 O          -6.8146  -23.9146  -49.9787 O.2       16 UNK        -0.5000 
     94 N          -5.4301  -23.5850  -48.2042 N.am      17 UNK        -0.5000 
     95 CA         -6.0255  -22.4254  -47.5304 C.3       17 UNK         0.1400 
     96 CB         -7.5480  -22.5704  -47.3257 C.3       17 UNK        -0.1800 
     97 C          -5.6333  -21.0710  -48.1534 C.2       17 UNK         0.5000 
     98 O          -6.0860  -20.0397  -47.6556 O.2       17 UNK        -0.5000 
     99 N          -4.7726  -21.0868  -49.1836 N.am      18 UNK        -0.5000 
    100 CA        -4.2322  -19.9331  -49.9067 C.3       18 UNK         0.1400 
    101 CB        -3.2553  -19.1384  -49.0132 C.3       18 UNK        -0.1800 
    102 C         -5.3509  -19.0827  -50.5403 C.2       18 UNK         0.5000 
    103 O         -6.0347  -19.5825  -51.4360 O.2       18 UNK        -0.5000 
    104 N         -5.5232  -17.8344  -50.0778 N.am      19 UNK        -0.5000 
    105 CA        -6.5545  -16.8817  -50.4928 C.3       19 UNK         0.1400 
    106 CB        -7.9365  -17.3299  -49.9661 C.3       19 UNK        -0.1800 
    107 C         -6.5095  -16.6244  -52.0130 C.2       19 UNK         0.5000 
    108 O         -5.5280  -16.0609  -52.5002 O.2       19 UNK        -0.5000 
    109 N         -7.5366  -17.0802  -52.7424 N.am      20 UNK        -0.5000 
    110 CA        -7.6821  -16.9723  -54.1969 C.3       20 UNK         0.1400 
    111 CB        -9.0623  -17.5198  -54.5930 C.3       20 UNK        -0.1800 
    112 C         -6.5714  -17.6621  -55.0187 C.2       20 UNK         0.5000 
    113 O         -6.4336  -17.3600  -56.2047 O.2       20 UNK        -0.5000 
    114 N         -5.7893  -18.5529  -54.3903 N.am      21 UNK        -0.5000 
    115 CA        -4.6171  -19.1981  -54.9862 C.3       21 UNK         0.1400 
    116 CB        -4.1513  -20.3392  -54.0683 C.3       21 UNK        -0.1800 
    117 C         -3.4439  -18.2331  -55.2631 C.2       21 UNK         0.5000 
    118 O         -2.5740  -18.5726  -56.0667 O.2       21 UNK        -0.5000 
    119 N         -3.4194  -17.0711  -54.5978 N.am      22 UNK        -0.5000 
    120 CA        -2.3291  -16.0852  -54.6888 C.3       22 UNK         0.1400 
    121 C         -2.7548  -14.6090  -54.4527 C.2       22 UNK         0.5000 
    122 N         -3.9316  -14.3121  -53.9180 N.am      22 UNK        -0.7600 
    123 O         -2.0104  -13.6984  -54.8058 O.2       22 UNK        -0.5000 
    124 C124       -1.0830  -16.4859  -53.8511 C.3       23 UNK        -0.0398 
    125 S125       -1.4919  -16.9992  -52.1441 S.3       23 UNK        -0.2404 
    126 C126       -0.9877  -18.7462  -52.1574 C.3       23 UNK        -0.0205 
    127 H127        6.3163  -14.3711  -48.8770 H         1 UNK         0.0600 
    128 H128        6.0121  -12.6483  -49.1166 H         1 UNK         0.0600 
    129 H129        7.1530  -13.4988  -50.1639 H         1 UNK         0.0600 
    130 H130        4.6747  -15.6361  -49.6472 H         1 UNK         0.3000 
    131 H131        2.9536  -16.4480  -50.7294 H         1 UNK         0.0600 
    132 H132        2.8349  -16.2811  -53.2478 H         1 UNK         0.0800 
    133 H133        4.0814  -15.0679  -53.2176 H         1 UNK         0.0800 
    134 H134        3.6447  -18.6884  -54.0892 H         1 UNK         0.0800 
    135 H135        4.6490  -19.6121  -53.0000 H         1 UNK         0.0800 
    136 H136        1.3280  -18.5978  -53.6012 H         1 UNK         0.1150 
    137 H137       -0.1405  -19.2209  -49.6303 H         1 UNK         0.1150 
    138 H138        4.0811  -19.2671  -50.3824 H         1 UNK         0.1150 
    139 H139        2.6161  -18.5844  -47.9159 H         1 UNK         0.0800 
    140 H140        1.2829  -19.7179  -47.8685 H         1 UNK         0.0800 
    141 H141        2.4413  -20.3102  -45.8094 H         1 UNK         0.0800 
    142 H142        3.9362  -21.1940  -45.6984 H         1 UNK         0.0800 
    143 H143        2.7034  -23.2504  -46.6097 H         1 UNK         0.0600 
    144 H144        2.5634  -22.2581  -43.9200 H         1 UNK         0.3000 
    145 H145        1.3920  -25.2948  -42.4848 H         1 UNK         0.0600 
    146 H146        3.4409  -24.9509  -41.1306 H         1 UNK         0.0600 
    147 H147        3.8700  -25.5615  -42.7211 H         1 UNK         0.0600 
    148 H148        4.0999  -23.8569  -42.3456 H         1 UNK         0.0600 
    149 H149        2.1013  -22.7291  -41.3879 H         1 UNK         0.3000 
    150 H150       -1.1599  -21.2724  -41.6612 H         1 UNK         0.0600 
    151 H151       -1.1027  -22.6070  -39.5882 H         1 UNK         0.0600 
    152 H152       -0.6864  -20.9333  -39.2539 H         1 UNK         0.0600 
    153 H153        0.5732  -22.1652  -39.3016 H         1 UNK         0.0600 
    154 H154        0.2918  -19.6971  -42.0905 H         1 UNK         0.3000 
    155 H155        3.4641  -18.7430  -40.8661 H         1 UNK         0.0600 
    156 H156        2.3737  -19.0948  -43.7101 H         1 UNK         0.0600 
    157 H157        3.8986  -19.7343  -43.1079 H         1 UNK         0.0600 
    158 H158        3.6630  -17.9977  -43.2260 H         1 UNK         0.0600 
    159 H159        1.0352  -17.6780  -42.1954 H         1 UNK         0.3000 
    160 H160       -0.1160  -16.0502  -39.2598 H         1 UNK         0.0600 
    161 H161        1.1055  -14.7705  -41.7660 H         1 UNK         0.0600 
    162 H162        1.5611  -14.3991  -40.1069 H         1 UNK         0.0600 
    163 H163       -0.0557  -14.0138  -40.6757 H         1 UNK         0.0600 
    164 H164       -0.9756  -16.0510  -42.0052 H         1 UNK         0.3000 
    165 H165       -2.6360  -19.1142  -42.0578 H         1 UNK         0.0600 
    166 H166       -4.7690  -17.9070  -42.4147 H         1 UNK         0.0600 
    167 H167       -4.3609  -17.8996  -40.7073 H         1 UNK         0.0600 
    168 H168       -4.1046  -16.4507  -41.6724 H         1 UNK         0.0600 
    169 H169       -2.9596  -16.9800  -43.8323 H         1 UNK         0.3000 
    170 H170       -0.0146  -16.6974  -45.4672 H         1 UNK         0.0600 
    171 H171       -0.1626  -19.0796  -46.2193 H         1 UNK         0.0600 
    172 H172       -1.8839  -18.8848  -46.5043 H         1 UNK         0.0600 
    173 H173       -0.7196  -17.9716  -47.4686 H         1 UNK         0.0600 
    174 H174       -2.6463  -16.5520  -46.5699 H         1 UNK         0.3000 
    175 H175       -4.2553  -14.7611  -45.7415 H         1 UNK         0.0600 
    176 H176       -2.5923  -12.2157  -45.3517 H         1 UNK         0.0600 
    177 H177       -4.3330  -12.2827  -45.6248 H         1 UNK         0.0600 
    178 H178       -3.6503  -12.9479  -44.1504 H         1 UNK         0.0600 
    179 H179       -2.6646  -13.1456  -47.6073 H         1 UNK         0.3000 
    180 H180       -3.0891  -15.3145  -50.3648 H         1 UNK         0.0600 
    181 H181       -4.3069  -12.5663  -49.7467 H         1 UNK         0.0600 
    182 H182       -5.1959  -13.9705  -50.3151 H         1 UNK         0.0600 
    183 H183       -4.0013  -13.2183  -51.3536 H         1 UNK         0.0600 
    184 H184       -1.8658  -12.7840  -50.1960 H         1 UNK         0.3000 
    185 H185        0.3779  -12.6247  -50.4674 H         1 UNK         0.0600 
    186 H186       -0.0696  -11.9329  -48.1116 H         1 UNK         0.0600 
    187 H187        0.9709  -13.2176  -47.5109 H         1 UNK         0.0600 
    188 H188        1.6540  -11.8860  -48.4449 H         1 UNK         0.0600 
    189 H189        2.3394  -14.3705  -49.1823 H         1 UNK         0.3000 
    190 H190        0.0973  -21.7953  -44.6493 H         1 UNK         0.3000 
    191 H191       -1.7769  -21.4390  -46.7889 H         1 UNK         0.0600 
    192 H192       -1.9716  -20.3780  -44.4819 H         1 UNK         0.0600 
    193 H193       -3.4369  -21.1597  -45.0422 H         1 UNK         0.0600 
    194 H194       -2.4314  -21.9442  -43.8376 H         1 UNK         0.0600 
    195 H195       -1.1441  -24.1425  -44.5060 H         1 UNK         0.3000 
    196 H196       -3.1378  -25.9109  -45.4536 H         1 UNK         0.0600 
    197 H197       -1.7771  -27.6607  -44.3209 H         1 UNK         0.0600 
    198 H198       -1.9228  -26.2283  -43.3126 H         1 UNK         0.0600 
    199 H199       -0.4232  -26.5476  -44.1792 H         1 UNK         0.0600 
    200 H200        0.2744  -25.5045  -46.4958 H         1 UNK         0.3000 
    201 H201        0.2762  -27.5134  -48.5083 H         1 UNK         0.0600 
    202 H202        2.3424  -26.5339  -47.5266 H         1 UNK         0.0600 
    203 H203        1.9786  -24.9762  -48.2663 H         1 UNK         0.0600 
    204 H204        2.3457  -26.3678  -49.2765 H         1 UNK         0.0600 
    205 H205       -0.5205  -24.0278  -48.6551 H         1 UNK         0.3000 
    206 H206       -1.0271  -24.0311  -51.5163 H         1 UNK         0.0600 
    207 H207       -0.0284  -22.0884  -50.3034 H         1 UNK         0.0600 
    208 H208       -1.5122  -21.6455  -51.1257 H         1 UNK         0.0600 
    209 H209       -1.5187  -21.8963  -49.3816 H         1 UNK         0.0600 
    210 H210       -2.8447  -25.4659  -49.2546 H         1 UNK         0.3000 
    211 H211       -4.9438  -26.1247  -49.0061 H         1 UNK         0.0600 
    212 H212       -5.3303  -25.2931  -51.9310 H         1 UNK         0.0600 
    213 H213       -6.3438  -26.4083  -51.0252 H         1 UNK         0.0600 
    214 H214       -4.6775  -26.8351  -51.3798 H         1 UNK         0.0600 
    215 H215       -4.5324  -23.8599  -47.8051 H         1 UNK         0.3000 
    216 H216       -5.5746  -22.4225  -46.5370 H         1 UNK         0.0600 
    217 H217       -7.9202  -21.8099  -46.6385 H         1 UNK         0.0600 
    218 H218       -7.8011  -23.5418  -46.9012 H         1 UNK         0.0600 
    219 H219       -8.0981  -22.4537  -48.2595 H         1 UNK         0.0600 
    220 H220       -4.5144  -21.9892  -49.5607 H         1 UNK         0.3000 
    221 H221       -3.6592  -20.3439  -50.7375 H         1 UNK         0.0600 
    222 H222       -3.7402  -18.7486  -48.1180 H         1 UNK         0.0600 
    223 H223       -2.4283  -19.7700  -48.6922 H         1 UNK         0.0600 
    224 H224       -2.8219  -18.2921  -49.5479 H         1 UNK         0.0600 
    225 H225       -4.9047  -17.5005  -49.3472 H         1 UNK         0.3000 
    226 H226       -6.3148  -15.9356  -50.0095 H         1 UNK         0.0600 
    227 H227       -7.9248  -17.4128  -48.8790 H         1 UNK         0.0600 
    228 H228       -8.7110  -16.6061  -50.2229 H         1 UNK         0.0600 
    229 H229       -8.2385  -18.3004  -50.3614 H         1 UNK         0.0600 
    230 H230       -8.2733  -17.5726  -52.2588 H         1 UNK         0.3000 
    231 H231       -7.6502  -15.9106  -54.4494 H         1 UNK         0.0600 
    232 H232       -9.1628  -18.5755  -54.3379 H         1 UNK         0.0600 
    233 H233       -9.2295  -17.4241  -55.6667 H         1 UNK         0.0600 
    234 H234       -9.8627  -16.9744  -54.0926 H         1 UNK         0.0600 
    235 H235       -5.9791  -18.7667  -53.4172 H         1 UNK         0.3000 
    236 H236       -4.9204  -19.6306  -55.9417 H         1 UNK         0.0600 
    237 H237       -4.9595  -21.0410  -53.8607 H         1 UNK         0.0600 
    238 H238       -3.3396  -20.9047  -54.5275 H         1 UNK         0.0600 
    239 H239       -3.7836  -19.9589  -53.1158 H         1 UNK         0.0600 
    240 H240       -4.1607  -16.8595  -53.9422 H         1 UNK         0.3000 
    241 H241       -2.0090  -16.0774  -55.7327 H         1 UNK         0.0600 
    242 H242       -4.5396  -15.0174  -53.5072 H         1 UNK         0.3800 
    243 H243       -4.1781  -13.3414  -53.8176 H         1 UNK         0.3800 
    244 H244       -0.3578  -15.6720  -53.8055 H         1 UNK         0.0800 
    245 H245       -0.5631  -17.2976  -54.3592 H         1 UNK         0.0800 
    246 H246       -1.1101  -19.1808  -53.1504 H         1 UNK         0.0800 
    247 H247       -1.6609  -19.3007  -51.5064 H         1 UNK         0.0800 
@<TRIPOS>BOND
     1    1    2 1    
     2    1  127 1    
     3    1  128 1    
     4    1  129 1    
     5    2    3 2    
     6    2    4 am   BACKBONE|DICT|INTERRES
     7    4    5 1    
     8    4  130 1    
     9    5    6 1    
    10    5   65 1    
    11    5  131 1    
    12    6    7 1    
    13    6  132 1    
    14    6  133 1    
    15    7    8 1    
    16    8    9 1    
    17    8  134 1    
    18    8  135 1    
    19    9   10 ar   
    20    9   14 ar   
    21   10   11 ar   
    22   10  136 1    
    23   11   12 ar   
    24   11  126 1    
    25   12   13 ar   
    26   12  137 1    
    27   13   14 ar   
    28   13   15 1    
    29   14  138 1    
    30   15   16 1    
    31   15  139 1    
    32   15  140 1    
    33   16   17 1    
    34   17   18 1    
    35   17  141 1    
    36   17  142 1    
    37   18   19 1    
    38   18   67 1    
    39   18  143 1    
    40   19   20 am   BACKBONE|DICT|INTERRES
    41   19  144 1    
    42   20   21 2    
    43   20   22 1    
    44   22   23 1    
    45   22   24 1    
    46   22  145 1    
    47   23  146 1    
    48   23  147 1    
    49   23  148 1    
    50   24   25 am   BACKBONE|DICT|INTERRES
    51   24  149 1    
    52   25   26 2    
    53   25   27 1    
    54   27   28 1    
    55   27   29 1    
    56   27  150 1    
    57   28  151 1    
    58   28  152 1    
    59   28  153 1    
    60   29   30 am   BACKBONE|DICT|INTERRES
    61   29  154 1    
    62   30   31 2    
    63   30   32 1    
    64   32   33 1    
    65   32   34 1    
    66   32  155 1    
    67   33  156 1    
    68   33  157 1    
    69   33  158 1    
    70   34   35 am   BACKBONE|DICT|INTERRES
    71   34  159 1    
    72   35   36 2    
    73   35   37 1    
    74   37   38 1    
    75   37   39 1    
    76   37  160 1    
    77   38  161 1    
    78   38  162 1    
    79   38  163 1    
    80   39   40 am   BACKBONE|DICT|INTERRES
    81   39  164 1    
    82   40   41 2    
    83   40   42 1    
    84   42   43 1    
    85   42   44 1    
    86   42  165 1    
    87   43  166 1    
    88   43  167 1    
    89   43  168 1    
    90   44   45 am   BACKBONE|DICT|INTERRES
    91   44  169 1    
    92   45   46 2    
    93   45   47 1    
    94   47   48 1    
    95   47   49 1    
    96   47  170 1    
    97   48  171 1    
    98   48  172 1    
    99   48  173 1    
   100   49   50 am   BACKBONE|DICT|INTERRES
   101   49  174 1    
   102   50   51 2    
   103   50   52 1    
   104   52   53 1    
   105   52   54 1    
   106   52  175 1    
   107   53  176 1    
   108   53  177 1    
   109   53  178 1    
   110   54   55 am   BACKBONE|DICT|INTERRES
   111   54  179 1    
   112   55   56 2    
   113   55   57 1    
   114   57   58 1    
   115   57   59 1    
   116   57  180 1    
   117   58  181 1    
   118   58  182 1    
   119   58  183 1    
   120   59   60 am   BACKBONE|DICT|INTERRES
   121   59  184 1    
   122   60   61 2    
   123   60   62 1    
   124   62   63 1    
   125   62   64 1    
   126   62  185 1    
   127   63  186 1    
   128   63  187 1    
   129   63  188 1    
   130   64   65 am   BACKBONE|DICT|INTERRES
   131   64  189 1    
   132   65   66 2    
   133   67   68 2    
   134   67   69 am   BACKBONE|DICT|INTERRES
   135   69   70 1    
   136   69  190 1    
   137   70   71 1    
   138   70   72 1    
   139   70  191 1    
   140   71  192 1    
   141   71  193 1    
   142   71  194 1    
   143   72   73 2    
   144   72   74 am   BACKBONE|DICT|INTERRES
   145   74   75 1    
   146   74  195 1    
   147   75   76 1    
   148   75   77 1    
   149   75  196 1    
   150   76  197 1    
   151   76  198 1    
   152   76  199 1    
   153   77   78 2    
   154   77   79 am   BACKBONE|DICT|INTERRES
   155   79   80 1    
   156   79  200 1    
   157   80   81 1    
   158   80   82 1    
   159   80  201 1    
   160   81  202 1    
   161   81  203 1    
   162   81  204 1    
   163   82   83 2    
   164   82   84 am   BACKBONE|DICT|INTERRES
   165   84   85 1    
   166   84  205 1    
   167   85   86 1    
   168   85   87 1    
   169   85  206 1    
   170   86  207 1    
   171   86  208 1    
   172   86  209 1    
   173   87   88 2    
   174   87   89 am   BACKBONE|DICT|INTERRES
   175   89   90 1    
   176   89  210 1    
   177   90   91 1    
   178   90   92 1    
   179   90  211 1    
   180   91  212 1    
   181   91  213 1    
   182   91  214 1    
   183   92   93 2    
   184   92   94 am   BACKBONE|DICT|INTERRES
   185   94   95 1    
   186   94  215 1    
   187   95   96 1    
   188   95   97 1    
   189   95  216 1    
   190   96  217 1    
   191   96  218 1    
   192   96  219 1    
   193   97   98 2    
   194   97   99 am   BACKBONE|DICT|INTERRES
   195   99  100 1    
   196   99  220 1    
   197  100  101 1    
   198  100  102 1    
   199  100  221 1    
   200  101  222 1    
   201  101  223 1    
   202  101  224 1    
   203  102  103 2    
   204  102  104 am   BACKBONE|DICT|INTERRES
   205  104  105 1    
   206  104  225 1    
   207  105  106 1    
   208  105  107 1    
   209  105  226 1    
   210  106  227 1    
   211  106  228 1    
   212  106  229 1    
   213  107  108 2    
   214  107  109 am   BACKBONE|DICT|INTERRES
   215  109  110 1    
   216  109  230 1    
   217  110  111 1    
   218  110  112 1    
   219  110  231 1    
   220  111  232 1    
   221  111  233 1    
   222  111  234 1    
   223  112  113 2    
   224  112  114 am   BACKBONE|DICT|INTERRES
   225  114  115 1    
   226  114  235 1    
   227  115  116 1    
   228  115  117 1    
   229  115  236 1    
   230  116  237 1    
   231  116  238 1    
   232  116  239 1    
   233  117  118 2    
   234  117  119 am   BACKBONE|DICT|INTERRES
   235  119  120 1    
   236  119  240 1    
   237  120  121 1    
   238  120  124 1    
   239  120  241 1    
   240  121  122 am   BACKBONE|DICT|INTERRES
   241  121  123 2    
   242  122  242 1    
   243  122  243 1    
   244  124  125 1    
   245  124  244 1    
   246  124  245 1    
   247  125  126 1    
   248  126  246 1    
   249  126  247 1    
@<TRIPOS>SUBSTRUCTURE
     1 UNK         1 GROUP             0       ****    0 ROOT    
