@<TRIPOS>MOLECULE
3R540
247   249    1
SMALL
USER_CHARGES


@<TRIPOS>ATOM
      1 CA          5.6781  -19.4277  -47.5355 C.3       0 UNK        -0.1800 
      2 C           4.6406  -18.3581  -47.8452 C.2       0 UNK         0.5000 
      3 O           3.7010  -18.1727  -47.0709 O.2       0 UNK        -0.5000 
      4 N           4.8052  -17.6518  -48.9710 N.am      1 UNK        -0.5000 
      5 CA          3.9504  -16.5447  -49.4084 C.3       1 UNK         0.1400 
      6 C6          4.1068  -16.2793  -50.9264 C.3       23 UNK        -0.0398 
      7 S7          2.6542  -15.4205  -51.6219 S.3       23 UNK        -0.2404 
      8 C8          1.9729  -16.6885  -52.7366 C.3       23 UNK        -0.0205 
      9 C9          1.2814  -17.8154  -51.9824 C.ar      23 UNK        -0.0193 
     10 C10        -0.0301  -17.6456  -51.5296 C.ar      23 UNK        -0.1150 
     11 C11        -0.7083  -18.6879  -50.8843 C.ar      23 UNK        -0.0193 
     12 C12        -0.0457  -19.9040  -50.6966 C.ar      23 UNK        -0.1150 
     13 C13         1.2699  -20.0876  -51.1322 C.ar      23 UNK        -0.0193 
     14 C14         1.9293  -19.0374  -51.7757 C.ar      23 UNK        -0.1150 
     15 C15         1.9550  -21.4367  -50.9483 C.3       23 UNK        -0.0205 
     16 S16         3.1107  -21.4839  -49.5349 S.3       23 UNK        -0.2404 
     17 C17         2.0427  -21.0810  -48.1093 C.3       23 UNK        -0.0398 
     18 CA          1.4649  -22.3001  -47.3527 C.3       11 UNK         0.1400 
     19 N           0.9257  -21.9100  -46.0475 N.am      11 UNK        -0.5000 
     20 C           0.5894  -22.7625  -45.0688 C.2       10 UNK         0.5000 
     21 O           0.7631  -23.9781  -45.1359 O.2       10 UNK        -0.5000 
     22 CA         -0.1006  -22.1649  -43.8274 C.3       10 UNK         0.1400 
     23 CB          0.9420  -21.7440  -42.7823 C.3       10 UNK        -0.1800 
     24 N          -0.9592  -21.0246  -44.1558 N.am      10 UNK        -0.5000 
     25 C          -2.0883  -21.1206  -44.8767 C.2       9 UNK         0.5000 
     26 O          -2.5469  -22.1932  -45.2682 O.2       9 UNK        -0.5000 
     27 CA         -2.7973  -19.8104  -45.2815 C.3       9 UNK         0.1400 
     28 CB         -3.9196  -19.4807  -44.2875 C.3       9 UNK        -0.1800 
     29 N          -1.8949  -18.6626  -45.3905 N.am      9 UNK        -0.5000 
     30 C          -0.8260  -18.5964  -46.1955 C.2       8 UNK         0.5000 
     31 O          -0.5624  -19.4653  -47.0259 O.2       8 UNK        -0.5000 
     32 CA          0.1477  -17.4167  -45.9961 C.3       8 UNK         0.1400 
     33 CB         -0.0039  -16.3812  -47.1132 C.3       8 UNK        -0.1800 
     34 N           0.0157  -16.7459  -44.7002 N.am      8 UNK        -0.5000 
     35 C           0.2976  -17.3064  -43.5151 C.2       7 UNK         0.5000 
     36 O           0.6689  -18.4727  -43.3842 O.2       7 UNK        -0.5000 
     37 CA          0.0736  -16.4351  -42.2697 C.3       7 UNK         0.1400 
     38 CB          1.2156  -15.4260  -42.0785 C.3       7 UNK        -0.1800 
     39 N          -1.1987  -15.7221  -42.3574 N.am      7 UNK        -0.5000 
     40 C          -2.3778  -16.2418  -41.9906 C.2       6 UNK         0.5000 
     41 O          -2.5047  -17.3522  -41.4746 O.2       6 UNK        -0.5000 
     42 CA         -3.6311  -15.3843  -42.2506 C.3       6 UNK         0.1400 
     43 CB         -3.9634  -14.5307  -41.0177 C.3       6 UNK        -0.1800 
     44 N          -3.5058  -14.5090  -43.4172 N.am      6 UNK        -0.5000 
     45 C          -3.4355  -14.9358  -44.6855 C.2       5 UNK         0.5000 
     46 O          -3.4662  -16.1209  -45.0119 O.2       5 UNK        -0.5000 
     47 CA         -3.2678  -13.8537  -45.7672 C.3       5 UNK         0.1400 
     48 CB         -4.6397  -13.2995  -46.1749 C.3       5 UNK        -0.1800 
     49 N          -2.4041  -12.7366  -45.3739 N.am      5 UNK        -0.5000 
     50 C          -1.1322  -12.8431  -44.9711 C.2       4 UNK         0.5000 
     51 O          -0.5566  -13.9166  -44.7741 O.2       4 UNK        -0.5000 
     52 CA         -0.3654  -11.5269  -44.7671 C.3       4 UNK         0.1400 
     53 CB          0.2309  -11.4465  -43.3532 C.3       4 UNK        -0.1800 
     54 N           0.7110  -11.4586  -45.7461 N.am      4 UNK        -0.5000 
     55 C           0.5516  -11.2067  -47.0503 C.2       3 UNK         0.5000 
     56 O          -0.4904  -10.7583  -47.5316 O.2       3 UNK        -0.5000 
     57 CA          1.7250  -11.5570  -47.9878 C.3       3 UNK         0.1400 
     58 CB          2.6422  -10.3425  -48.2271 C.3       3 UNK        -0.1800 
     59 N           2.4791  -12.7515  -47.5749 N.am      3 UNK        -0.5000 
     60 C           3.3125  -12.9048  -46.5353 C.2       2 UNK         0.5000 
     61 O           3.5931  -11.9988  -45.7504 O.2       2 UNK        -0.5000 
     62 CA          3.8853  -14.3115  -46.2734 C.3       2 UNK         0.1400 
     63 CB          3.3055  -14.8829  -44.9706 C.3       2 UNK        -0.1800 
     64 N           3.6464  -15.2867  -47.3373 N.am      2 UNK        -0.5000 
     65 C           4.2297  -15.2962  -48.5405 C.2       1 UNK         0.5000 
     66 O           4.9973  -14.4158  -48.9326 O.2       1 UNK        -0.5000 
     67 C           0.3936  -23.0377  -48.1768 C.2       11 UNK         0.5000 
     68 O           0.6903  -24.0773  -48.7640 O.2       11 UNK        -0.5000 
     69 N          -0.8433  -22.5165  -48.1644 N.am      12 UNK        -0.5000 
     70 CA         -2.0020  -23.1373  -48.8102 C.3       12 UNK         0.1400 
     71 CB         -3.2095  -22.1903  -48.7392 C.3       12 UNK        -0.1800 
     72 C          -2.3316  -24.5144  -48.2052 C.2       12 UNK         0.5000 
     73 O          -2.5360  -25.4708  -48.9519 O.2       12 UNK        -0.5000 
     74 N          -2.3071  -24.6036  -46.8674 N.am      13 UNK        -0.5000 
     75 CA         -2.4822  -25.8432  -46.1110 C.3       13 UNK         0.1400 
     76 CB         -2.5545  -25.5272  -44.6099 C.3       13 UNK        -0.1800 
     77 C          -1.3855  -26.8851  -46.4008 C.2       13 UNK         0.5000 
     78 O          -1.7098  -28.0549  -46.6046 O.2       13 UNK        -0.5000 
     79 N          -0.1196  -26.4443  -46.4569 N.am      14 UNK        -0.5000 
     80 CA          1.0375  -27.2766  -46.8010 C.3       14 UNK         0.1400 
     81 CB          2.3334  -26.4926  -46.5450 C.3       14 UNK        -0.1800 
     82 C           0.9956  -27.7982  -48.2500 C.2       14 UNK         0.5000 
     83 O           1.3583  -28.9498  -48.4925 O.2       14 UNK        -0.5000 
     84 N           0.5225  -26.9562  -49.1783 N.am      15 UNK        -0.5000 
     85 CA          0.2835  -27.3008  -50.5815 C.3       15 UNK         0.1400 
     86 CB          0.1535  -26.0013  -51.3929 C.3       15 UNK        -0.1800 
     87 C          -0.9596  -28.1908  -50.7943 C.2       15 UNK         0.5000 
     88 O          -1.1106  -28.7537  -51.8794 O.2       15 UNK        -0.5000 
     89 N          -1.8249  -28.2851  -49.7727 N.am      16 UNK        -0.5000 
     90 CA         -3.1341  -28.9447  -49.7567 C.3       16 UNK         0.1400 
     91 CB         -2.9854  -30.4731  -49.9051 C.3       16 UNK        -0.1800 
     92 C          -4.1081  -28.3183  -50.7770 C.2       16 UNK         0.5000 
     93 O          -4.8109  -29.0354  -51.4923 O.2       16 UNK        -0.5000 
     94 N          -4.1076  -26.9825  -50.8336 N.am      17 UNK        -0.5000 
     95 CA         -4.8841  -26.1640  -51.7572 C.3       17 UNK         0.1400 
     96 CB         -3.8994  -25.4384  -52.6907 C.3       17 UNK        -0.1800 
     97 C          -5.7314  -25.1453  -50.9800 C.2       17 UNK         0.5000 
     98 O          -5.4708  -24.8816  -49.8040 O.2       17 UNK        -0.5000 
     99 N          -6.7195  -24.5605  -51.6653 N.am      18 UNK        -0.5000 
    100 CA        -7.4658  -23.4012  -51.1812 C.3       18 UNK         0.1400 
    101 CB        -8.7999  -23.3084  -51.9376 C.3       18 UNK        -0.1800 
    102 C         -6.6340  -22.1231  -51.3889 C.2       18 UNK         0.5000 
    103 O         -5.9762  -21.9870  -52.4242 O.2       18 UNK        -0.5000 
    104 N         -6.6864  -21.2070  -50.4166 N.am      19 UNK        -0.5000 
    105 CA        -6.0426  -19.8971  -50.5002 C.3       19 UNK         0.1400 
    106 CB        -5.9049  -19.3124  -49.0851 C.3       19 UNK        -0.1800 
    107 C         -6.8341  -18.9413  -51.4126 C.2       19 UNK         0.5000 
    108 O         -8.0617  -19.0387  -51.4924 O.2       19 UNK        -0.5000 
    109 N         -6.1106  -18.0201  -52.0549 N.am      20 UNK        -0.5000 
    110 CA        -6.6498  -16.9011  -52.8228 C.3       20 UNK         0.1400 
    111 CB        -5.8281  -16.7559  -54.1195 C.3       20 UNK        -0.1800 
    112 C         -6.6334  -15.6466  -51.9253 C.2       20 UNK         0.5000 
    113 O         -7.0837  -15.7203  -50.7800 O.2       20 UNK        -0.5000 
    114 N         -6.1072  -14.5232  -52.4336 N.am      21 UNK        -0.5000 
    115 CA        -5.8339  -13.3204  -51.6450 C.3       21 UNK         0.1400 
    116 CB        -5.5674  -12.1310  -52.5821 C.3       21 UNK        -0.1800 
    117 C         -4.6570  -13.5586  -50.6817 C.2       21 UNK         0.5000 
    118 O         -4.8188  -13.4031  -49.4735 O.2       21 UNK        -0.5000 
    119 N         -3.5146  -13.9750  -51.2458 N.am      22 UNK        -0.5000 
    120 CA        -2.3023  -14.4631  -50.5585 C.3       22 UNK         0.1400 
    121 C         -1.5599  -13.4517  -49.6311 C.2       22 UNK         0.5000 
    122 N         -1.9729  -12.1961  -49.5289 N.am      22 UNK        -0.7600 
    123 O         -0.5589  -13.8067  -49.0163 O.2       22 UNK        -0.5000 
    124 C124       -2.5384  -15.8212  -49.8417 C.3       23 UNK        -0.0398 
    125 S125       -3.1103  -17.1358  -50.9708 S.3       23 UNK        -0.2404 
    126 C126       -2.1497  -18.5739  -50.3815 C.3       23 UNK        -0.0205 
    127 H127        6.3997  -19.5386  -48.3451 H         1 UNK         0.0600 
    128 H128        5.1925  -20.3911  -47.3809 H         1 UNK         0.0600 
    129 H129        6.2207  -19.1697  -46.6262 H         1 UNK         0.0600 
    130 H130        5.6118  -17.8361  -49.5502 H         1 UNK         0.3000 
    131 H131        2.9152  -16.8501  -49.2340 H         1 UNK         0.0600 
    132 H132        5.0071  -15.7051  -51.1514 H         1 UNK         0.0800 
    133 H133        4.2341  -17.2242  -51.4546 H         1 UNK         0.0800 
    134 H134        2.7637  -17.0798  -53.3785 H         1 UNK         0.0800 
    135 H135        1.2547  -16.2121  -53.4055 H         1 UNK         0.0800 
    136 H136       -0.5146  -16.6978  -51.7019 H         1 UNK         0.1150 
    137 H137       -0.5626  -20.7179  -50.2101 H         1 UNK         0.1150 
    138 H138        2.9401  -19.1808  -52.1302 H         1 UNK         0.1150 
    139 H139        1.2133  -22.2288  -50.8406 H         1 UNK         0.0800 
    140 H140        2.5117  -21.6793  -51.8546 H         1 UNK         0.0800 
    141 H141        1.2636  -20.3886  -48.4158 H         1 UNK         0.0800 
    142 H142        2.6630  -20.5172  -47.4152 H         1 UNK         0.0800 
    143 H143        2.2824  -23.0010  -47.1701 H         1 UNK         0.0600 
    144 H144        0.6827  -20.9341  -45.9420 H         1 UNK         0.3000 
    145 H145       -0.7271  -22.9422  -43.3857 H         1 UNK         0.0600 
    146 H146        0.4664  -21.3311  -41.8925 H         1 UNK         0.0600 
    147 H147        1.5411  -22.5984  -42.4653 H         1 UNK         0.0600 
    148 H148        1.6272  -20.9925  -43.1760 H         1 UNK         0.0600 
    149 H149       -0.6223  -20.1087  -43.8801 H         1 UNK         0.3000 
    150 H150       -3.2451  -19.9703  -46.2640 H         1 UNK         0.0600 
    151 H151       -4.6128  -20.3169  -44.1880 H         1 UNK         0.0600 
    152 H152       -4.4989  -18.6187  -44.6178 H         1 UNK         0.0600 
    153 H153       -3.5246  -19.2601  -43.2953 H         1 UNK         0.0600 
    154 H154       -2.0981  -17.8673  -44.7985 H         1 UNK         0.3000 
    155 H155        1.1583  -17.8258  -46.0524 H         1 UNK         0.0600 
    156 H156        0.1805  -16.8336  -48.0884 H         1 UNK         0.0600 
    157 H157       -1.0057  -15.9518  -47.1193 H         1 UNK         0.0600 
    158 H158        0.7043  -15.5610  -46.9979 H         1 UNK         0.0600 
    159 H159       -0.2760  -15.7715  -44.7236 H         1 UNK         0.3000 
    160 H160        0.0647  -17.0942  -41.3987 H         1 UNK         0.0600 
    161 H161        1.1129  -14.8944  -41.1325 H         1 UNK         0.0600 
    162 H162        2.1844  -15.9268  -42.0675 H         1 UNK         0.0600 
    163 H163        1.2368  -14.6825  -42.8741 H         1 UNK         0.0600 
    164 H164       -1.1859  -14.8303  -42.8341 H         1 UNK         0.3000 
    165 H165       -4.4646  -16.0669  -42.4290 H         1 UNK         0.0600 
    166 H166       -4.8936  -13.9799  -41.1580 H         1 UNK         0.0600 
    167 H167       -4.0877  -15.1556  -40.1323 H         1 UNK         0.0600 
    168 H168       -3.1740  -13.8097  -40.8024 H         1 UNK         0.0600 
    169 H169       -3.4661  -13.5158  -43.2420 H         1 UNK         0.3000 
    170 H170       -2.8140  -14.3234  -46.6419 H         1 UNK         0.0600 
    171 H171       -5.2813  -14.0927  -46.5612 H         1 UNK         0.0600 
    172 H172       -5.1561  -12.8365  -45.3334 H         1 UNK         0.0600 
    173 H173       -4.5438  -12.5501  -46.9602 H         1 UNK         0.0600 
    174 H174       -2.7843  -11.8132  -45.5229 H         1 UNK         0.3000 
    175 H175       -1.0390  -10.6793  -44.9091 H         1 UNK         0.0600 
    176 H176        0.9508  -12.2450  -43.1703 H         1 UNK         0.0600 
    177 H177        0.7422  -10.4965  -43.1970 H         1 UNK         0.0600 
    178 H178       -0.5489  -11.5256  -42.5949 H         1 UNK         0.0600 
    179 H179        1.6177  -11.7999  -45.4499 H         1 UNK         0.3000 
    180 H180        1.2830  -11.8165  -48.9506 H         1 UNK         0.0600 
    181 H181        3.0752   -9.9644  -47.3010 H         1 UNK         0.0600 
    182 H182        2.0836   -9.5221  -48.6790 H         1 UNK         0.0600 
    183 H183        3.4588  -10.5923  -48.9045 H         1 UNK         0.0600 
    184 H184        2.2755  -13.5796  -48.1166 H         1 UNK         0.3000 
    185 H185        4.9648  -14.2035  -46.1508 H         1 UNK         0.0600 
    186 H186        2.2229  -14.9897  -45.0361 H         1 UNK         0.0600 
    187 H187        3.7264  -15.8623  -44.7417 H         1 UNK         0.0600 
    188 H188        3.5207  -14.2314  -44.1227 H         1 UNK         0.0600 
    189 H189        3.1304  -16.1172  -47.0720 H         1 UNK         0.3000 
    190 H190       -1.0025  -21.6589  -47.6516 H         1 UNK         0.3000 
    191 H191       -1.7521  -23.2865  -49.8626 H         1 UNK         0.0600 
    192 H192       -3.5669  -22.0597  -47.7184 H         1 UNK         0.0600 
    193 H193       -4.0414  -22.5802  -49.3264 H         1 UNK         0.0600 
    194 H194       -2.9664  -21.2061  -49.1355 H         1 UNK         0.0600 
    195 H195       -2.1853  -23.7532  -46.3247 H         1 UNK         0.3000 
    196 H196       -3.4383  -26.2769  -46.4116 H         1 UNK         0.0600 
    197 H197       -2.7289  -26.4333  -44.0285 H         1 UNK         0.0600 
    198 H198       -3.3697  -24.8375  -44.3908 H         1 UNK         0.0600 
    199 H199       -1.6301  -25.0779  -44.2477 H         1 UNK         0.0600 
    200 H200        0.0753  -25.4753  -46.2236 H         1 UNK         0.3000 
    201 H201        1.0313  -28.1443  -46.1383 H         1 UNK         0.0600 
    202 H202        2.4168  -26.2007  -45.4981 H         1 UNK         0.0600 
    203 H203        2.3825  -25.5870  -47.1501 H         1 UNK         0.0600 
    204 H204        3.2098  -27.0961  -46.7845 H         1 UNK         0.0600 
    205 H205        0.3156  -25.9985  -48.9084 H         1 UNK         0.3000 
    206 H206        1.1494  -27.8514  -50.9544 H         1 UNK         0.0600 
    207 H207        1.0488  -25.3862  -51.3001 H         1 UNK         0.0600 
    208 H208        0.0121  -26.2124  -52.4536 H         1 UNK         0.0600 
    209 H209       -0.6972  -25.4053  -51.0611 H         1 UNK         0.0600 
    210 H210       -1.6065  -27.7549  -48.9393 H         1 UNK         0.3000 
    211 H211       -3.5594  -28.7499  -48.7712 H         1 UNK         0.0600 
    212 H212       -2.6146  -30.7530  -50.8914 H         1 UNK         0.0600 
    213 H213       -3.9441  -30.9730  -49.7628 H         1 UNK         0.0600 
    214 H214       -2.2971  -30.8745  -49.1613 H         1 UNK         0.0600 
    215 H215       -3.5518  -26.4605  -50.1571 H         1 UNK         0.3000 
    216 H216       -5.5571  -26.7827  -52.3546 H         1 UNK         0.0600 
    217 H217       -4.4252  -24.8192  -53.4184 H         1 UNK         0.0600 
    218 H218       -3.2902  -26.1498  -53.2488 H         1 UNK         0.0600 
    219 H219       -3.2240  -24.7880  -52.1322 H         1 UNK         0.0600 
    220 H220       -6.8458  -24.7949  -52.6391 H         1 UNK         0.3000 
    221 H221       -7.6796  -23.5255  -50.1173 H         1 UNK         0.0600 
    222 H222       -8.6480  -23.1844  -53.0105 H         1 UNK         0.0600 
    223 H223       -9.4033  -24.2034  -51.7847 H         1 UNK         0.0600 
    224 H224       -9.3861  -22.4570  -51.5893 H         1 UNK         0.0600 
    225 H225       -7.2813  -21.3659  -49.6167 H         1 UNK         0.3000 
    226 H226       -5.0413  -20.0283  -50.9152 H         1 UNK         0.0600 
    227 H227       -5.3140  -19.9650  -48.4424 H         1 UNK         0.0600 
    228 H228       -5.4049  -18.3431  -49.1092 H         1 UNK         0.0600 
    229 H229       -6.8775  -19.1661  -48.6139 H         1 UNK         0.0600 
    230 H230       -5.1160  -17.9781  -51.8750 H         1 UNK         0.3000 
    231 H231       -7.6888  -17.0909  -53.0983 H         1 UNK         0.0600 
    232 H232       -6.2327  -15.9737  -54.7627 H         1 UNK         0.0600 
    233 H233       -5.8497  -17.6808  -54.6961 H         1 UNK         0.0600 
    234 H234       -4.7824  -16.5219  -53.9157 H         1 UNK         0.0600 
    235 H235       -5.7688  -14.5339  -53.3843 H         1 UNK         0.3000 
    236 H236       -6.7173  -13.0857  -51.0472 H         1 UNK         0.0600 
    237 H237       -6.4376  -11.9199  -53.2036 H         1 UNK         0.0600 
    238 H238       -5.3510  -11.2271  -52.0115 H         1 UNK         0.0600 
    239 H239       -4.7208  -12.3118  -53.2449 H         1 UNK         0.0600 
    240 H240       -3.4898  -14.0527  -52.2511 H         1 UNK         0.3000 
    241 H241       -1.5882  -14.6441  -51.3619 H         1 UNK         0.0600 
    242 H242       -2.8115  -11.8906  -49.9949 H         1 UNK         0.3800 
    243 H243       -1.4821  -11.5730  -48.8940 H         1 UNK         0.3800 
    244 H244       -1.6130  -16.1641  -49.3839 H         1 UNK         0.0800 
    245 H245       -3.2604  -15.7121  -49.0311 H         1 UNK         0.0800 
    246 H246       -2.1526  -18.5913  -49.2904 H         1 UNK         0.0800 
    247 H247       -2.6873  -19.4653  -50.7040 H         1 UNK         0.0800 
@<TRIPOS>BOND
     1    1    2 1    
     2    1  127 1    
     3    1  128 1    
     4    1  129 1    
     5    2    3 2    
     6    2    4 am   BACKBONE|DICT|INTERRES
     7    4    5 1    
     8    4  130 1    
     9    5    6 1    
    10    5   65 1    
    11    5  131 1    
    12    6    7 1    
    13    6  132 1    
    14    6  133 1    
    15    7    8 1    
    16    8    9 1    
    17    8  134 1    
    18    8  135 1    
    19    9   10 ar   
    20    9   14 ar   
    21   10   11 ar   
    22   10  136 1    
    23   11   12 ar   
    24   11  126 1    
    25   12   13 ar   
    26   12  137 1    
    27   13   14 ar   
    28   13   15 1    
    29   14  138 1    
    30   15   16 1    
    31   15  139 1    
    32   15  140 1    
    33   16   17 1    
    34   17   18 1    
    35   17  141 1    
    36   17  142 1    
    37   18   19 1    
    38   18   67 1    
    39   18  143 1    
    40   19   20 am   BACKBONE|DICT|INTERRES
    41   19  144 1    
    42   20   21 2    
    43   20   22 1    
    44   22   23 1    
    45   22   24 1    
    46   22  145 1    
    47   23  146 1    
    48   23  147 1    
    49   23  148 1    
    50   24   25 am   BACKBONE|DICT|INTERRES
    51   24  149 1    
    52   25   26 2    
    53   25   27 1    
    54   27   28 1    
    55   27   29 1    
    56   27  150 1    
    57   28  151 1    
    58   28  152 1    
    59   28  153 1    
    60   29   30 am   BACKBONE|DICT|INTERRES
    61   29  154 1    
    62   30   31 2    
    63   30   32 1    
    64   32   33 1    
    65   32   34 1    
    66   32  155 1    
    67   33  156 1    
    68   33  157 1    
    69   33  158 1    
    70   34   35 am   BACKBONE|DICT|INTERRES
    71   34  159 1    
    72   35   36 2    
    73   35   37 1    
    74   37   38 1    
    75   37   39 1    
    76   37  160 1    
    77   38  161 1    
    78   38  162 1    
    79   38  163 1    
    80   39   40 am   BACKBONE|DICT|INTERRES
    81   39  164 1    
    82   40   41 2    
    83   40   42 1    
    84   42   43 1    
    85   42   44 1    
    86   42  165 1    
    87   43  166 1    
    88   43  167 1    
    89   43  168 1    
    90   44   45 am   BACKBONE|DICT|INTERRES
    91   44  169 1    
    92   45   46 2    
    93   45   47 1    
    94   47   48 1    
    95   47   49 1    
    96   47  170 1    
    97   48  171 1    
    98   48  172 1    
    99   48  173 1    
   100   49   50 am   BACKBONE|DICT|INTERRES
   101   49  174 1    
   102   50   51 2    
   103   50   52 1    
   104   52   53 1    
   105   52   54 1    
   106   52  175 1    
   107   53  176 1    
   108   53  177 1    
   109   53  178 1    
   110   54   55 am   BACKBONE|DICT|INTERRES
   111   54  179 1    
   112   55   56 2    
   113   55   57 1    
   114   57   58 1    
   115   57   59 1    
   116   57  180 1    
   117   58  181 1    
   118   58  182 1    
   119   58  183 1    
   120   59   60 am   BACKBONE|DICT|INTERRES
   121   59  184 1    
   122   60   61 2    
   123   60   62 1    
   124   62   63 1    
   125   62   64 1    
   126   62  185 1    
   127   63  186 1    
   128   63  187 1    
   129   63  188 1    
   130   64   65 am   BACKBONE|DICT|INTERRES
   131   64  189 1    
   132   65   66 2    
   133   67   68 2    
   134   67   69 am   BACKBONE|DICT|INTERRES
   135   69   70 1    
   136   69  190 1    
   137   70   71 1    
   138   70   72 1    
   139   70  191 1    
   140   71  192 1    
   141   71  193 1    
   142   71  194 1    
   143   72   73 2    
   144   72   74 am   BACKBONE|DICT|INTERRES
   145   74   75 1    
   146   74  195 1    
   147   75   76 1    
   148   75   77 1    
   149   75  196 1    
   150   76  197 1    
   151   76  198 1    
   152   76  199 1    
   153   77   78 2    
   154   77   79 am   BACKBONE|DICT|INTERRES
   155   79   80 1    
   156   79  200 1    
   157   80   81 1    
   158   80   82 1    
   159   80  201 1    
   160   81  202 1    
   161   81  203 1    
   162   81  204 1    
   163   82   83 2    
   164   82   84 am   BACKBONE|DICT|INTERRES
   165   84   85 1    
   166   84  205 1    
   167   85   86 1    
   168   85   87 1    
   169   85  206 1    
   170   86  207 1    
   171   86  208 1    
   172   86  209 1    
   173   87   88 2    
   174   87   89 am   BACKBONE|DICT|INTERRES
   175   89   90 1    
   176   89  210 1    
   177   90   91 1    
   178   90   92 1    
   179   90  211 1    
   180   91  212 1    
   181   91  213 1    
   182   91  214 1    
   183   92   93 2    
   184   92   94 am   BACKBONE|DICT|INTERRES
   185   94   95 1    
   186   94  215 1    
   187   95   96 1    
   188   95   97 1    
   189   95  216 1    
   190   96  217 1    
   191   96  218 1    
   192   96  219 1    
   193   97   98 2    
   194   97   99 am   BACKBONE|DICT|INTERRES
   195   99  100 1    
   196   99  220 1    
   197  100  101 1    
   198  100  102 1    
   199  100  221 1    
   200  101  222 1    
   201  101  223 1    
   202  101  224 1    
   203  102  103 2    
   204  102  104 am   BACKBONE|DICT|INTERRES
   205  104  105 1    
   206  104  225 1    
   207  105  106 1    
   208  105  107 1    
   209  105  226 1    
   210  106  227 1    
   211  106  228 1    
   212  106  229 1    
   213  107  108 2    
   214  107  109 am   BACKBONE|DICT|INTERRES
   215  109  110 1    
   216  109  230 1    
   217  110  111 1    
   218  110  112 1    
   219  110  231 1    
   220  111  232 1    
   221  111  233 1    
   222  111  234 1    
   223  112  113 2    
   224  112  114 am   BACKBONE|DICT|INTERRES
   225  114  115 1    
   226  114  235 1    
   227  115  116 1    
   228  115  117 1    
   229  115  236 1    
   230  116  237 1    
   231  116  238 1    
   232  116  239 1    
   233  117  118 2    
   234  117  119 am   BACKBONE|DICT|INTERRES
   235  119  120 1    
   236  119  240 1    
   237  120  121 1    
   238  120  124 1    
   239  120  241 1    
   240  121  122 am   BACKBONE|DICT|INTERRES
   241  121  123 2    
   242  122  242 1    
   243  122  243 1    
   244  124  125 1    
   245  124  244 1    
   246  124  245 1    
   247  125  126 1    
   248  126  246 1    
   249  126  247 1    
@<TRIPOS>SUBSTRUCTURE
     1 UNK         1 GROUP             0       ****    0 ROOT    
