@<TRIPOS>MOLECULE
3R540
247   249    1
SMALL
USER_CHARGES


@<TRIPOS>ATOM
      1 CA         -1.8902   -9.7502  -45.3175 C.3       0 UNK        -0.1800 
      2 C          -0.9314   -9.9305  -46.4860 C.2       0 UNK         0.5000 
      3 O          -0.2031   -8.9992  -46.8307 O.2       0 UNK        -0.5000 
      4 N          -0.9349  -11.1203  -47.0998 N.am      1 UNK        -0.5000 
      5 CA         -0.0304  -11.5052  -48.1865 C.3       1 UNK         0.1400 
      6 C6         -0.5231  -12.7980  -48.8853 C.3       23 UNK        -0.0398 
      7 S7          0.1821  -13.0348  -50.5543 S.3       23 UNK        -0.2404 
      8 C8         -1.0395  -14.1518  -51.3253 C.3       23 UNK        -0.0205 
      9 C9         -0.6956  -15.6219  -51.1182 C.ar      23 UNK        -0.0193 
     10 C10        -0.2575  -16.4040  -52.1947 C.ar      23 UNK        -0.1150 
     11 C11         0.0520  -17.7560  -52.0116 C.ar      23 UNK        -0.0193 
     12 C12        -0.0613  -18.3156  -50.7377 C.ar      23 UNK        -0.1150 
     13 C13        -0.4933  -17.5490  -49.6545 C.ar      23 UNK        -0.0193 
     14 C14        -0.8274  -16.2074  -49.8544 C.ar      23 UNK        -0.1150 
     15 C15        -0.6111  -18.1822  -48.2786 C.3       23 UNK        -0.0205 
     16 S16         0.9703  -18.9104  -47.7383 S.3       23 UNK        -0.2404 
     17 C17         0.5285  -19.5266  -46.0820 C.3       23 UNK        -0.0398 
     18 CA          0.1964  -21.0352  -46.0934 C.3       11 UNK         0.1400 
     19 N           0.2723  -21.6316  -44.7615 N.am      11 UNK        -0.5000 
     20 C           0.3393  -22.9503  -44.5303 C.2       10 UNK         0.5000 
     21 O           0.4293  -23.7973  -45.4198 O.2       10 UNK        -0.5000 
     22 CA          0.2329  -23.3952  -43.0601 C.3       10 UNK         0.1400 
     23 CB          1.6168  -23.4237  -42.3956 C.3       10 UNK        -0.1800 
     24 N          -0.6681  -22.5352  -42.2889 N.am      10 UNK        -0.5000 
     25 C          -1.9976  -22.5066  -42.4667 C.2       9 UNK         0.5000 
     26 O          -2.5907  -23.2374  -43.2608 O.2       9 UNK        -0.5000 
     27 CA         -2.7963  -21.4598  -41.6656 C.3       9 UNK         0.1400 
     28 CB         -3.2516  -22.0470  -40.3218 C.3       9 UNK        -0.1800 
     29 N          -2.0699  -20.2115  -41.4228 N.am      9 UNK        -0.5000 
     30 C          -1.5819  -19.3933  -42.3657 C.2       8 UNK         0.5000 
     31 O          -1.6889  -19.6085  -43.5731 O.2       8 UNK        -0.5000 
     32 CA         -0.8136  -18.1431  -41.8888 C.3       8 UNK         0.1400 
     33 CB         -1.1842  -17.7012  -40.4568 C.3       8 UNK        -0.1800 
     34 N           0.6418  -18.2876  -41.9954 N.am      8 UNK        -0.5000 
     35 C           1.4078  -19.2841  -41.5231 C.2       7 UNK         0.5000 
     36 O           0.9729  -20.3246  -41.0274 O.2       7 UNK        -0.5000 
     37 CA          2.9280  -19.0576  -41.5853 C.3       7 UNK         0.1400 
     38 CB          3.4884  -19.4539  -42.9606 C.3       7 UNK        -0.1800 
     39 N           3.2868  -17.6682  -41.2857 N.am      7 UNK        -0.5000 
     40 C           3.2631  -17.1242  -40.0584 C.2       6 UNK         0.5000 
     41 O           2.9748  -17.7634  -39.0452 O.2       6 UNK        -0.5000 
     42 CA          3.6354  -15.6316  -39.9177 C.3       6 UNK         0.1400 
     43 CB          4.8832  -15.4666  -39.0325 C.3       6 UNK        -0.1800 
     44 N           3.9026  -14.9983  -41.2099 N.am      6 UNK        -0.5000 
     45 C           3.0595  -14.1980  -41.8750 C.2       5 UNK         0.5000 
     46 O           1.9718  -13.8244  -41.4315 O.2       5 UNK        -0.5000 
     47 CA          3.4845  -13.7662  -43.2991 C.3       5 UNK         0.1400 
     48 CB          4.9208  -14.1896  -43.6790 C.3       5 UNK        -0.1800 
     49 N           2.5625  -14.2289  -44.3424 N.am      5 UNK        -0.5000 
     50 C           2.0231  -15.4519  -44.4712 C.2       4 UNK         0.5000 
     51 O           2.1496  -16.3704  -43.6602 O.2       4 UNK        -0.5000 
     52 CA          1.2305  -15.7065  -45.7576 C.3       4 UNK         0.1400 
     53 CB         -0.1571  -15.0490  -45.6939 C.3       4 UNK        -0.1800 
     54 N           1.9600  -15.2719  -46.9506 N.am      4 UNK        -0.5000 
     55 C           3.0654  -15.8716  -47.4237 C.2       3 UNK         0.5000 
     56 O           3.6010  -16.8441  -46.8917 O.2       3 UNK        -0.5000 
     57 CA          3.6841  -15.2896  -48.7089 C.3       3 UNK         0.1400 
     58 CB          3.0571  -15.9408  -49.9508 C.3       3 UNK        -0.1800 
     59 N           3.5292  -13.8390  -48.7985 N.am      3 UNK        -0.5000 
     60 C           4.2440  -12.9567  -48.0858 C.2       2 UNK         0.5000 
     61 O           5.1784  -13.2686  -47.3480 O.2       2 UNK        -0.5000 
     62 CA          3.8259  -11.4767  -48.1958 C.3       2 UNK         0.1400 
     63 CB          4.6468  -10.7630  -49.2803 C.3       2 UNK        -0.1800 
     64 N           2.3984  -11.2992  -48.4783 N.am      2 UNK        -0.5000 
     65 C           1.4096  -11.6753  -47.6569 C.2       1 UNK         0.5000 
     66 O           1.6008  -12.1965  -46.5539 O.2       1 UNK        -0.5000 
     67 C          -1.1780  -21.3060  -46.7304 C.2       11 UNK         0.5000 
     68 O          -1.2332  -21.6813  -47.8987 O.2       11 UNK        -0.5000 
     69 N          -2.2596  -21.1439  -45.9531 N.am      12 UNK        -0.5000 
     70 CA         -3.6330  -21.4152  -46.3843 C.3       12 UNK         0.1400 
     71 CB         -4.6192  -21.0570  -45.2646 C.3       12 UNK        -0.1800 
     72 C          -3.8336  -22.8693  -46.8463 C.2       12 UNK         0.5000 
     73 O          -4.4768  -23.0906  -47.8719 O.2       12 UNK        -0.5000 
     74 N          -3.2315  -23.8219  -46.1206 N.am      13 UNK        -0.5000 
     75 CA         -3.1729  -25.2359  -46.4890 C.3       13 UNK         0.1400 
     76 CB         -2.5348  -26.0395  -45.3461 C.3       13 UNK        -0.1800 
     77 C          -2.4279  -25.4719  -47.8173 C.2       13 UNK         0.5000 
     78 O          -2.9565  -26.1618  -48.6900 O.2       13 UNK        -0.5000 
     79 N          -1.2451  -24.8566  -47.9698 N.am      14 UNK        -0.5000 
     80 CA         -0.4265  -24.9063  -49.1878 C.3       14 UNK         0.1400 
     81 CB          0.9360  -24.2510  -48.9155 C.3       14 UNK        -0.1800 
     82 C          -1.1095  -24.2612  -50.4120 C.2       14 UNK         0.5000 
     83 O          -0.9452  -24.7475  -51.5307 O.2       14 UNK        -0.5000 
     84 N          -1.9043  -23.2127  -50.1665 N.am      15 UNK        -0.5000 
     85 CA         -2.7501  -22.5137  -51.1346 C.3       15 UNK         0.1400 
     86 CB         -3.0585  -21.1109  -50.5849 C.3       15 UNK        -0.1800 
     87 C          -4.0503  -23.2673  -51.4947 C.2       15 UNK         0.5000 
     88 O          -4.8739  -22.7056  -52.2201 O.2       15 UNK        -0.5000 
     89 N          -4.2109  -24.5025  -50.9943 N.am      16 UNK        -0.5000 
     90 CA         -5.3288  -25.4275  -51.1960 C.3       16 UNK         0.1400 
     91 CB         -5.5191  -25.7685  -52.6883 C.3       16 UNK        -0.1800 
     92 C          -6.6142  -24.9330  -50.5107 C.2       16 UNK         0.5000 
     93 O          -7.6376  -24.7405  -51.1667 O.2       16 UNK        -0.5000 
     94 N          -6.5170  -24.7230  -49.1908 N.am      17 UNK        -0.5000 
     95 CA         -7.5565  -24.2040  -48.2937 C.3       17 UNK         0.1400 
     96 CB         -8.7664  -25.1593  -48.2191 C.3       17 UNK        -0.1800 
     97 C          -7.9371  -22.7512  -48.6413 C.2       17 UNK         0.5000 
     98 O          -9.1191  -22.4092  -48.7067 O.2       17 UNK        -0.5000 
     99 N          -6.8991  -21.9338  -48.8707 N.am      18 UNK        -0.5000 
    100 CA        -6.9384  -20.5148  -49.2384 C.3       18 UNK         0.1400 
    101 CB        -7.5176  -19.6659  -48.0876 C.3       18 UNK        -0.1800 
    102 C         -7.6235  -20.2339  -50.5946 C.2       18 UNK         0.5000 
    103 O         -8.1197  -19.1271  -50.8111 O.2       18 UNK        -0.5000 
    104 N         -7.6129  -21.2216  -51.5016 N.am      19 UNK        -0.5000 
    105 CA        -8.1171  -21.0956  -52.8724 C.3       19 UNK         0.1400 
    106 CB        -8.3567  -22.4983  -53.4495 C.3       19 UNK        -0.1800 
    107 C         -7.1702  -20.2977  -53.7907 C.2       19 UNK         0.5000 
    108 O         -7.5985  -19.8563  -54.8577 O.2       19 UNK        -0.5000 
    109 N         -5.9082  -20.1451  -53.3619 N.am      20 UNK        -0.5000 
    110 CA        -4.7893  -19.5185  -54.0689 C.3       20 UNK         0.1400 
    111 CB        -5.0621  -18.0307  -54.3729 C.3       20 UNK        -0.1800 
    112 C         -4.3646  -20.3352  -55.3030 C.2       20 UNK         0.5000 
    113 O         -4.0184  -19.7655  -56.3397 O.2       20 UNK        -0.5000 
    114 N         -4.3585  -21.6699  -55.1532 N.am      21 UNK        -0.5000 
    115 CA        -3.9201  -22.6345  -56.1714 C.3       21 UNK         0.1400 
    116 CB        -4.1926  -24.0553  -55.6577 C.3       21 UNK        -0.1800 
    117 C         -2.4387  -22.4778  -56.5785 C.2       21 UNK         0.5000 
    118 O         -2.0563  -22.8753  -57.6793 O.2       21 UNK        -0.5000 
    119 N         -1.6502  -21.8702  -55.6870 N.am      22 UNK        -0.5000 
    120 CA        -0.2843  -21.3805  -55.9044 C.3       22 UNK         0.1400 
    121 C         -0.1595  -20.1637  -56.8717 C.2       22 UNK         0.5000 
    122 N         -1.2371  -19.4895  -57.2575 N.am      22 UNK        -0.7600 
    123 O          0.9456  -19.8311  -57.2914 O.2       22 UNK        -0.5000 
    124 C124        0.4115  -21.1018  -54.5464 C.3       23 UNK        -0.0398 
    125 S125       -0.5791  -20.0478  -53.4232 S.3       23 UNK        -0.2404 
    126 C126        0.5257  -18.6219  -53.1705 C.3       23 UNK        -0.0205 
    127 H127       -2.5806   -8.9319  -45.5209 H         1 UNK         0.0600 
    128 H128       -1.3346   -9.5119  -44.4107 H         1 UNK         0.0600 
    129 H129       -2.4758  -10.6506  -45.1301 H         1 UNK         0.0600 
    130 H130       -1.5395  -11.8488  -46.7496 H         1 UNK         0.3000 
    131 H131       -0.0402  -10.6923  -48.9163 H         1 UNK         0.0600 
    132 H132       -0.3125  -13.6761  -48.2771 H         1 UNK         0.0800 
    133 H133       -1.6081  -12.7574  -48.9905 H         1 UNK         0.0800 
    134 H134       -2.0410  -13.9498  -50.9436 H         1 UNK         0.0800 
    135 H135       -1.0779  -13.9253  -52.3919 H         1 UNK         0.0800 
    136 H136       -0.1602  -15.9613  -53.1760 H         1 UNK         0.1150 
    137 H137        0.1860  -19.3575  -50.5880 H         1 UNK         0.1150 
    138 H138       -1.1851  -15.6179  -49.0246 H         1 UNK         0.1150 
    139 H139       -0.9402  -17.4496  -47.5418 H         1 UNK         0.0800 
    140 H140       -1.3824  -18.9507  -48.3212 H         1 UNK         0.0800 
    141 H141       -0.2832  -18.9318  -45.6611 H         1 UNK         0.0800 
    142 H142        1.3924  -19.3463  -45.4414 H         1 UNK         0.0800 
    143 H143        0.9469  -21.5369  -46.7090 H         1 UNK         0.0600 
    144 H144        0.1150  -21.0119  -43.9794 H         1 UNK         0.3000 
    145 H145       -0.1691  -24.4107  -43.0487 H         1 UNK         0.0600 
    146 H146        1.5532  -23.7840  -41.3688 H         1 UNK         0.0600 
    147 H147        2.2933  -24.0895  -42.9330 H         1 UNK         0.0600 
    148 H148        2.0766  -22.4362  -42.3753 H         1 UNK         0.0600 
    149 H149       -0.2394  -21.8741  -41.6484 H         1 UNK         0.3000 
    150 H150       -3.6867  -21.2102  -42.2445 H         1 UNK         0.0600 
    151 H151       -3.8188  -22.9672  -40.4696 H         1 UNK         0.0600 
    152 H152       -3.8977  -21.3517  -39.7854 H         1 UNK         0.0600 
    153 H153       -2.4033  -22.2835  -39.6782 H         1 UNK         0.0600 
    154 H154       -1.8956  -19.9755  -40.4569 H         1 UNK         0.3000 
    155 H155       -1.0956  -17.3363  -42.5670 H         1 UNK         0.0600 
    156 H156       -0.8478  -18.4149  -39.7038 H         1 UNK         0.0600 
    157 H157       -0.7276  -16.7399  -40.2203 H         1 UNK         0.0600 
    158 H158       -2.2627  -17.5792  -40.3466 H         1 UNK         0.0600 
    159 H159        1.1252  -17.5146  -42.4448 H         1 UNK         0.3000 
    160 H160        3.3898  -19.7044  -40.8362 H         1 UNK         0.0600 
    161 H161        3.0962  -18.8243  -43.7588 H         1 UNK         0.0600 
    162 H162        3.2366  -20.4859  -43.2060 H         1 UNK         0.0600 
    163 H163        4.5753  -19.3730  -42.9784 H         1 UNK         0.0600 
    164 H164        3.4233  -17.0597  -42.0837 H         1 UNK         0.3000 
    165 H165        2.7984  -15.1372  -39.4195 H         1 UNK         0.0600 
    166 H166        5.1347  -14.4139  -38.8992 H         1 UNK         0.0600 
    167 H167        4.7201  -15.8867  -38.0390 H         1 UNK         0.0600 
    168 H168        5.7518  -15.9677  -39.4627 H         1 UNK         0.0600 
    169 H169        4.7740  -15.2490  -41.6556 H         1 UNK         0.3000 
    170 H170        3.4453  -12.6761  -43.3107 H         1 UNK         0.0600 
    171 H171        5.0253  -15.2737  -43.7423 H         1 UNK         0.0600 
    172 H172        5.1985  -13.7807  -44.6504 H         1 UNK         0.0600 
    173 H173        5.6517  -13.8169  -42.9603 H         1 UNK         0.0600 
    174 H174        2.3424  -13.5475  -45.0611 H         1 UNK         0.3000 
    175 H175        1.0800  -16.7820  -45.8292 H         1 UNK         0.0600 
    176 H176       -0.7517  -15.2878  -46.5740 H         1 UNK         0.0600 
    177 H177       -0.0947  -13.9643  -45.6121 H         1 UNK         0.0600 
    178 H178       -0.7125  -15.4069  -44.8259 H         1 UNK         0.0600 
    179 H179        1.6410  -14.4277  -47.3989 H         1 UNK         0.3000 
    180 H180        4.7498  -15.5286  -48.7034 H         1 UNK         0.0600 
    181 H181        1.9994  -15.6957  -50.0395 H         1 UNK         0.0600 
    182 H182        3.1365  -17.0281  -49.9076 H         1 UNK         0.0600 
    183 H183        3.5539  -15.6129  -50.8638 H         1 UNK         0.0600 
    184 H184        2.7959  -13.4938  -49.4007 H         1 UNK         0.3000 
    185 H185        4.0396  -11.0027  -47.2355 H         1 UNK         0.0600 
    186 H186        4.4560  -11.1800  -50.2699 H         1 UNK         0.0600 
    187 H187        4.4159   -9.6980  -49.3133 H         1 UNK         0.0600 
    188 H188        5.7160  -10.8563  -49.0852 H         1 UNK         0.0600 
    189 H189        2.1652  -10.8928  -49.3733 H         1 UNK         0.3000 
    190 H190       -2.1333  -20.7747  -45.0148 H         1 UNK         0.3000 
    191 H191       -3.8407  -20.7647  -47.2359 H         1 UNK         0.0600 
    192 H192       -4.4940  -20.0237  -44.9403 H         1 UNK         0.0600 
    193 H193       -5.6491  -21.1718  -45.6039 H         1 UNK         0.0600 
    194 H194       -4.4937  -21.7016  -44.3959 H         1 UNK         0.0600 
    195 H195       -2.7732  -23.5557  -45.2550 H         1 UNK         0.3000 
    196 H196       -4.1988  -25.5873  -46.6168 H         1 UNK         0.0600 
    197 H197       -2.4991  -27.1024  -45.5880 H         1 UNK         0.0600 
    198 H198       -3.1075  -25.9341  -44.4244 H         1 UNK         0.0600 
    199 H199       -1.5146  -25.7138  -45.1422 H         1 UNK         0.0600 
    200 H200       -0.8809  -24.3029  -47.2040 H         1 UNK         0.3000 
    201 H201       -0.2545  -25.9580  -49.4253 H         1 UNK         0.0600 
    202 H202        1.4483  -24.7354  -48.0840 H         1 UNK         0.0600 
    203 H203        0.8351  -23.1927  -48.6746 H         1 UNK         0.0600 
    204 H204        1.5861  -24.3268  -49.7880 H         1 UNK         0.0600 
    205 H205       -1.8984  -22.8291  -49.2243 H         1 UNK         0.3000 
    206 H206       -2.1862  -22.3978  -52.0619 H         1 UNK         0.0600 
    207 H207       -2.1406  -20.5512  -50.4048 H         1 UNK         0.0600 
    208 H208       -3.6574  -20.5269  -51.2818 H         1 UNK         0.0600 
    209 H209       -3.6059  -21.1626  -49.6448 H         1 UNK         0.0600 
    210 H210       -3.4879  -24.8464  -50.3745 H         1 UNK         0.3000 
    211 H211       -5.0491  -26.3528  -50.6901 H         1 UNK         0.0600 
    212 H212       -5.8634  -24.9092  -53.2620 H         1 UNK         0.0600 
    213 H213       -6.2614  -26.5574  -52.8131 H         1 UNK         0.0600 
    214 H214       -4.5899  -26.1221  -53.1346 H         1 UNK         0.0600 
    215 H215       -5.6006  -24.8128  -48.7707 H         1 UNK         0.3000 
    216 H216       -7.1092  -24.1692  -47.2991 H         1 UNK         0.0600 
    217 H217       -9.4692  -24.8356  -47.4506 H         1 UNK         0.0600 
    218 H218       -8.4535  -26.1723  -47.9662 H         1 UNK         0.0600 
    219 H219       -9.3132  -25.2017  -49.1613 H         1 UNK         0.0600 
    220 H220       -5.9719  -22.3351  -48.7531 H         1 UNK         0.3000 
    221 H221       -5.8984  -20.2137  -49.3682 H         1 UNK         0.0600 
    222 H222       -8.5792  -19.8616  -47.9344 H         1 UNK         0.0600 
    223 H223       -7.0007  -19.8659  -47.1498 H         1 UNK         0.0600 
    224 H224       -7.4089  -18.6003  -48.2925 H         1 UNK         0.0600 
    225 H225       -7.1912  -22.1081  -51.2580 H         1 UNK         0.3000 
    226 H226       -9.0736  -20.5696  -52.8464 H         1 UNK         0.0600 
    227 H227       -9.0721  -23.0561  -52.8451 H         1 UNK         0.0600 
    228 H228       -8.7598  -22.4440  -54.4615 H         1 UNK         0.0600 
    229 H229       -7.4327  -23.0753  -53.4947 H         1 UNK         0.0600 
    230 H230       -5.6659  -20.6388  -52.5128 H         1 UNK         0.3000 
    231 H231       -3.9390  -19.5516  -53.3874 H         1 UNK         0.0600 
    232 H232       -5.8406  -17.9022  -55.1250 H         1 UNK         0.0600 
    233 H233       -4.1632  -17.5417  -54.7501 H         1 UNK         0.0600 
    234 H234       -5.3695  -17.4950  -53.4748 H         1 UNK         0.0600 
    235 H235       -4.6624  -22.0553  -54.2658 H         1 UNK         0.3000 
    236 H236       -4.5222  -22.4704  -57.0672 H         1 UNK         0.0600 
    237 H237       -5.2568  -24.2085  -55.4793 H         1 UNK         0.0600 
    238 H238       -3.8760  -24.8042  -56.3848 H         1 UNK         0.0600 
    239 H239       -3.6607  -24.2543  -54.7264 H         1 UNK         0.0600 
    240 H240       -2.0671  -21.5785  -54.8160 H         1 UNK         0.3000 
    241 H241        0.2658  -22.1894  -56.3884 H         1 UNK         0.0600 
    242 H242       -1.1283  -18.7119  -57.8885 H         1 UNK         0.3800 
    243 H243       -2.1644  -19.7259  -56.9186 H         1 UNK         0.3800 
    244 H244        0.5794  -22.0491  -54.0322 H         1 UNK         0.0800 
    245 H245        1.4049  -20.6748  -54.6943 H         1 UNK         0.0800 
    246 H246        1.5348  -18.9732  -52.9511 H         1 UNK         0.0800 
    247 H247        0.5841  -18.0455  -54.0951 H         1 UNK         0.0800 
@<TRIPOS>BOND
     1    1    2 1    
     2    1  127 1    
     3    1  128 1    
     4    1  129 1    
     5    2    3 2    
     6    2    4 am   BACKBONE|DICT|INTERRES
     7    4    5 1    
     8    4  130 1    
     9    5    6 1    
    10    5   65 1    
    11    5  131 1    
    12    6    7 1    
    13    6  132 1    
    14    6  133 1    
    15    7    8 1    
    16    8    9 1    
    17    8  134 1    
    18    8  135 1    
    19    9   10 ar   
    20    9   14 ar   
    21   10   11 ar   
    22   10  136 1    
    23   11   12 ar   
    24   11  126 1    
    25   12   13 ar   
    26   12  137 1    
    27   13   14 ar   
    28   13   15 1    
    29   14  138 1    
    30   15   16 1    
    31   15  139 1    
    32   15  140 1    
    33   16   17 1    
    34   17   18 1    
    35   17  141 1    
    36   17  142 1    
    37   18   19 1    
    38   18   67 1    
    39   18  143 1    
    40   19   20 am   BACKBONE|DICT|INTERRES
    41   19  144 1    
    42   20   21 2    
    43   20   22 1    
    44   22   23 1    
    45   22   24 1    
    46   22  145 1    
    47   23  146 1    
    48   23  147 1    
    49   23  148 1    
    50   24   25 am   BACKBONE|DICT|INTERRES
    51   24  149 1    
    52   25   26 2    
    53   25   27 1    
    54   27   28 1    
    55   27   29 1    
    56   27  150 1    
    57   28  151 1    
    58   28  152 1    
    59   28  153 1    
    60   29   30 am   BACKBONE|DICT|INTERRES
    61   29  154 1    
    62   30   31 2    
    63   30   32 1    
    64   32   33 1    
    65   32   34 1    
    66   32  155 1    
    67   33  156 1    
    68   33  157 1    
    69   33  158 1    
    70   34   35 am   BACKBONE|DICT|INTERRES
    71   34  159 1    
    72   35   36 2    
    73   35   37 1    
    74   37   38 1    
    75   37   39 1    
    76   37  160 1    
    77   38  161 1    
    78   38  162 1    
    79   38  163 1    
    80   39   40 am   BACKBONE|DICT|INTERRES
    81   39  164 1    
    82   40   41 2    
    83   40   42 1    
    84   42   43 1    
    85   42   44 1    
    86   42  165 1    
    87   43  166 1    
    88   43  167 1    
    89   43  168 1    
    90   44   45 am   BACKBONE|DICT|INTERRES
    91   44  169 1    
    92   45   46 2    
    93   45   47 1    
    94   47   48 1    
    95   47   49 1    
    96   47  170 1    
    97   48  171 1    
    98   48  172 1    
    99   48  173 1    
   100   49   50 am   BACKBONE|DICT|INTERRES
   101   49  174 1    
   102   50   51 2    
   103   50   52 1    
   104   52   53 1    
   105   52   54 1    
   106   52  175 1    
   107   53  176 1    
   108   53  177 1    
   109   53  178 1    
   110   54   55 am   BACKBONE|DICT|INTERRES
   111   54  179 1    
   112   55   56 2    
   113   55   57 1    
   114   57   58 1    
   115   57   59 1    
   116   57  180 1    
   117   58  181 1    
   118   58  182 1    
   119   58  183 1    
   120   59   60 am   BACKBONE|DICT|INTERRES
   121   59  184 1    
   122   60   61 2    
   123   60   62 1    
   124   62   63 1    
   125   62   64 1    
   126   62  185 1    
   127   63  186 1    
   128   63  187 1    
   129   63  188 1    
   130   64   65 am   BACKBONE|DICT|INTERRES
   131   64  189 1    
   132   65   66 2    
   133   67   68 2    
   134   67   69 am   BACKBONE|DICT|INTERRES
   135   69   70 1    
   136   69  190 1    
   137   70   71 1    
   138   70   72 1    
   139   70  191 1    
   140   71  192 1    
   141   71  193 1    
   142   71  194 1    
   143   72   73 2    
   144   72   74 am   BACKBONE|DICT|INTERRES
   145   74   75 1    
   146   74  195 1    
   147   75   76 1    
   148   75   77 1    
   149   75  196 1    
   150   76  197 1    
   151   76  198 1    
   152   76  199 1    
   153   77   78 2    
   154   77   79 am   BACKBONE|DICT|INTERRES
   155   79   80 1    
   156   79  200 1    
   157   80   81 1    
   158   80   82 1    
   159   80  201 1    
   160   81  202 1    
   161   81  203 1    
   162   81  204 1    
   163   82   83 2    
   164   82   84 am   BACKBONE|DICT|INTERRES
   165   84   85 1    
   166   84  205 1    
   167   85   86 1    
   168   85   87 1    
   169   85  206 1    
   170   86  207 1    
   171   86  208 1    
   172   86  209 1    
   173   87   88 2    
   174   87   89 am   BACKBONE|DICT|INTERRES
   175   89   90 1    
   176   89  210 1    
   177   90   91 1    
   178   90   92 1    
   179   90  211 1    
   180   91  212 1    
   181   91  213 1    
   182   91  214 1    
   183   92   93 2    
   184   92   94 am   BACKBONE|DICT|INTERRES
   185   94   95 1    
   186   94  215 1    
   187   95   96 1    
   188   95   97 1    
   189   95  216 1    
   190   96  217 1    
   191   96  218 1    
   192   96  219 1    
   193   97   98 2    
   194   97   99 am   BACKBONE|DICT|INTERRES
   195   99  100 1    
   196   99  220 1    
   197  100  101 1    
   198  100  102 1    
   199  100  221 1    
   200  101  222 1    
   201  101  223 1    
   202  101  224 1    
   203  102  103 2    
   204  102  104 am   BACKBONE|DICT|INTERRES
   205  104  105 1    
   206  104  225 1    
   207  105  106 1    
   208  105  107 1    
   209  105  226 1    
   210  106  227 1    
   211  106  228 1    
   212  106  229 1    
   213  107  108 2    
   214  107  109 am   BACKBONE|DICT|INTERRES
   215  109  110 1    
   216  109  230 1    
   217  110  111 1    
   218  110  112 1    
   219  110  231 1    
   220  111  232 1    
   221  111  233 1    
   222  111  234 1    
   223  112  113 2    
   224  112  114 am   BACKBONE|DICT|INTERRES
   225  114  115 1    
   226  114  235 1    
   227  115  116 1    
   228  115  117 1    
   229  115  236 1    
   230  116  237 1    
   231  116  238 1    
   232  116  239 1    
   233  117  118 2    
   234  117  119 am   BACKBONE|DICT|INTERRES
   235  119  120 1    
   236  119  240 1    
   237  120  121 1    
   238  120  124 1    
   239  120  241 1    
   240  121  122 am   BACKBONE|DICT|INTERRES
   241  121  123 2    
   242  122  242 1    
   243  122  243 1    
   244  124  125 1    
   245  124  244 1    
   246  124  245 1    
   247  125  126 1    
   248  126  246 1    
   249  126  247 1    
@<TRIPOS>SUBSTRUCTURE
     1 UNK         1 GROUP             0       ****    0 ROOT    
