@<TRIPOS>MOLECULE
3R540
247   249    1
SMALL
USER_CHARGES


@<TRIPOS>ATOM
      1 CA         -1.6649  -15.1448  -51.8597 C.3       0 UNK        -0.1800 
      2 C          -0.5046  -15.3655  -50.9008 C.2       0 UNK         0.5000 
      3 O           0.6475  -15.4188  -51.3312 O.2       0 UNK        -0.5000 
      4 N          -0.7985  -15.4776  -49.5999 N.am      1 UNK        -0.5000 
      5 CA          0.1575  -15.7442  -48.5149 C.3       1 UNK         0.1400 
      6 C6         -0.5266  -16.4150  -47.2931 C.3       23 UNK        -0.0398 
      7 S7         -1.5206  -17.8845  -47.7240 S.3       23 UNK        -0.2404 
      8 C8         -3.1626  -17.3385  -47.1531 C.3       23 UNK        -0.0205 
      9 C9         -4.2229  -18.4050  -47.3712 C.ar      23 UNK        -0.0193 
     10 C10        -5.2445  -18.2121  -48.3063 C.ar      23 UNK        -0.1150 
     11 C11        -6.2169  -19.1968  -48.5075 C.ar      23 UNK        -0.0193 
     12 C12        -6.1410  -20.3924  -47.7873 C.ar      23 UNK        -0.1150 
     13 C13        -5.1217  -20.5987  -46.8531 C.ar      23 UNK        -0.0193 
     14 C14        -4.1889  -19.5849  -46.6238 C.ar      23 UNK        -0.1150 
     15 C15        -5.0310  -21.9158  -46.0973 C.3       23 UNK        -0.0205 
     16 S16        -3.7954  -23.0329  -46.8455 S.3       23 UNK        -0.2404 
     17 C17        -2.3294  -22.7450  -45.7969 C.3       23 UNK        -0.0398 
     18 CA         -1.3366  -21.7079  -46.3853 C.3       11 UNK         0.1400 
     19 N          -0.6623  -20.9195  -45.3446 N.am      11 UNK        -0.5000 
     20 C           0.0993  -21.3588  -44.3338 C.2       10 UNK         0.5000 
     21 O           0.3984  -22.5422  -44.1720 O.2       10 UNK        -0.5000 
     22 CA          0.6321  -20.3059  -43.3474 C.3       10 UNK         0.1400 
     23 CB          1.7009  -19.4137  -44.0012 C.3       10 UNK        -0.1800 
     24 N          -0.4244  -19.5181  -42.7079 N.am      10 UNK        -0.5000 
     25 C          -1.2759  -18.6356  -43.2543 C.2       9 UNK         0.5000 
     26 O          -1.2351  -18.2975  -44.4366 O.2       9 UNK        -0.5000 
     27 CA         -2.3717  -18.0537  -42.3302 C.3       9 UNK         0.1400 
     28 CB         -3.6384  -17.6273  -43.0992 C.3       9 UNK        -0.1800 
     29 N          -2.7208  -18.9386  -41.2135 N.am      9 UNK        -0.5000 
     30 C          -3.1691  -20.2036  -41.2791 C.2       8 UNK         0.5000 
     31 O          -3.5002  -20.7595  -42.3276 O.2       8 UNK        -0.5000 
     32 CA         -3.2068  -20.9892  -39.9462 C.3       8 UNK         0.1400 
     33 CB         -2.9762  -22.5010  -40.1514 C.3       8 UNK        -0.1800 
     34 N          -2.2847  -20.4638  -38.9261 N.am      8 UNK        -0.5000 
     35 C          -0.9535  -20.3255  -39.0282 C.2       7 UNK         0.5000 
     36 O          -0.2935  -20.6745  -40.0086 O.2       7 UNK        -0.5000 
     37 CA         -0.2568  -19.5869  -37.8709 C.3       7 UNK         0.1400 
     38 CB          0.9995  -20.3403  -37.4045 C.3       7 UNK        -0.1800 
     39 N           0.1212  -18.2222  -38.2473 N.am      7 UNK        -0.5000 
     40 C          -0.7104  -17.2528  -38.6588 C.2       6 UNK         0.5000 
     41 O          -1.9271  -17.3996  -38.7820 O.2       6 UNK        -0.5000 
     42 CA         -0.0830  -15.8852  -38.9905 C.3       6 UNK         0.1400 
     43 CB         -0.1709  -14.9485  -37.7762 C.3       6 UNK        -0.1800 
     44 N           1.3137  -15.9794  -39.4221 N.am      6 UNK        -0.5000 
     45 C           1.6977  -16.4118  -40.6294 C.2       5 UNK         0.5000 
     46 O           0.9119  -16.7798  -41.5040 O.2       5 UNK        -0.5000 
     47 CA          3.2182  -16.4775  -40.8745 C.3       5 UNK         0.1400 
     48 CB          3.7685  -17.8311  -40.3968 C.3       5 UNK        -0.1800 
     49 N           3.5785  -16.2959  -42.2821 N.am      5 UNK        -0.5000 
     50 C           3.3779  -15.1799  -42.9952 C.2       4 UNK         0.5000 
     51 O           2.9054  -14.1410  -42.5244 O.2       4 UNK        -0.5000 
     52 CA          3.7745  -15.2584  -44.4834 C.3       4 UNK         0.1400 
     53 CB          2.8777  -16.2445  -45.2439 C.3       4 UNK        -0.1800 
     54 N           3.6879  -13.9584  -45.1445 N.am      4 UNK        -0.5000 
     55 C           4.6422  -13.0197  -45.1061 C.2       3 UNK         0.5000 
     56 O           5.7070  -13.1639  -44.5013 O.2       3 UNK        -0.5000 
     57 CA          4.3645  -11.7013  -45.8654 C.3       3 UNK         0.1400 
     58 CB          5.6541  -11.0429  -46.3999 C.3       3 UNK        -0.1800 
     59 N           3.3632  -11.8163  -46.9353 N.am      3 UNK        -0.5000 
     60 C           3.4266  -12.5813  -48.0353 C.2       2 UNK         0.5000 
     61 O           4.3662  -13.3291  -48.3142 O.2       2 UNK        -0.5000 
     62 CA          2.2136  -12.5002  -48.9801 C.3       2 UNK         0.1400 
     63 CB          2.6316  -12.0176  -50.3781 C.3       2 UNK        -0.1800 
     64 N           1.5166  -13.7794  -49.1058 N.am      2 UNK        -0.5000 
     65 C           0.9331  -14.4633  -48.1132 C.2       1 UNK         0.5000 
     66 O           0.9584  -14.0933  -46.9371 O.2       1 UNK        -0.5000 
     67 C          -0.3663  -22.3222  -47.4161 C.2       11 UNK         0.5000 
     68 O          -0.6089  -22.2175  -48.6197 O.2       11 UNK        -0.5000 
     69 N           0.7551  -22.8847  -46.9470 N.am      12 UNK        -0.5000 
     70 CA          1.8734  -23.3859  -47.7506 C.3       12 UNK         0.1400 
     71 CB          2.9092  -24.0319  -46.8200 C.3       12 UNK        -0.1800 
     72 C           2.5312  -22.2939  -48.6172 C.2       12 UNK         0.5000 
     73 O           3.0175  -22.5948  -49.7067 O.2       12 UNK        -0.5000 
     74 N           2.4654  -21.0372  -48.1533 N.am      13 UNK        -0.5000 
     75 CA          2.8736  -19.8351  -48.8848 C.3       13 UNK         0.1400 
     76 CB          2.7849  -18.6307  -47.9360 C.3       13 UNK        -0.1800 
     77 C           2.0466  -19.5794  -50.1633 C.2       13 UNK         0.5000 
     78 O           2.5586  -18.9677  -51.1001 O.2       13 UNK        -0.5000 
     79 N           0.8053  -20.0822  -50.1889 N.am      14 UNK        -0.5000 
     80 CA         -0.0968  -20.0758  -51.3386 C.3       14 UNK         0.1400 
     81 CB         -1.4768  -19.5767  -50.8792 C.3       14 UNK        -0.1800 
     82 C          -0.1914  -21.4694  -51.9917 C.2       14 UNK         0.5000 
     83 O          -1.1478  -21.7231  -52.7244 O.2       14 UNK        -0.5000 
     84 N           0.7774  -22.3562  -51.7134 N.am      15 UNK        -0.5000 
     85 CA          0.8716  -23.7414  -52.1894 C.3       15 UNK         0.1400 
     86 CB          1.1014  -23.7799  -53.7149 C.3       15 UNK        -0.1800 
     87 C          -0.3262  -24.6041  -51.7407 C.2       15 UNK         0.5000 
     88 O          -0.8698  -25.3686  -52.5376 O.2       15 UNK        -0.5000 
     89 N          -0.7349  -24.4310  -50.4749 N.am      16 UNK        -0.5000 
     90 CA         -1.9296  -25.0062  -49.8472 C.3       16 UNK         0.1400 
     91 CB         -1.8576  -26.5465  -49.7858 C.3       16 UNK        -0.1800 
     92 C          -3.2158  -24.4673  -50.5036 C.2       16 UNK         0.5000 
     93 O          -4.1171  -25.2374  -50.8377 O.2       16 UNK        -0.5000 
     94 N          -3.2397  -23.1393  -50.6976 N.am      17 UNK        -0.5000 
     95 CA         -4.3047  -22.3215  -51.2941 C.3       17 UNK         0.1400 
     96 CB         -5.6336  -22.5386  -50.5459 C.3       17 UNK        -0.1800 
     97 C          -4.4803  -22.4927  -52.8198 C.2       17 UNK         0.5000 
     98 O          -5.3589  -21.8488  -53.3988 O.2       17 UNK        -0.5000 
     99 N          -3.6573  -23.3376  -53.4553 N.am      18 UNK        -0.5000 
    100 CA        -3.7409  -23.6761  -54.8742 C.3       18 UNK         0.1400 
    101 CB        -2.9968  -24.9949  -55.1279 C.3       18 UNK        -0.1800 
    102 C         -3.1990  -22.5722  -55.7967 C.2       18 UNK         0.5000 
    103 O         -3.7818  -22.3409  -56.8559 O.2       18 UNK        -0.5000 
    104 N         -2.1119  -21.9010  -55.3889 N.am      19 UNK        -0.5000 
    105 CA        -1.4794  -20.8283  -56.1645 C.3       19 UNK         0.1400 
    106 CB        -0.0216  -20.6414  -55.7172 C.3       19 UNK        -0.1800 
    107 C         -2.2554  -19.5059  -56.0525 C.2       19 UNK         0.5000 
    108 O         -2.2829  -18.7309  -57.0088 O.2       19 UNK        -0.5000 
    109 N         -2.8996  -19.2924  -54.8975 N.am      20 UNK        -0.5000 
    110 CA        -3.8316  -18.1887  -54.6602 C.3       20 UNK         0.1400 
    111 CB        -3.9595  -17.9696  -53.1474 C.3       20 UNK        -0.1800 
    112 C         -5.2163  -18.4327  -55.2953 C.2       20 UNK         0.5000 
    113 O         -5.9788  -17.4790  -55.4546 O.2       20 UNK        -0.5000 
    114 N         -5.5056  -19.6966  -55.6443 N.am      21 UNK        -0.5000 
    115 CA        -6.7472  -20.2104  -56.2280 C.3       21 UNK         0.1400 
    116 CB        -6.9467  -19.6641  -57.6570 C.3       21 UNK        -0.1800 
    117 C         -7.9635  -19.9826  -55.3078 C.2       21 UNK         0.5000 
    118 O         -9.0210  -19.5482  -55.7697 O.2       21 UNK        -0.5000 
    119 N         -7.7762  -20.2707  -54.0153 N.am      22 UNK        -0.5000 
    120 CA        -8.7648  -20.0629  -52.9457 C.3       22 UNK         0.1400 
    121 C         -9.0698  -21.3403  -52.1116 C.2       22 UNK         0.5000 
    122 N         -8.5238  -22.5017  -52.4527 N.am      22 UNK        -0.7600 
    123 O         -9.8421  -21.2869  -51.1584 O.2       22 UNK        -0.5000 
    124 C124       -8.4140  -18.8240  -52.0793 C.3       23 UNK        -0.0398 
    125 S125       -6.8123  -18.9463  -51.2075 S.3       23 UNK        -0.2404 
    126 C126       -7.3659  -18.9591  -49.4766 C.3       23 UNK        -0.0205 
    127 H127       -1.7025  -14.1001  -52.1680 H         1 UNK         0.0600 
    128 H128       -1.5370  -15.7581  -52.7516 H         1 UNK         0.0600 
    129 H129       -2.6203  -15.4041  -51.4027 H         1 UNK         0.0600 
    130 H130       -1.7624  -15.4041  -49.3100 H         1 UNK         0.3000 
    131 H131        0.8999  -16.4497  -48.8931 H         1 UNK         0.0600 
    132 H132        0.2223  -16.7370  -46.5698 H         1 UNK         0.0800 
    133 H133       -1.1573  -15.6969  -46.7663 H         1 UNK         0.0800 
    134 H134       -3.4350  -16.4160  -47.6676 H         1 UNK         0.0800 
    135 H135       -3.1116  -17.0997  -46.0914 H         1 UNK         0.0800 
    136 H136       -5.2910  -17.2941  -48.8752 H         1 UNK         0.1150 
    137 H137       -6.8793  -21.1644  -47.9526 H         1 UNK         0.1150 
    138 H138       -3.4169  -19.7205  -45.8799 H         1 UNK         0.1150 
    139 H139       -4.8091  -21.7288  -45.0456 H         1 UNK         0.0800 
    140 H140       -5.9993  -22.4180  -46.1113 H         1 UNK         0.0800 
    141 H141       -2.6754  -22.4177  -44.8155 H         1 UNK         0.0800 
    142 H142       -1.8362  -23.7014  -45.6143 H         1 UNK         0.0800 
    143 H143       -1.9053  -20.9719  -46.9508 H         1 UNK         0.0600 
    144 H144       -0.8564  -19.9200  -45.3560 H         1 UNK         0.3000 
    145 H145        1.1170  -20.8505  -42.5356 H         1 UNK         0.0600 
    146 H146        2.0989  -18.6990  -43.2817 H         1 UNK         0.0600 
    147 H147        2.5369  -20.0103  -44.3677 H         1 UNK         0.0600 
    148 H148        1.3045  -18.8527  -44.8477 H         1 UNK         0.0600 
    149 H149       -0.5574  -19.7451  -41.7271 H         1 UNK         0.3000 
    150 H150       -1.9403  -17.1583  -41.8806 H         1 UNK         0.0600 
    151 H151       -3.4162  -16.8142  -43.7899 H         1 UNK         0.0600 
    152 H152       -4.4117  -17.2686  -42.4201 H         1 UNK         0.0600 
    153 H153       -4.0561  -18.4500  -43.6804 H         1 UNK         0.0600 
    154 H154       -2.4958  -18.5697  -40.2942 H         1 UNK         0.3000 
    155 H155       -4.2135  -20.8579  -39.5473 H         1 UNK         0.0600 
    156 H156       -3.0063  -23.0373  -39.2029 H         1 UNK         0.0600 
    157 H157       -2.0130  -22.7031  -40.6212 H         1 UNK         0.0600 
    158 H158       -3.7474  -22.9326  -40.7904 H         1 UNK         0.0600 
    159 H159       -2.7328  -20.0911  -38.1000 H         1 UNK         0.3000 
    160 H160       -0.9459  -19.5242  -37.0263 H         1 UNK         0.0600 
    161 H161        1.7573  -20.3869  -38.1880 H         1 UNK         0.0600 
    162 H162        0.7568  -21.3653  -37.1213 H         1 UNK         0.0600 
    163 H163        1.4470  -19.8607  -36.5337 H         1 UNK         0.0600 
    164 H164        1.1057  -18.0076  -38.2056 H         1 UNK         0.3000 
    165 H165       -0.6675  -15.4439  -39.8009 H         1 UNK         0.0600 
    166 H166        0.4054  -15.3274  -36.9312 H         1 UNK         0.0600 
    167 H167        0.2015  -13.9528  -38.0182 H         1 UNK         0.0600 
    168 H168       -1.2040  -14.8352  -37.4443 H         1 UNK         0.0600 
    169 H169        2.0139  -15.6917  -38.7535 H         1 UNK         0.3000 
    170 H170        3.6981  -15.6812  -40.3018 H         1 UNK         0.0600 
    171 H171        3.5631  -17.9877  -39.3372 H         1 UNK         0.0600 
    172 H172        3.3201  -18.6626  -40.9426 H         1 UNK         0.0600 
    173 H173        4.8495  -17.8872  -40.5269 H         1 UNK         0.0600 
    174 H174        3.9506  -17.1083  -42.7501 H         1 UNK         0.3000 
    175 H175        4.8048  -15.6154  -44.5463 H         1 UNK         0.0600 
    176 H176        1.8231  -16.0830  -45.0176 H         1 UNK         0.0600 
    177 H177        3.0113  -16.1555  -46.3220 H         1 UNK         0.0600 
    178 H178        3.1258  -17.2698  -44.9770 H         1 UNK         0.0600 
    179 H179        2.8264  -13.7607  -45.6380 H         1 UNK         0.3000 
    180 H180        3.9355  -11.0231  -45.1265 H         1 UNK         0.0600 
    181 H181        6.3419  -10.8081  -45.5867 H         1 UNK         0.0600 
    182 H182        6.1827  -11.6947  -47.0961 H         1 UNK         0.0600 
    183 H183        5.4354  -10.1078  -46.9156 H         1 UNK         0.0600 
    184 H184        2.5261  -11.2678  -46.7926 H         1 UNK         0.3000 
    185 H185        1.5001  -11.7784  -48.5774 H         1 UNK         0.0600 
    186 H186        3.3063  -12.7247  -50.8627 H         1 UNK         0.0600 
    187 H187        1.7646  -11.8851  -51.0256 H         1 UNK         0.0600 
    188 H188        3.1460  -11.0574  -50.3223 H         1 UNK         0.0600 
    189 H189        1.4498  -14.1736  -50.0391 H         1 UNK         0.3000 
    190 H190        0.8586  -22.9306  -45.9361 H         1 UNK         0.3000 
    191 H191        1.4863  -24.1545  -48.4221 H         1 UNK         0.0600 
    192 H192        3.7487  -24.4350  -47.3882 H         1 UNK         0.0600 
    193 H193        2.4723  -24.8573  -46.2575 H         1 UNK         0.0600 
    194 H194        3.3102  -23.3135  -46.1038 H         1 UNK         0.0600 
    195 H195        2.0460  -20.8909  -47.2478 H         1 UNK         0.3000 
    196 H196        3.9153  -19.9620  -49.1866 H         1 UNK         0.0600 
    197 H197        3.0883  -17.7117  -48.4393 H         1 UNK         0.0600 
    198 H198        3.4414  -18.7599  -47.0755 H         1 UNK         0.0600 
    199 H199        1.7698  -18.4864  -47.5650 H         1 UNK         0.0600 
    200 H200        0.4722  -20.6049  -49.3877 H         1 UNK         0.3000 
    201 H201        0.2672  -19.3945  -52.1098 H         1 UNK         0.0600 
    202 H202       -1.4301  -18.5294  -50.5831 H         1 UNK         0.0600 
    203 H203       -1.8567  -20.1501  -50.0328 H         1 UNK         0.0600 
    204 H204       -2.2127  -19.6473  -51.6776 H         1 UNK         0.0600 
    205 H205        1.5255  -22.0683  -51.0936 H         1 UNK         0.3000 
    206 H206        1.7536  -24.1710  -51.7127 H         1 UNK         0.0600 
    207 H207        1.9366  -23.1429  -54.0056 H         1 UNK         0.0600 
    208 H208        1.3336  -24.7920  -54.0478 H         1 UNK         0.0600 
    209 H209        0.2203  -23.4526  -54.2665 H         1 UNK         0.0600 
    210 H210       -0.2836  -23.7069  -49.9273 H         1 UNK         0.3000 
    211 H211       -1.9403  -24.6459  -48.8180 H         1 UNK         0.0600 
    212 H212       -1.9196  -27.0011  -50.7746 H         1 UNK         0.0600 
    213 H213       -2.6804  -26.9478  -49.1933 H         1 UNK         0.0600 
    214 H214       -0.9300  -26.8789  -49.3202 H         1 UNK         0.0600 
    215 H215       -2.4232  -22.6215  -50.4022 H         1 UNK         0.3000 
    216 H216       -4.0072  -21.2845  -51.1360 H         1 UNK         0.0600 
    217 H217       -6.0996  -23.4882  -50.8089 H         1 UNK         0.0600 
    218 H218       -6.3479  -21.7531  -50.7834 H         1 UNK         0.0600 
    219 H219       -5.4855  -22.5284  -49.4673 H         1 UNK         0.0600 
    220 H220       -2.9382  -23.8010  -52.9174 H         1 UNK         0.3000 
    221 H221       -4.7928  -23.8320  -55.1234 H         1 UNK         0.0600 
    222 H222       -1.9261  -24.8936  -54.9480 H         1 UNK         0.0600 
    223 H223       -3.3711  -25.7915  -54.4846 H         1 UNK         0.0600 
    224 H224       -3.1246  -25.3216  -56.1606 H         1 UNK         0.0600 
    225 H225       -1.7272  -22.0878  -54.4653 H         1 UNK         0.3000 
    226 H226       -1.4691  -21.1201  -57.2169 H         1 UNK         0.0600 
    227 H227        0.5408  -21.5709  -55.7999 H         1 UNK         0.0600 
    228 H228        0.4820  -19.9030  -56.3422 H         1 UNK         0.0600 
    229 H229        0.0468  -20.2927  -54.6876 H         1 UNK         0.0600 
    230 H230       -2.8090  -19.9833  -54.1668 H         1 UNK         0.3000 
    231 H231       -3.4238  -17.2771  -55.1022 H         1 UNK         0.0600 
    232 H232       -4.2928  -18.8763  -52.6428 H         1 UNK         0.0600 
    233 H233       -3.0068  -17.6735  -52.7119 H         1 UNK         0.0600 
    234 H234       -4.6781  -17.1810  -52.9203 H         1 UNK         0.0600 
    235 H235       -4.8112  -20.4005  -55.4401 H         1 UNK         0.3000 
    236 H236       -6.6219  -21.2915  -56.3045 H         1 UNK         0.0600 
    237 H237       -6.0732  -19.8630  -58.2782 H         1 UNK         0.0600 
    238 H238       -7.8022  -20.1376  -58.1398 H         1 UNK         0.0600 
    239 H239       -7.1232  -18.5882  -57.6605 H         1 UNK         0.0600 
    240 H240       -6.8768  -20.6414  -53.7198 H         1 UNK         0.3000 
    241 H241       -9.7280  -19.8421  -53.4084 H         1 UNK         0.0600 
    242 H242       -7.8802  -22.5593  -53.2259 H         1 UNK         0.3800 
    243 H243       -8.7421  -23.3262  -51.9169 H         1 UNK         0.3800 
    244 H244       -9.2136  -18.6220  -51.3649 H         1 UNK         0.0800 
    245 H245       -8.3707  -17.9417  -52.7192 H         1 UNK         0.0800 
    246 H246       -8.1318  -19.7267  -49.3533 H         1 UNK         0.0800 
    247 H247       -7.8418  -18.0056  -49.2431 H         1 UNK         0.0800 
@<TRIPOS>BOND
     1    1    2 1    
     2    1  127 1    
     3    1  128 1    
     4    1  129 1    
     5    2    3 2    
     6    2    4 am   BACKBONE|DICT|INTERRES
     7    4    5 1    
     8    4  130 1    
     9    5    6 1    
    10    5   65 1    
    11    5  131 1    
    12    6    7 1    
    13    6  132 1    
    14    6  133 1    
    15    7    8 1    
    16    8    9 1    
    17    8  134 1    
    18    8  135 1    
    19    9   10 ar   
    20    9   14 ar   
    21   10   11 ar   
    22   10  136 1    
    23   11   12 ar   
    24   11  126 1    
    25   12   13 ar   
    26   12  137 1    
    27   13   14 ar   
    28   13   15 1    
    29   14  138 1    
    30   15   16 1    
    31   15  139 1    
    32   15  140 1    
    33   16   17 1    
    34   17   18 1    
    35   17  141 1    
    36   17  142 1    
    37   18   19 1    
    38   18   67 1    
    39   18  143 1    
    40   19   20 am   BACKBONE|DICT|INTERRES
    41   19  144 1    
    42   20   21 2    
    43   20   22 1    
    44   22   23 1    
    45   22   24 1    
    46   22  145 1    
    47   23  146 1    
    48   23  147 1    
    49   23  148 1    
    50   24   25 am   BACKBONE|DICT|INTERRES
    51   24  149 1    
    52   25   26 2    
    53   25   27 1    
    54   27   28 1    
    55   27   29 1    
    56   27  150 1    
    57   28  151 1    
    58   28  152 1    
    59   28  153 1    
    60   29   30 am   BACKBONE|DICT|INTERRES
    61   29  154 1    
    62   30   31 2    
    63   30   32 1    
    64   32   33 1    
    65   32   34 1    
    66   32  155 1    
    67   33  156 1    
    68   33  157 1    
    69   33  158 1    
    70   34   35 am   BACKBONE|DICT|INTERRES
    71   34  159 1    
    72   35   36 2    
    73   35   37 1    
    74   37   38 1    
    75   37   39 1    
    76   37  160 1    
    77   38  161 1    
    78   38  162 1    
    79   38  163 1    
    80   39   40 am   BACKBONE|DICT|INTERRES
    81   39  164 1    
    82   40   41 2    
    83   40   42 1    
    84   42   43 1    
    85   42   44 1    
    86   42  165 1    
    87   43  166 1    
    88   43  167 1    
    89   43  168 1    
    90   44   45 am   BACKBONE|DICT|INTERRES
    91   44  169 1    
    92   45   46 2    
    93   45   47 1    
    94   47   48 1    
    95   47   49 1    
    96   47  170 1    
    97   48  171 1    
    98   48  172 1    
    99   48  173 1    
   100   49   50 am   BACKBONE|DICT|INTERRES
   101   49  174 1    
   102   50   51 2    
   103   50   52 1    
   104   52   53 1    
   105   52   54 1    
   106   52  175 1    
   107   53  176 1    
   108   53  177 1    
   109   53  178 1    
   110   54   55 am   BACKBONE|DICT|INTERRES
   111   54  179 1    
   112   55   56 2    
   113   55   57 1    
   114   57   58 1    
   115   57   59 1    
   116   57  180 1    
   117   58  181 1    
   118   58  182 1    
   119   58  183 1    
   120   59   60 am   BACKBONE|DICT|INTERRES
   121   59  184 1    
   122   60   61 2    
   123   60   62 1    
   124   62   63 1    
   125   62   64 1    
   126   62  185 1    
   127   63  186 1    
   128   63  187 1    
   129   63  188 1    
   130   64   65 am   BACKBONE|DICT|INTERRES
   131   64  189 1    
   132   65   66 2    
   133   67   68 2    
   134   67   69 am   BACKBONE|DICT|INTERRES
   135   69   70 1    
   136   69  190 1    
   137   70   71 1    
   138   70   72 1    
   139   70  191 1    
   140   71  192 1    
   141   71  193 1    
   142   71  194 1    
   143   72   73 2    
   144   72   74 am   BACKBONE|DICT|INTERRES
   145   74   75 1    
   146   74  195 1    
   147   75   76 1    
   148   75   77 1    
   149   75  196 1    
   150   76  197 1    
   151   76  198 1    
   152   76  199 1    
   153   77   78 2    
   154   77   79 am   BACKBONE|DICT|INTERRES
   155   79   80 1    
   156   79  200 1    
   157   80   81 1    
   158   80   82 1    
   159   80  201 1    
   160   81  202 1    
   161   81  203 1    
   162   81  204 1    
   163   82   83 2    
   164   82   84 am   BACKBONE|DICT|INTERRES
   165   84   85 1    
   166   84  205 1    
   167   85   86 1    
   168   85   87 1    
   169   85  206 1    
   170   86  207 1    
   171   86  208 1    
   172   86  209 1    
   173   87   88 2    
   174   87   89 am   BACKBONE|DICT|INTERRES
   175   89   90 1    
   176   89  210 1    
   177   90   91 1    
   178   90   92 1    
   179   90  211 1    
   180   91  212 1    
   181   91  213 1    
   182   91  214 1    
   183   92   93 2    
   184   92   94 am   BACKBONE|DICT|INTERRES
   185   94   95 1    
   186   94  215 1    
   187   95   96 1    
   188   95   97 1    
   189   95  216 1    
   190   96  217 1    
   191   96  218 1    
   192   96  219 1    
   193   97   98 2    
   194   97   99 am   BACKBONE|DICT|INTERRES
   195   99  100 1    
   196   99  220 1    
   197  100  101 1    
   198  100  102 1    
   199  100  221 1    
   200  101  222 1    
   201  101  223 1    
   202  101  224 1    
   203  102  103 2    
   204  102  104 am   BACKBONE|DICT|INTERRES
   205  104  105 1    
   206  104  225 1    
   207  105  106 1    
   208  105  107 1    
   209  105  226 1    
   210  106  227 1    
   211  106  228 1    
   212  106  229 1    
   213  107  108 2    
   214  107  109 am   BACKBONE|DICT|INTERRES
   215  109  110 1    
   216  109  230 1    
   217  110  111 1    
   218  110  112 1    
   219  110  231 1    
   220  111  232 1    
   221  111  233 1    
   222  111  234 1    
   223  112  113 2    
   224  112  114 am   BACKBONE|DICT|INTERRES
   225  114  115 1    
   226  114  235 1    
   227  115  116 1    
   228  115  117 1    
   229  115  236 1    
   230  116  237 1    
   231  116  238 1    
   232  116  239 1    
   233  117  118 2    
   234  117  119 am   BACKBONE|DICT|INTERRES
   235  119  120 1    
   236  119  240 1    
   237  120  121 1    
   238  120  124 1    
   239  120  241 1    
   240  121  122 am   BACKBONE|DICT|INTERRES
   241  121  123 2    
   242  122  242 1    
   243  122  243 1    
   244  124  125 1    
   245  124  244 1    
   246  124  245 1    
   247  125  126 1    
   248  126  246 1    
   249  126  247 1    
@<TRIPOS>SUBSTRUCTURE
     1 UNK         1 GROUP             0       ****    0 ROOT    
