@<TRIPOS>MOLECULE
3R540
247   249    1
SMALL
USER_CHARGES


@<TRIPOS>ATOM
      1 CA          8.5512  -13.7039  -47.6929 C.3       0 UNK        -0.1800 
      2 C           7.9987  -12.3544  -48.1489 C.2       0 UNK         0.5000 
      3 O           8.7652  -11.5208  -48.6271 O.2       0 UNK        -0.5000 
      4 N           6.6890  -12.0864  -48.0325 N.am      1 UNK        -0.5000 
      5 CA          5.6525  -12.9481  -47.4446 C.3       1 UNK         0.1400 
      6 C6          4.2366  -12.4796  -47.8696 C.3       23 UNK        -0.0398 
      7 S7          3.0341  -13.8486  -47.9515 S.3       23 UNK        -0.2404 
      8 C8          3.1720  -14.2982  -49.7066 C.3       23 UNK        -0.0205 
      9 C9          2.2799  -15.4771  -50.0591 C.ar      23 UNK        -0.0193 
     10 C10         0.9609  -15.2611  -50.4665 C.ar      23 UNK        -0.1150 
     11 C11         0.1510  -16.3353  -50.8444 C.ar      23 UNK        -0.0193 
     12 C12         0.6674  -17.6341  -50.8099 C.ar      23 UNK        -0.1150 
     13 C13         1.9845  -17.8632  -50.4011 C.ar      23 UNK        -0.0193 
     14 C14         2.7832  -16.7808  -50.0186 C.ar      23 UNK        -0.1150 
     15 C15         2.5623  -19.2709  -50.4148 C.3       23 UNK        -0.0205 
     16 S16         2.2430  -20.1597  -48.8607 S.3       23 UNK        -0.2404 
     17 C17         0.5168  -20.6982  -49.0984 C.3       23 UNK        -0.0398 
     18 CA          0.1441  -21.8653  -48.1552 C.3       11 UNK         0.1400 
     19 N           0.1093  -21.4663  -46.7456 N.am      11 UNK        -0.5000 
     20 C          -0.0245  -22.3116  -45.7145 C.2       10 UNK         0.5000 
     21 O          -0.0559  -23.5361  -45.8362 O.2       10 UNK        -0.5000 
     22 CA         -0.2295  -21.6832  -44.3235 C.3       10 UNK         0.1400 
     23 CB          1.1098  -21.2816  -43.6883 C.3       10 UNK        -0.1800 
     24 N          -1.1349  -20.5321  -44.3687 N.am      10 UNK        -0.5000 
     25 C          -2.4355  -20.6204  -44.6831 C.2       9 UNK         0.5000 
     26 O          -3.0091  -21.6910  -44.8840 O.2       9 UNK        -0.5000 
     27 CA         -3.2209  -19.3038  -44.8383 C.3       9 UNK         0.1400 
     28 CB         -3.7265  -18.8114  -43.4751 C.3       9 UNK        -0.1800 
     29 N          -2.4458  -18.2466  -45.4908 N.am      9 UNK        -0.5000 
     30 C          -2.0311  -18.2852  -46.7656 C.2       8 UNK         0.5000 
     31 O          -2.3178  -19.1923  -47.5449 O.2       8 UNK        -0.5000 
     32 CA         -1.0917  -17.1573  -47.2364 C.3       8 UNK         0.1400 
     33 CB         -1.8832  -15.9117  -47.6576 C.3       8 UNK        -0.1800 
     34 N          -0.0984  -16.7912  -46.2272 N.am      8 UNK        -0.5000 
     35 C           0.8230  -17.6307  -45.7355 C.2       7 UNK         0.5000 
     36 O           0.9491  -18.7958  -46.1048 O.2       7 UNK        -0.5000 
     37 CA          1.6943  -17.1094  -44.5824 C.3       7 UNK         0.1400 
     38 CB          2.8445  -16.2338  -45.1012 C.3       7 UNK        -0.1800 
     39 N           0.8915  -16.3816  -43.5975 N.am      7 UNK        -0.5000 
     40 C           0.0171  -16.9726  -42.7693 C.2       6 UNK         0.5000 
     41 O          -0.1269  -18.1926  -42.6926 O.2       6 UNK        -0.5000 
     42 CA         -0.8850  -16.0554  -41.9231 C.3       6 UNK         0.1400 
     43 CB         -0.2475  -15.7418  -40.5636 C.3       6 UNK        -0.1800 
     44 N          -1.2178  -14.8080  -42.6116 N.am      6 UNK        -0.5000 
     45 C          -2.0880  -14.7361  -43.6290 C.2       5 UNK         0.5000 
     46 O          -2.7059  -15.7072  -44.0633 O.2       5 UNK        -0.5000 
     47 CA         -2.2695  -13.3651  -44.3072 C.3       5 UNK         0.1400 
     48 CB         -3.3654  -12.5549  -43.5997 C.3       5 UNK        -0.1800 
     49 N          -1.0413  -12.5708  -44.3627 N.am      5 UNK        -0.5000 
     50 C           0.0910  -12.9490  -44.9705 C.2       4 UNK         0.5000 
     51 O           0.2177  -14.0246  -45.5542 O.2       4 UNK        -0.5000 
     52 CA          1.2951  -11.9911  -44.8936 C.3       4 UNK         0.1400 
     53 CB          0.9220  -10.5458  -44.4963 C.3       4 UNK        -0.1800 
     54 N           2.3537  -12.4959  -44.0137 N.am      4 UNK        -0.5000 
     55 C           2.2557  -12.8340  -42.7179 C.2       3 UNK         0.5000 
     56 O           1.1914  -12.8692  -42.0983 O.2       3 UNK        -0.5000 
     57 CA          3.5661  -13.1839  -41.9808 C.3       3 UNK         0.1400 
     58 CB          3.5556  -14.6285  -41.4574 C.3       3 UNK        -0.1800 
     59 N           4.7554  -12.9920  -42.8143 N.am      3 UNK        -0.5000 
     60 C           5.4400  -11.8479  -42.9273 C.2       2 UNK         0.5000 
     61 O           5.1333  -10.8076  -42.3443 O.2       2 UNK        -0.5000 
     62 CA          6.6708  -11.8625  -43.8540 C.3       2 UNK         0.1400 
     63 CB          7.7188  -12.9010  -43.4047 C.3       2 UNK        -0.1800 
     64 N           6.3459  -12.0139  -45.2777 N.am      2 UNK        -0.5000 
     65 C           5.7790  -13.0551  -45.9074 C.2       1 UNK         0.5000 
     66 O           5.3958  -14.0756  -45.3369 O.2       1 UNK        -0.5000 
     67 C          -1.1744  -22.5357  -48.5935 C.2       11 UNK         0.5000 
     68 O          -1.1224  -23.5511  -49.2848 O.2       11 UNK        -0.5000 
     69 N          -2.3233  -22.0033  -48.1502 N.am      12 UNK        -0.5000 
     70 CA         -3.6506  -22.5762  -48.3895 C.3       12 UNK         0.1400 
     71 CB         -4.7354  -21.6299  -47.8512 C.3       12 UNK        -0.1800 
     72 C          -3.8177  -23.9747  -47.7716 C.2       12 UNK         0.5000 
     73 O          -4.3803  -24.8610  -48.4161 O.2       12 UNK        -0.5000 
     74 N          -3.3052  -24.1504  -46.5461 N.am      13 UNK        -0.5000 
     75 CA         -3.2709  -25.4285  -45.8384 C.3       13 UNK         0.1400 
     76 CB         -2.8593  -25.2003  -44.3762 C.3       13 UNK        -0.1800 
     77 C          -2.3463  -26.4497  -46.5251 C.2       13 UNK         0.5000 
     78 O          -2.7411  -27.6040  -46.6887 O.2       13 UNK        -0.5000 
     79 N          -1.1569  -26.0006  -46.9523 N.am      14 UNK        -0.5000 
     80 CA         -0.1747  -26.8027  -47.6869 C.3       14 UNK         0.1400 
     81 CB          1.1424  -26.0210  -47.8034 C.3       14 UNK        -0.1800 
     82 C          -0.6726  -27.2434  -49.0771 C.2       14 UNK         0.5000 
     83 O          -0.4351  -28.3846  -49.4744 O.2       14 UNK        -0.5000 
     84 N          -1.3797  -26.3448  -49.7757 N.am      15 UNK        -0.5000 
     85 CA         -2.0321  -26.6012  -51.0621 C.3       15 UNK         0.1400 
     86 CB         -2.4025  -25.2567  -51.7091 C.3       15 UNK        -0.1800 
     87 C          -3.2836  -27.4949  -50.9508 C.2       15 UNK         0.5000 
     88 O          -3.7269  -28.0273  -51.9690 O.2       15 UNK        -0.5000 
     89 N          -3.8271  -27.6304  -49.7309 N.am      16 UNK        -0.5000 
     90 CA         -5.0785  -28.3042  -49.3765 C.3       16 UNK         0.1400 
     91 CB         -4.9838  -29.8238  -49.6270 C.3       16 UNK        -0.1800 
     92 C          -6.2811  -27.6356  -50.0706 C.2       16 UNK         0.5000 
     93 O          -7.0425  -28.2973  -50.7789 O.2       16 UNK        -0.5000 
     94 N          -6.3924  -26.3151  -49.8662 N.am      17 UNK        -0.5000 
     95 CA         -7.3035  -25.3862  -50.5336 C.3       17 UNK         0.1400 
     96 CB         -8.7867  -25.7326  -50.2702 C.3       17 UNK        -0.1800 
     97 C          -6.9208  -25.2361  -52.0184 C.2       17 UNK         0.5000 
     98 O          -5.8078  -24.7821  -52.2909 O.2       17 UNK        -0.5000 
     99 N          -7.8333  -25.5762  -52.9410 N.am      18 UNK        -0.5000 
    100 CA        -7.7256  -25.4073  -54.3951 C.3       18 UNK         0.1400 
    101 CB        -6.6066  -26.2980  -54.9817 C.3       18 UNK        -0.1800 
    102 C         -7.6012  -23.9144  -54.7606 C.2       18 UNK         0.5000 
    103 O         -8.6104  -23.2083  -54.7362 O.2       18 UNK        -0.5000 
    104 N         -6.3762  -23.4486  -55.0418 N.am      19 UNK        -0.5000 
    105 CA        -6.0416  -22.0297  -55.2046 C.3       19 UNK         0.1400 
    106 CB        -4.6327  -21.9128  -55.8051 C.3       19 UNK        -0.1800 
    107 C         -6.1289  -21.2370  -53.8830 C.2       19 UNK         0.5000 
    108 O         -6.3360  -20.0222  -53.9171 O.2       19 UNK        -0.5000 
    109 N         -5.9841  -21.9440  -52.7519 N.am      20 UNK        -0.5000 
    110 CA        -6.0900  -21.4648  -51.3756 C.3       20 UNK         0.1400 
    111 CB        -7.5658  -21.1640  -51.0329 C.3       20 UNK        -0.1800 
    112 C         -5.1163  -20.3060  -51.0790 C.2       20 UNK         0.5000 
    113 O         -3.9662  -20.3487  -51.5213 O.2       20 UNK        -0.5000 
    114 N         -5.5790  -19.2947  -50.3352 N.am      21 UNK        -0.5000 
    115 CA        -4.8219  -18.1022  -49.9590 C.3       21 UNK         0.1400 
    116 CB        -5.4210  -17.5294  -48.6606 C.3       21 UNK        -0.1800 
    117 C         -4.7821  -17.0770  -51.1116 C.2       21 UNK         0.5000 
    118 O         -5.1940  -15.9298  -50.9326 O.2       21 UNK        -0.5000 
    119 N         -4.2825  -17.5192  -52.2735 N.am      22 UNK        -0.5000 
    120 CA        -4.1478  -16.7459  -53.5190 C.3       22 UNK         0.1400 
    121 C         -5.5187  -16.2904  -54.1058 C.2       22 UNK         0.5000 
    122 N         -6.5142  -17.1667  -54.1594 N.am      22 UNK        -0.7600 
    123 O         -5.6916  -15.1478  -54.5236 O.2       22 UNK        -0.5000 
    124 C124       -3.1116  -15.5910  -53.3983 C.3       23 UNK        -0.0398 
    125 S125       -1.4096  -16.1877  -53.1133 S.3       23 UNK        -0.2404 
    126 C126       -1.2769  -16.0925  -51.3013 C.3       23 UNK        -0.0205 
    127 H127        8.5092  -13.7951  -46.6079 H         1 UNK         0.0600 
    128 H128        9.5942  -13.8074  -47.9927 H         1 UNK         0.0600 
    129 H129        7.9999  -14.5305  -48.1400 H         1 UNK         0.0600 
    130 H130        6.3638  -11.1883  -48.3615 H         1 UNK         0.3000 
    131 H131        5.8047  -13.9507  -47.8480 H         1 UNK         0.0600 
    132 H132        3.8531  -11.7053  -47.2029 H         1 UNK         0.0800 
    133 H133        4.2714  -12.0133  -48.8554 H         1 UNK         0.0800 
    134 H134        2.9065  -13.4384  -50.3238 H         1 UNK         0.0800 
    135 H135        4.2114  -14.5348  -49.9395 H         1 UNK         0.0800 
    136 H136        0.5702  -14.2538  -50.5010 H         1 UNK         0.1150 
    137 H137        0.0465  -18.4637  -51.1174 H         1 UNK         0.1150 
    138 H138        3.8045  -16.9510  -49.7079 H         1 UNK         0.1150 
    139 H139        2.1669  -19.8359  -51.2601 H         1 UNK         0.0800 
    140 H140        3.6414  -19.2225  -50.5683 H         1 UNK         0.0800 
    141 H141        0.3970  -21.0006  -50.1404 H         1 UNK         0.0800 
    142 H142       -0.1458  -19.8464  -48.9446 H         1 UNK         0.0800 
    143 H143        0.9216  -22.6263  -48.2495 H         1 UNK         0.0600 
    144 H144        0.2075  -20.4722  -46.5524 H         1 UNK         0.3000 
    145 H145       -0.6870  -22.4409  -43.6839 H         1 UNK         0.0600 
    146 H146        0.9646  -20.8739  -42.6878 H         1 UNK         0.0600 
    147 H147        1.7690  -22.1454  -43.5957 H         1 UNK         0.0600 
    148 H148        1.6350  -20.5334  -44.2807 H         1 UNK         0.0600 
    149 H149       -0.7318  -19.6232  -44.1734 H         1 UNK         0.3000 
    150 H150       -4.0908  -19.5111  -45.4648 H         1 UNK         0.0600 
    151 H151       -4.3299  -19.5754  -42.9834 H         1 UNK         0.0600 
    152 H152       -4.3508  -17.9243  -43.5831 H         1 UNK         0.0600 
    153 H153       -2.9026  -18.5628  -42.8063 H         1 UNK         0.0600 
    154 H154       -2.2349  -17.4259  -44.9319 H         1 UNK         0.3000 
    155 H155       -0.5468  -17.5222  -48.1087 H         1 UNK         0.0600 
    156 H156       -2.4802  -15.5158  -46.8363 H         1 UNK         0.0600 
    157 H157       -1.2167  -15.1199  -48.0010 H         1 UNK         0.0600 
    158 H158       -2.5619  -16.1421  -48.4782 H         1 UNK         0.0600 
    159 H159       -0.0996  -15.8260  -45.9055 H         1 UNK         0.3000 
    160 H160        2.1383  -17.9785  -44.0921 H         1 UNK         0.0600 
    161 H161        2.5002  -15.2499  -45.4139 H         1 UNK         0.0600 
    162 H162        3.3346  -16.6944  -45.9602 H         1 UNK         0.0600 
    163 H163        3.6105  -16.0918  -44.3412 H         1 UNK         0.0600 
    164 H164        0.8934  -15.3740  -43.6622 H         1 UNK         0.3000 
    165 H165       -1.8120  -16.6000  -41.7313 H         1 UNK         0.0600 
    166 H166       -0.9471  -15.2136  -39.9157 H         1 UNK         0.0600 
    167 H167        0.0488  -16.6558  -40.0472 H         1 UNK         0.0600 
    168 H168        0.6382  -15.1198  -40.6708 H         1 UNK         0.0600 
    169 H169       -0.7027  -13.9783  -42.3396 H         1 UNK         0.3000 
    170 H170       -2.5901  -13.5470  -45.3347 H         1 UNK         0.0600 
    171 H171       -3.0868  -12.3110  -42.5737 H         1 UNK         0.0600 
    172 H172       -3.5675  -11.6211  -44.1247 H         1 UNK         0.0600 
    173 H173       -4.3013  -13.1141  -43.5620 H         1 UNK         0.0600 
    174 H174       -1.0514  -11.6862  -43.8765 H         1 UNK         0.3000 
    175 H175        1.7140  -11.9553  -45.8994 H         1 UNK         0.0600 
    176 H176        1.7896   -9.8898  -44.5689 H         1 UNK         0.0600 
    177 H177        0.5483  -10.4797  -43.4739 H         1 UNK         0.0600 
    178 H178        0.1580  -10.1387  -45.1600 H         1 UNK         0.0600 
    179 H179        3.2702  -12.5645  -44.4302 H         1 UNK         0.3000 
    180 H180        3.6327  -12.5220  -41.1148 H         1 UNK         0.0600 
    181 H181        3.2826  -15.3444  -42.2303 H         1 UNK         0.0600 
    182 H182        2.8436  -14.7366  -40.6407 H         1 UNK         0.0600 
    183 H183        4.5309  -14.9152  -41.0635 H         1 UNK         0.0600 
    184 H184        5.0354  -13.7663  -43.4089 H         1 UNK         0.3000 
    185 H185        7.1376  -10.8804  -43.7615 H         1 UNK         0.0600 
    186 H186        7.9958  -12.7468  -42.3611 H         1 UNK         0.0600 
    187 H187        7.3561  -13.9249  -43.4965 H         1 UNK         0.0600 
    188 H188        8.6301  -12.8178  -43.9971 H         1 UNK         0.0600 
    189 H189        6.6096  -11.2260  -45.8533 H         1 UNK         0.3000 
    190 H190       -2.2904  -21.1211  -47.6474 H         1 UNK         0.3000 
    191 H191       -3.7707  -22.6684  -49.4702 H         1 UNK         0.0600 
    192 H192       -4.5605  -20.6034  -48.1662 H         1 UNK         0.0600 
    193 H193       -5.7218  -21.9251  -48.2094 H         1 UNK         0.0600 
    194 H194       -4.7775  -21.6316  -46.7629 H         1 UNK         0.0600 
    195 H195       -2.9138  -23.3473  -46.0642 H         1 UNK         0.3000 
    196 H196       -4.2825  -25.8399  -45.8431 H         1 UNK         0.0600 
    197 H197       -2.8677  -26.1374  -43.8184 H         1 UNK         0.0600 
    198 H198       -3.5462  -24.5170  -43.8765 H         1 UNK         0.0600 
    199 H199       -1.8567  -24.7806  -44.2970 H         1 UNK         0.0600 
    200 H200       -0.8897  -25.0449  -46.7325 H         1 UNK         0.3000 
    201 H201        0.0184  -27.7053  -47.1036 H         1 UNK         0.0600 
    202 H202        1.5347  -25.7602  -46.8203 H         1 UNK         0.0600 
    203 H203        1.0134  -25.0973  -48.3675 H         1 UNK         0.0600 
    204 H204        1.9043  -26.6129  -48.3120 H         1 UNK         0.0600 
    205 H205       -1.4576  -25.3969  -49.4144 H         1 UNK         0.3000 
    206 H206       -1.3199  -27.1110  -51.7139 H         1 UNK         0.0600 
    207 H207       -1.5204  -24.6360  -51.8661 H         1 UNK         0.0600 
    208 H208       -2.8744  -25.4041  -52.6816 H         1 UNK         0.0600 
    209 H209       -3.1031  -24.6946  -51.0900 H         1 UNK         0.0600 
    210 H210       -3.3789  -27.1339  -48.9724 H         1 UNK         0.3000 
    211 H211       -5.2150  -28.1557  -48.3043 H         1 UNK         0.0600 
    212 H212       -4.8860  -30.0599  -50.6868 H         1 UNK         0.0600 
    213 H213       -5.8762  -30.3328  -49.2614 H         1 UNK         0.0600 
    214 H214       -4.1279  -30.2542  -49.1071 H         1 UNK         0.0600 
    215 H215       -5.6654  -25.8661  -49.3115 H         1 UNK         0.3000 
    216 H216       -7.1179  -24.4123  -50.0785 H         1 UNK         0.0600 
    217 H217       -9.4440  -24.9629  -50.6766 H         1 UNK         0.0600 
    218 H218       -8.9864  -25.7891  -49.2001 H         1 UNK         0.0600 
    219 H219       -9.0825  -26.6850  -50.7099 H         1 UNK         0.0600 
    220 H220       -8.7219  -25.9266  -52.6124 H         1 UNK         0.3000 
    221 H221       -8.6703  -25.7504  -54.8195 H         1 UNK         0.0600 
    222 H222       -5.6227  -26.0687  -54.5723 H         1 UNK         0.0600 
    223 H223       -6.8051  -27.3501  -54.7773 H         1 UNK         0.0600 
    224 H224       -6.5476  -26.1867  -56.0650 H         1 UNK         0.0600 
    225 H225       -5.6020  -24.0962  -55.0106 H         1 UNK         0.3000 
    226 H226       -6.7524  -21.5855  -55.9044 H         1 UNK         0.0600 
    227 H227       -4.5724  -22.4138  -56.7715 H         1 UNK         0.0600 
    228 H228       -4.3619  -20.8681  -55.9637 H         1 UNK         0.0600 
    229 H229       -3.8787  -22.3513  -55.1501 H         1 UNK         0.0600 
    230 H230       -5.7873  -22.9372  -52.8379 H         1 UNK         0.3000 
    231 H231       -5.7703  -22.2961  -50.7476 H         1 UNK         0.0600 
    232 H232       -7.9441  -20.3026  -51.5850 H         1 UNK         0.0600 
    233 H233       -7.6978  -20.9681  -49.9682 H         1 UNK         0.0600 
    234 H234       -8.2022  -22.0149  -51.2779 H         1 UNK         0.0600 
    235 H235       -6.5470  -19.3128  -50.0495 H         1 UNK         0.3000 
    236 H236       -3.7894  -18.3881  -49.7473 H         1 UNK         0.0600 
    237 H237       -4.8865  -16.6360  -48.3376 H         1 UNK         0.0600 
    238 H238       -6.4689  -17.2553  -48.7872 H         1 UNK         0.0600 
    239 H239       -5.3578  -18.2511  -47.8460 H         1 UNK         0.0600 
    240 H240       -4.0006  -18.4928  -52.3196 H         1 UNK         0.3000 
    241 H241       -3.7568  -17.4437  -54.2603 H         1 UNK         0.0600 
    242 H242       -6.3815  -18.1406  -53.8953 H         1 UNK         0.3800 
    243 H243       -7.4021  -16.8771  -54.5367 H         1 UNK         0.3800 
    244 H244       -3.0811  -15.0166  -54.3255 H         1 UNK         0.0800 
    245 H245       -3.3983  -14.8816  -52.6212 H         1 UNK         0.0800 
    246 H246       -1.6284  -15.1195  -50.9545 H         1 UNK         0.0800 
    247 H247       -1.9248  -16.8407  -50.8468 H         1 UNK         0.0800 
@<TRIPOS>BOND
     1    1    2 1    
     2    1  127 1    
     3    1  128 1    
     4    1  129 1    
     5    2    3 2    
     6    2    4 am   BACKBONE|DICT|INTERRES
     7    4    5 1    
     8    4  130 1    
     9    5    6 1    
    10    5   65 1    
    11    5  131 1    
    12    6    7 1    
    13    6  132 1    
    14    6  133 1    
    15    7    8 1    
    16    8    9 1    
    17    8  134 1    
    18    8  135 1    
    19    9   10 ar   
    20    9   14 ar   
    21   10   11 ar   
    22   10  136 1    
    23   11   12 ar   
    24   11  126 1    
    25   12   13 ar   
    26   12  137 1    
    27   13   14 ar   
    28   13   15 1    
    29   14  138 1    
    30   15   16 1    
    31   15  139 1    
    32   15  140 1    
    33   16   17 1    
    34   17   18 1    
    35   17  141 1    
    36   17  142 1    
    37   18   19 1    
    38   18   67 1    
    39   18  143 1    
    40   19   20 am   BACKBONE|DICT|INTERRES
    41   19  144 1    
    42   20   21 2    
    43   20   22 1    
    44   22   23 1    
    45   22   24 1    
    46   22  145 1    
    47   23  146 1    
    48   23  147 1    
    49   23  148 1    
    50   24   25 am   BACKBONE|DICT|INTERRES
    51   24  149 1    
    52   25   26 2    
    53   25   27 1    
    54   27   28 1    
    55   27   29 1    
    56   27  150 1    
    57   28  151 1    
    58   28  152 1    
    59   28  153 1    
    60   29   30 am   BACKBONE|DICT|INTERRES
    61   29  154 1    
    62   30   31 2    
    63   30   32 1    
    64   32   33 1    
    65   32   34 1    
    66   32  155 1    
    67   33  156 1    
    68   33  157 1    
    69   33  158 1    
    70   34   35 am   BACKBONE|DICT|INTERRES
    71   34  159 1    
    72   35   36 2    
    73   35   37 1    
    74   37   38 1    
    75   37   39 1    
    76   37  160 1    
    77   38  161 1    
    78   38  162 1    
    79   38  163 1    
    80   39   40 am   BACKBONE|DICT|INTERRES
    81   39  164 1    
    82   40   41 2    
    83   40   42 1    
    84   42   43 1    
    85   42   44 1    
    86   42  165 1    
    87   43  166 1    
    88   43  167 1    
    89   43  168 1    
    90   44   45 am   BACKBONE|DICT|INTERRES
    91   44  169 1    
    92   45   46 2    
    93   45   47 1    
    94   47   48 1    
    95   47   49 1    
    96   47  170 1    
    97   48  171 1    
    98   48  172 1    
    99   48  173 1    
   100   49   50 am   BACKBONE|DICT|INTERRES
   101   49  174 1    
   102   50   51 2    
   103   50   52 1    
   104   52   53 1    
   105   52   54 1    
   106   52  175 1    
   107   53  176 1    
   108   53  177 1    
   109   53  178 1    
   110   54   55 am   BACKBONE|DICT|INTERRES
   111   54  179 1    
   112   55   56 2    
   113   55   57 1    
   114   57   58 1    
   115   57   59 1    
   116   57  180 1    
   117   58  181 1    
   118   58  182 1    
   119   58  183 1    
   120   59   60 am   BACKBONE|DICT|INTERRES
   121   59  184 1    
   122   60   61 2    
   123   60   62 1    
   124   62   63 1    
   125   62   64 1    
   126   62  185 1    
   127   63  186 1    
   128   63  187 1    
   129   63  188 1    
   130   64   65 am   BACKBONE|DICT|INTERRES
   131   64  189 1    
   132   65   66 2    
   133   67   68 2    
   134   67   69 am   BACKBONE|DICT|INTERRES
   135   69   70 1    
   136   69  190 1    
   137   70   71 1    
   138   70   72 1    
   139   70  191 1    
   140   71  192 1    
   141   71  193 1    
   142   71  194 1    
   143   72   73 2    
   144   72   74 am   BACKBONE|DICT|INTERRES
   145   74   75 1    
   146   74  195 1    
   147   75   76 1    
   148   75   77 1    
   149   75  196 1    
   150   76  197 1    
   151   76  198 1    
   152   76  199 1    
   153   77   78 2    
   154   77   79 am   BACKBONE|DICT|INTERRES
   155   79   80 1    
   156   79  200 1    
   157   80   81 1    
   158   80   82 1    
   159   80  201 1    
   160   81  202 1    
   161   81  203 1    
   162   81  204 1    
   163   82   83 2    
   164   82   84 am   BACKBONE|DICT|INTERRES
   165   84   85 1    
   166   84  205 1    
   167   85   86 1    
   168   85   87 1    
   169   85  206 1    
   170   86  207 1    
   171   86  208 1    
   172   86  209 1    
   173   87   88 2    
   174   87   89 am   BACKBONE|DICT|INTERRES
   175   89   90 1    
   176   89  210 1    
   177   90   91 1    
   178   90   92 1    
   179   90  211 1    
   180   91  212 1    
   181   91  213 1    
   182   91  214 1    
   183   92   93 2    
   184   92   94 am   BACKBONE|DICT|INTERRES
   185   94   95 1    
   186   94  215 1    
   187   95   96 1    
   188   95   97 1    
   189   95  216 1    
   190   96  217 1    
   191   96  218 1    
   192   96  219 1    
   193   97   98 2    
   194   97   99 am   BACKBONE|DICT|INTERRES
   195   99  100 1    
   196   99  220 1    
   197  100  101 1    
   198  100  102 1    
   199  100  221 1    
   200  101  222 1    
   201  101  223 1    
   202  101  224 1    
   203  102  103 2    
   204  102  104 am   BACKBONE|DICT|INTERRES
   205  104  105 1    
   206  104  225 1    
   207  105  106 1    
   208  105  107 1    
   209  105  226 1    
   210  106  227 1    
   211  106  228 1    
   212  106  229 1    
   213  107  108 2    
   214  107  109 am   BACKBONE|DICT|INTERRES
   215  109  110 1    
   216  109  230 1    
   217  110  111 1    
   218  110  112 1    
   219  110  231 1    
   220  111  232 1    
   221  111  233 1    
   222  111  234 1    
   223  112  113 2    
   224  112  114 am   BACKBONE|DICT|INTERRES
   225  114  115 1    
   226  114  235 1    
   227  115  116 1    
   228  115  117 1    
   229  115  236 1    
   230  116  237 1    
   231  116  238 1    
   232  116  239 1    
   233  117  118 2    
   234  117  119 am   BACKBONE|DICT|INTERRES
   235  119  120 1    
   236  119  240 1    
   237  120  121 1    
   238  120  124 1    
   239  120  241 1    
   240  121  122 am   BACKBONE|DICT|INTERRES
   241  121  123 2    
   242  122  242 1    
   243  122  243 1    
   244  124  125 1    
   245  124  244 1    
   246  124  245 1    
   247  125  126 1    
   248  126  246 1    
   249  126  247 1    
@<TRIPOS>SUBSTRUCTURE
     1 UNK         1 GROUP             0       ****    0 ROOT    
