@<TRIPOS>MOLECULE
3R540
247   249    1
SMALL
USER_CHARGES


@<TRIPOS>ATOM
      1 CA         -4.1105  -15.9689  -49.7420 C.3       0 UNK        -0.1800 
      2 C          -2.9497  -15.0914  -49.2992 C.2       0 UNK         0.5000 
      3 O          -3.1643  -13.9516  -48.8862 O.2       0 UNK        -0.5000 
      4 N          -1.7217  -15.6239  -49.3501 N.am      1 UNK        -0.5000 
      5 CA         -0.4725  -14.9618  -48.9432 C.3       1 UNK         0.1400 
      6 C6          0.7611  -15.5858  -49.6451 C.3       23 UNK        -0.0398 
      7 S7          0.7198  -15.3756  -51.4572 S.3       23 UNK        -0.2404 
      8 C8          2.4971  -15.3122  -51.8645 C.3       23 UNK        -0.0205 
      9 C9          3.0964  -16.7041  -52.0123 C.ar      23 UNK        -0.0193 
     10 C10         3.3584  -17.2245  -53.2831 C.ar      23 UNK        -0.1150 
     11 C11         3.8909  -18.5073  -53.4281 C.ar      23 UNK        -0.0193 
     12 C12         4.1487  -19.2753  -52.2899 C.ar      23 UNK        -0.1150 
     13 C13         3.8947  -18.7742  -51.0103 C.ar      23 UNK        -0.0193 
     14 C14         3.3925  -17.4719  -50.8819 C.ar      23 UNK        -0.1150 
     15 C15         4.1910  -19.6762  -49.8097 C.3       23 UNK        -0.0205 
     16 S16         3.3941  -19.2117  -48.2334 S.3       23 UNK        -0.2404 
     17 C17         1.6185  -19.3721  -48.6350 C.3       23 UNK        -0.0398 
     18 CA          1.0054  -20.7450  -48.2614 C.3       11 UNK         0.1400 
     19 N           1.2624  -21.1136  -46.8688 N.am      11 UNK        -0.5000 
     20 C           1.6837  -22.3246  -46.4872 C.2       10 UNK         0.5000 
     21 O           1.7054  -23.3085  -47.2270 O.2       10 UNK        -0.5000 
     22 CA          2.2285  -22.4535  -45.0554 C.3       10 UNK         0.1400 
     23 CB          3.6369  -21.8447  -44.9666 C.3       10 UNK        -0.1800 
     24 N           1.3685  -21.8413  -44.0456 N.am      10 UNK        -0.5000 
     25 C           0.2222  -22.3804  -43.6113 C.2       9 UNK         0.5000 
     26 O          -0.2509  -23.4281  -44.0525 O.2       9 UNK        -0.5000 
     27 CA         -0.5157  -21.6315  -42.4846 C.3       9 UNK         0.1400 
     28 CB          0.1233  -21.9344  -41.1207 C.3       9 UNK        -0.1800 
     29 N          -0.5627  -20.1845  -42.6881 N.am      9 UNK        -0.5000 
     30 C          -1.2084  -19.5866  -43.6982 C.2       8 UNK         0.5000 
     31 O          -1.8450  -20.1917  -44.5586 O.2       8 UNK        -0.5000 
     32 CA         -1.0748  -18.0578  -43.7981 C.3       8 UNK         0.1400 
     33 CB         -1.9530  -17.3617  -42.7471 C.3       8 UNK        -0.1800 
     34 N           0.3120  -17.6197  -43.6584 N.am      8 UNK        -0.5000 
     35 C           1.3101  -17.9832  -44.4761 C.2       7 UNK         0.5000 
     36 O           1.1496  -18.6835  -45.4741 O.2       7 UNK        -0.5000 
     37 CA          2.7301  -17.5523  -44.0720 C.3       7 UNK         0.1400 
     38 CB          3.0296  -16.1203  -44.5382 C.3       7 UNK        -0.1800 
     39 N           2.9419  -17.6571  -42.6269 N.am      7 UNK        -0.5000 
     40 C           3.0044  -18.8164  -41.9559 C.2       6 UNK         0.5000 
     41 O           2.9103  -19.9204  -42.4892 O.2       6 UNK        -0.5000 
     42 CA          3.1570  -18.7253  -40.4273 C.3       6 UNK         0.1400 
     43 CB          4.6225  -18.4766  -40.0406 C.3       6 UNK        -0.1800 
     44 N           2.3154  -17.6801  -39.8452 N.am      6 UNK        -0.5000 
     45 C           0.9755  -17.7134  -39.8216 C.2       5 UNK         0.5000 
     46 O           0.3065  -18.6539  -40.2506 O.2       5 UNK        -0.5000 
     47 CA          0.2678  -16.4566  -39.2769 C.3       5 UNK         0.1400 
     48 CB          0.1404  -16.5267  -37.7481 C.3       5 UNK        -0.1800 
     49 N           0.9352  -15.2046  -39.6557 N.am      5 UNK        -0.5000 
     50 C           1.1115  -14.8033  -40.9206 C.2       4 UNK         0.5000 
     51 O           0.7308  -15.4556  -41.8980 O.2       4 UNK        -0.5000 
     52 CA          1.8688  -13.4864  -41.1443 C.3       4 UNK         0.1400 
     53 CB          3.3668  -13.6439  -40.8274 C.3       4 UNK        -0.1800 
     54 N           1.6941  -13.1434  -42.5468 N.am      4 UNK        -0.5000 
     55 C           1.8173  -11.9501  -43.1305 C.2       3 UNK         0.5000 
     56 O           2.1784  -10.9297  -42.5433 O.2       3 UNK        -0.5000 
     57 CA          1.4655  -11.8947  -44.6323 C.3       3 UNK         0.1400 
     58 CB          2.7432  -11.9424  -45.4842 C.3       3 UNK        -0.1800 
     59 N           0.5794  -12.9843  -45.0582 N.am      3 UNK        -0.5000 
     60 C          -0.7138  -13.1038  -44.7303 C.2       2 UNK         0.5000 
     61 O          -1.3250  -12.2641  -44.0675 O.2       2 UNK        -0.5000 
     62 CA         -1.4307  -14.3712  -45.2409 C.3       2 UNK         0.1400 
     63 CB         -2.9095  -14.4379  -44.8196 C.3       2 UNK        -0.1800 
     64 N          -1.3582  -14.4909  -46.6956 N.am      2 UNK        -0.5000 
     65 C          -0.3134  -14.9344  -47.4028 C.2       1 UNK         0.5000 
     66 O           0.7372  -15.3005  -46.8748 O.2       1 UNK        -0.5000 
     67 C          -0.4999  -20.7380  -48.5706 C.2       11 UNK         0.5000 
     68 O          -0.9103  -21.3081  -49.5816 O.2       11 UNK        -0.5000 
     69 N          -1.2923  -20.0581  -47.7286 N.am      12 UNK        -0.5000 
     70 CA         -2.7101  -19.8072  -47.9894 C.3       12 UNK         0.1400 
     71 CB         -3.1762  -18.5508  -47.2338 C.3       12 UNK        -0.1800 
     72 C          -3.5762  -21.0292  -47.6546 C.2       12 UNK         0.5000 
     73 O          -4.2955  -21.5214  -48.5261 O.2       12 UNK        -0.5000 
     74 N          -3.4634  -21.5134  -46.4103 N.am      13 UNK        -0.5000 
     75 CA         -4.2445  -22.6199  -45.8501 C.3       13 UNK         0.1400 
     76 CB         -3.9547  -22.7364  -44.3476 C.3       13 UNK        -0.1800 
     77 C          -4.0128  -23.9708  -46.5494 C.2       13 UNK         0.5000 
     78 O          -4.8915  -24.8324  -46.4996 O.2       13 UNK        -0.5000 
     79 N          -2.8682  -24.1101  -47.2342 N.am      14 UNK        -0.5000 
     80 CA         -2.5124  -25.2453  -48.0890 C.3       14 UNK         0.1400 
     81 CB         -1.0844  -25.0417  -48.6149 C.3       14 UNK        -0.1800 
     82 C          -3.4909  -25.4758  -49.2599 C.2       14 UNK         0.5000 
     83 O          -3.5915  -26.6028  -49.7462 O.2       14 UNK        -0.5000 
     84 N          -4.2149  -24.4244  -49.6639 N.am      15 UNK        -0.5000 
     85 CA         -5.3230  -24.4856  -50.6087 C.3       15 UNK         0.1400 
     86 CB         -4.8238  -24.1673  -52.0281 C.3       15 UNK        -0.1800 
     87 C          -6.4443  -23.5533  -50.1231 C.2       15 UNK         0.5000 
     88 O          -6.9247  -22.7159  -50.8895 O.2       15 UNK        -0.5000 
     89 N          -6.8092  -23.6963  -48.8396 N.am      16 UNK        -0.5000 
     90 CA         -7.8471  -22.9813  -48.0823 C.3       16 UNK         0.1400 
     91 CB         -9.2437  -23.2113  -48.6923 C.3       16 UNK        -0.1800 
     92 C          -7.5703  -21.4798  -47.8681 C.2       16 UNK         0.5000 
     93 O          -7.5283  -21.0266  -46.7241 O.2       16 UNK        -0.5000 
     94 N          -7.3803  -20.7450  -48.9650 N.am      17 UNK        -0.5000 
     95 CA         -7.0447  -19.3253  -49.0143 C.3       17 UNK         0.1400 
     96 CB         -8.3087  -18.4699  -48.7980 C.3       17 UNK        -0.1800 
     97 C          -6.3272  -19.0281  -50.3428 C.2       17 UNK         0.5000 
     98 O          -6.6625  -18.0586  -51.0239 O.2       17 UNK        -0.5000 
     99 N          -5.3776  -19.9061  -50.7018 N.am      18 UNK        -0.5000 
    100 CA        -4.6460  -19.9542  -51.9733 C.3       18 UNK         0.1400 
    101 CB        -3.6490  -18.7835  -52.0922 C.3       18 UNK        -0.1800 
    102 C         -5.5761  -20.0856  -53.2010 C.2       18 UNK         0.5000 
    103 O         -5.3705  -19.4179  -54.2148 O.2       18 UNK        -0.5000 
    104 N         -6.5930  -20.9522  -53.0904 N.am      19 UNK        -0.5000 
    105 CA        -7.5779  -21.2160  -54.1443 C.3       19 UNK         0.1400 
    106 CB        -8.7931  -21.9209  -53.5219 C.3       19 UNK        -0.1800 
    107 C         -7.0087  -22.0519  -55.3084 C.2       19 UNK         0.5000 
    108 O         -7.5472  -22.0034  -56.4148 O.2       19 UNK        -0.5000 
    109 N         -5.9334  -22.7975  -55.0343 N.am      20 UNK        -0.5000 
    110 CA        -5.2100  -23.6524  -55.9714 C.3       20 UNK         0.1400 
    111 CB        -5.8344  -25.0610  -55.9787 C.3       20 UNK        -0.1800 
    112 C         -3.7107  -23.6526  -55.6193 C.2       20 UNK         0.5000 
    113 O         -3.0571  -24.6948  -55.6824 O.2       20 UNK        -0.5000 
    114 N         -3.1954  -22.4802  -55.2330 N.am      21 UNK        -0.5000 
    115 CA        -1.7953  -22.2288  -54.9082 C.3       21 UNK         0.1400 
    116 CB        -1.5518  -22.4804  -53.4087 C.3       21 UNK        -0.1800 
    117 C         -1.4595  -20.7820  -55.2973 C.2       21 UNK         0.5000 
    118 O         -2.3695  -19.9805  -55.5221 O.2       21 UNK        -0.5000 
    119 N         -0.1618  -20.4745  -55.3746 N.am      22 UNK        -0.5000 
    120 CA         0.3617  -19.1406  -55.7133 C.3       22 UNK         0.1400 
    121 C          0.2487  -18.0720  -54.5883 C.2       22 UNK         0.5000 
    122 N         -0.0140  -18.4380  -53.3399 N.am      22 UNK        -0.7600 
    123 O          0.3845  -16.8835  -54.8647 O.2       22 UNK        -0.5000 
    124 C124        1.7928  -19.2136  -56.3102 C.3       23 UNK        -0.0398 
    125 S125        2.9637  -20.2607  -55.3704 S.3       23 UNK        -0.2404 
    126 C126        4.2147  -19.0649  -54.8053 C.3       23 UNK        -0.0205 
    127 H127       -4.4666  -15.6584  -50.7241 H         1 UNK         0.0600 
    128 H128       -3.8219  -17.0174  -49.7948 H         1 UNK         0.0600 
    129 H129       -4.9378  -15.8864  -49.0370 H         1 UNK         0.0600 
    130 H130       -1.6120  -16.5626  -49.7028 H         1 UNK         0.3000 
    131 H131       -0.5260  -13.9164  -49.2549 H         1 UNK         0.0600 
    132 H132        0.8339  -16.6486  -49.4191 H         1 UNK         0.0800 
    133 H133        1.6782  -15.1270  -49.2717 H         1 UNK         0.0800 
    134 H134        2.6118  -14.7579  -52.7973 H         1 UNK         0.0800 
    135 H135        3.0448  -14.7446  -51.1113 H         1 UNK         0.0800 
    136 H136        3.1408  -16.6327  -54.1612 H         1 UNK         0.1150 
    137 H137        4.5519  -20.2721  -52.4045 H         1 UNK         0.1150 
    138 H138        3.2105  -17.0532  -49.9039 H         1 UNK         0.1150 
    139 H139        3.8995  -20.7013  -50.0442 H         1 UNK         0.0800 
    140 H140        5.2702  -19.6916  -49.6532 H         1 UNK         0.0800 
    141 H141        1.4660  -19.1709  -49.6963 H         1 UNK         0.0800 
    142 H142        1.1062  -18.5699  -48.1021 H         1 UNK         0.0800 
    143 H143        1.4637  -21.4820  -48.9248 H         1 UNK         0.0600 
    144 H144        1.2785  -20.3420  -46.2047 H         1 UNK         0.3000 
    145 H145        2.3146  -23.5186  -44.8294 H         1 UNK         0.0600 
    146 H146        4.0794  -22.0169  -43.9854 H         1 UNK         0.0600 
    147 H147        4.3036  -22.2889  -45.7068 H         1 UNK         0.0600 
    148 H148        3.6219  -20.7683  -45.1428 H         1 UNK         0.0600 
    149 H149        1.7233  -21.0040  -43.5928 H         1 UNK         0.3000 
    150 H150       -1.5441  -21.9962  -42.4600 H         1 UNK         0.0600 
    151 H151        0.1563  -23.0084  -40.9337 H         1 UNK         0.0600 
    152 H152       -0.4463  -21.4799  -40.3099 H         1 UNK         0.0600 
    153 H153        1.1450  -21.5579  -41.0615 H         1 UNK         0.0600 
    154 H154       -0.0835  -19.6107  -42.0016 H         1 UNK         0.3000 
    155 H155       -1.4161  -17.7498  -44.7880 H         1 UNK         0.0600 
    156 H156       -1.7126  -17.6890  -41.7360 H         1 UNK         0.0600 
    157 H157       -3.0078  -17.5785  -42.9189 H         1 UNK         0.0600 
    158 H158       -1.8321  -16.2799  -42.7771 H         1 UNK         0.0600 
    159 H159        0.5203  -17.0011  -42.8787 H         1 UNK         0.3000 
    160 H160        3.4360  -18.2227  -44.5671 H         1 UNK         0.0600 
    161 H161        4.0220  -15.7977  -44.2234 H         1 UNK         0.0600 
    162 H162        2.3034  -15.4077  -44.1502 H         1 UNK         0.0600 
    163 H163        2.9993  -16.0576  -45.6265 H         1 UNK         0.0600 
    164 H164        2.9767  -16.7938  -42.1076 H         1 UNK         0.3000 
    165 H165        2.8503  -19.6845  -40.0042 H         1 UNK         0.0600 
    166 H166        4.7516  -18.4886  -38.9582 H         1 UNK         0.0600 
    167 H167        5.2708  -19.2511  -40.4527 H         1 UNK         0.0600 
    168 H168        4.9820  -17.5158  -40.4112 H         1 UNK         0.0600 
    169 H169        2.7839  -16.8691  -39.4699 H         1 UNK         0.3000 
    170 H170       -0.7382  -16.4380  -39.7014 H         1 UNK         0.0600 
    171 H171       -0.3690  -17.4410  -37.4406 H         1 UNK         0.0600 
    172 H172        1.1160  -16.5143  -37.2605 H         1 UNK         0.0600 
    173 H173       -0.4393  -15.6882  -37.3618 H         1 UNK         0.0600 
    174 H174        1.2737  -14.6250  -38.9010 H         1 UNK         0.3000 
    175 H175        1.4248  -12.7104  -40.5178 H         1 UNK         0.0600 
    176 H176        3.8275  -14.4214  -41.4383 H         1 UNK         0.0600 
    177 H177        3.9082  -12.7152  -41.0086 H         1 UNK         0.0600 
    178 H178        3.5243  -13.9083  -39.7813 H         1 UNK         0.0600 
    179 H179        1.3283  -13.9128  -43.0933 H         1 UNK         0.3000 
    180 H180        0.9598  -10.9452  -44.8196 H         1 UNK         0.0600 
    181 H181        3.2822  -12.8809  -45.3477 H         1 UNK         0.0600 
    182 H182        3.4220  -11.1313  -45.2174 H         1 UNK         0.0600 
    183 H183        2.5144  -11.8380  -46.5450 H         1 UNK         0.0600 
    184 H184        0.9869  -13.7146  -45.6333 H         1 UNK         0.3000 
    185 H185       -0.9175  -15.2238  -44.7934 H         1 UNK         0.0600 
    186 H186       -3.0160  -14.3591  -43.7370 H         1 UNK         0.0600 
    187 H187       -3.4913  -13.6310  -45.2667 H         1 UNK         0.0600 
    188 H188       -3.3608  -15.3836  -45.1210 H         1 UNK         0.0600 
    189 H189       -2.1665  -14.1698  -47.2201 H         1 UNK         0.3000 
    190 H190       -0.9004  -19.6718  -46.8803 H         1 UNK         0.3000 
    191 H191       -2.8302  -19.6025  -49.0545 H         1 UNK         0.0600 
    192 H192       -3.2171  -18.7042  -46.1567 H         1 UNK         0.0600 
    193 H193       -4.1768  -18.2580  -47.5510 H         1 UNK         0.0600 
    194 H194       -2.5156  -17.7050  -47.4229 H         1 UNK         0.0600 
    195 H195       -2.8301  -21.0433  -45.7635 H         1 UNK         0.3000 
    196 H196       -5.2991  -22.3703  -45.9715 H         1 UNK         0.0600 
    197 H197       -4.1579  -21.7985  -43.8302 H         1 UNK         0.0600 
    198 H198       -2.9146  -23.0034  -44.1654 H         1 UNK         0.0600 
    199 H199       -4.5767  -23.5047  -43.8868 H         1 UNK         0.0600 
    200 H200       -2.2157  -23.3402  -47.2141 H         1 UNK         0.3000 
    201 H201       -2.5275  -26.1440  -47.4694 H         1 UNK         0.0600 
    202 H202       -0.9984  -24.1277  -49.2042 H         1 UNK         0.0600 
    203 H203       -0.7773  -25.8731  -49.2506 H         1 UNK         0.0600 
    204 H204       -0.3696  -24.9815  -47.7945 H         1 UNK         0.0600 
    205 H205       -4.0789  -23.5290  -49.2054 H         1 UNK         0.3000 
    206 H206       -5.7497  -25.4907  -50.6166 H         1 UNK         0.0600 
    207 H207       -5.6410  -24.2489  -52.7436 H         1 UNK         0.0600 
    208 H208       -4.4082  -23.1631  -52.0946 H         1 UNK         0.0600 
    209 H209       -4.0506  -24.8692  -52.3409 H         1 UNK         0.0600 
    210 H210       -6.2943  -24.3758  -48.2931 H         1 UNK         0.3000 
    211 H211       -7.8490  -23.4390  -47.0917 H         1 UNK         0.0600 
    212 H212       -9.3296  -22.7928  -49.6955 H         1 UNK         0.0600 
    213 H213      -10.0164  -22.7454  -48.0794 H         1 UNK         0.0600 
    214 H214       -9.4752  -24.2746  -48.7534 H         1 UNK         0.0600 
    215 H215       -7.3804  -21.2393  -49.8538 H         1 UNK         0.3000 
    216 H216       -6.3350  -19.1038  -48.2155 H         1 UNK         0.0600 
    217 H217       -8.0701  -17.4058  -48.8166 H         1 UNK         0.0600 
    218 H218       -8.7698  -18.6789  -47.8328 H         1 UNK         0.0600 
    219 H219       -9.0536  -18.6564  -49.5724 H         1 UNK         0.0600 
    220 H220       -5.1616  -20.6519  -50.0454 H         1 UNK         0.3000 
    221 H221       -4.0596  -20.8708  -51.9405 H         1 UNK         0.0600 
    222 H222       -4.1592  -17.8218  -52.1431 H         1 UNK         0.0600 
    223 H223       -2.9584  -18.7614  -51.2508 H         1 UNK         0.0600 
    224 H224       -3.0442  -18.8764  -52.9950 H         1 UNK         0.0600 
    225 H225       -6.7040  -21.4865  -52.2314 H         1 UNK         0.3000 
    226 H226       -7.9104  -20.2597  -54.5534 H         1 UNK         0.0600 
    227 H227       -9.2221  -21.3290  -52.7131 H         1 UNK         0.0600 
    228 H228       -9.5773  -22.0756  -54.2640 H         1 UNK         0.0600 
    229 H229       -8.5275  -22.8982  -53.1170 H         1 UNK         0.0600 
    230 H230       -5.5588  -22.7575  -54.0980 H         1 UNK         0.3000 
    231 H231       -5.2887  -23.2344  -56.9770 H         1 UNK         0.0600 
    232 H232       -6.8898  -25.0238  -56.2490 H         1 UNK         0.0600 
    233 H233       -5.7554  -25.5391  -55.0018 H         1 UNK         0.0600 
    234 H234       -5.3386  -25.7069  -56.7042 H         1 UNK         0.0600 
    235 H235       -3.7601  -21.6406  -55.2912 H         1 UNK         0.3000 
    236 H236       -1.1584  -22.8921  -55.4975 H         1 UNK         0.0600 
    237 H237       -0.4975  -22.3618  -53.1568 H         1 UNK         0.0600 
    238 H238       -2.1141  -21.7866  -52.7851 H         1 UNK         0.0600 
    239 H239       -1.8380  -23.4932  -53.1246 H         1 UNK         0.0600 
    240 H240        0.5365  -21.1744  -55.1673 H         1 UNK         0.3000 
    241 H241       -0.2731  -18.7536  -56.5132 H         1 UNK         0.0600 
    242 H242       -0.0602  -17.7226  -52.6325 H         1 UNK         0.3800 
    243 H243       -0.1124  -19.4087  -53.0960 H         1 UNK         0.3800 
    244 H244        1.7292  -19.6410  -57.3116 H         1 UNK         0.0800 
    245 H245        2.2072  -18.2148  -56.4569 H         1 UNK         0.0800 
    246 H246        5.1796  -19.5723  -54.7616 H         1 UNK         0.0800 
    247 H247        4.3359  -18.2625  -55.5343 H         1 UNK         0.0800 
@<TRIPOS>BOND
     1    1    2 1    
     2    1  127 1    
     3    1  128 1    
     4    1  129 1    
     5    2    3 2    
     6    2    4 am   BACKBONE|DICT|INTERRES
     7    4    5 1    
     8    4  130 1    
     9    5    6 1    
    10    5   65 1    
    11    5  131 1    
    12    6    7 1    
    13    6  132 1    
    14    6  133 1    
    15    7    8 1    
    16    8    9 1    
    17    8  134 1    
    18    8  135 1    
    19    9   10 ar   
    20    9   14 ar   
    21   10   11 ar   
    22   10  136 1    
    23   11   12 ar   
    24   11  126 1    
    25   12   13 ar   
    26   12  137 1    
    27   13   14 ar   
    28   13   15 1    
    29   14  138 1    
    30   15   16 1    
    31   15  139 1    
    32   15  140 1    
    33   16   17 1    
    34   17   18 1    
    35   17  141 1    
    36   17  142 1    
    37   18   19 1    
    38   18   67 1    
    39   18  143 1    
    40   19   20 am   BACKBONE|DICT|INTERRES
    41   19  144 1    
    42   20   21 2    
    43   20   22 1    
    44   22   23 1    
    45   22   24 1    
    46   22  145 1    
    47   23  146 1    
    48   23  147 1    
    49   23  148 1    
    50   24   25 am   BACKBONE|DICT|INTERRES
    51   24  149 1    
    52   25   26 2    
    53   25   27 1    
    54   27   28 1    
    55   27   29 1    
    56   27  150 1    
    57   28  151 1    
    58   28  152 1    
    59   28  153 1    
    60   29   30 am   BACKBONE|DICT|INTERRES
    61   29  154 1    
    62   30   31 2    
    63   30   32 1    
    64   32   33 1    
    65   32   34 1    
    66   32  155 1    
    67   33  156 1    
    68   33  157 1    
    69   33  158 1    
    70   34   35 am   BACKBONE|DICT|INTERRES
    71   34  159 1    
    72   35   36 2    
    73   35   37 1    
    74   37   38 1    
    75   37   39 1    
    76   37  160 1    
    77   38  161 1    
    78   38  162 1    
    79   38  163 1    
    80   39   40 am   BACKBONE|DICT|INTERRES
    81   39  164 1    
    82   40   41 2    
    83   40   42 1    
    84   42   43 1    
    85   42   44 1    
    86   42  165 1    
    87   43  166 1    
    88   43  167 1    
    89   43  168 1    
    90   44   45 am   BACKBONE|DICT|INTERRES
    91   44  169 1    
    92   45   46 2    
    93   45   47 1    
    94   47   48 1    
    95   47   49 1    
    96   47  170 1    
    97   48  171 1    
    98   48  172 1    
    99   48  173 1    
   100   49   50 am   BACKBONE|DICT|INTERRES
   101   49  174 1    
   102   50   51 2    
   103   50   52 1    
   104   52   53 1    
   105   52   54 1    
   106   52  175 1    
   107   53  176 1    
   108   53  177 1    
   109   53  178 1    
   110   54   55 am   BACKBONE|DICT|INTERRES
   111   54  179 1    
   112   55   56 2    
   113   55   57 1    
   114   57   58 1    
   115   57   59 1    
   116   57  180 1    
   117   58  181 1    
   118   58  182 1    
   119   58  183 1    
   120   59   60 am   BACKBONE|DICT|INTERRES
   121   59  184 1    
   122   60   61 2    
   123   60   62 1    
   124   62   63 1    
   125   62   64 1    
   126   62  185 1    
   127   63  186 1    
   128   63  187 1    
   129   63  188 1    
   130   64   65 am   BACKBONE|DICT|INTERRES
   131   64  189 1    
   132   65   66 2    
   133   67   68 2    
   134   67   69 am   BACKBONE|DICT|INTERRES
   135   69   70 1    
   136   69  190 1    
   137   70   71 1    
   138   70   72 1    
   139   70  191 1    
   140   71  192 1    
   141   71  193 1    
   142   71  194 1    
   143   72   73 2    
   144   72   74 am   BACKBONE|DICT|INTERRES
   145   74   75 1    
   146   74  195 1    
   147   75   76 1    
   148   75   77 1    
   149   75  196 1    
   150   76  197 1    
   151   76  198 1    
   152   76  199 1    
   153   77   78 2    
   154   77   79 am   BACKBONE|DICT|INTERRES
   155   79   80 1    
   156   79  200 1    
   157   80   81 1    
   158   80   82 1    
   159   80  201 1    
   160   81  202 1    
   161   81  203 1    
   162   81  204 1    
   163   82   83 2    
   164   82   84 am   BACKBONE|DICT|INTERRES
   165   84   85 1    
   166   84  205 1    
   167   85   86 1    
   168   85   87 1    
   169   85  206 1    
   170   86  207 1    
   171   86  208 1    
   172   86  209 1    
   173   87   88 2    
   174   87   89 am   BACKBONE|DICT|INTERRES
   175   89   90 1    
   176   89  210 1    
   177   90   91 1    
   178   90   92 1    
   179   90  211 1    
   180   91  212 1    
   181   91  213 1    
   182   91  214 1    
   183   92   93 2    
   184   92   94 am   BACKBONE|DICT|INTERRES
   185   94   95 1    
   186   94  215 1    
   187   95   96 1    
   188   95   97 1    
   189   95  216 1    
   190   96  217 1    
   191   96  218 1    
   192   96  219 1    
   193   97   98 2    
   194   97   99 am   BACKBONE|DICT|INTERRES
   195   99  100 1    
   196   99  220 1    
   197  100  101 1    
   198  100  102 1    
   199  100  221 1    
   200  101  222 1    
   201  101  223 1    
   202  101  224 1    
   203  102  103 2    
   204  102  104 am   BACKBONE|DICT|INTERRES
   205  104  105 1    
   206  104  225 1    
   207  105  106 1    
   208  105  107 1    
   209  105  226 1    
   210  106  227 1    
   211  106  228 1    
   212  106  229 1    
   213  107  108 2    
   214  107  109 am   BACKBONE|DICT|INTERRES
   215  109  110 1    
   216  109  230 1    
   217  110  111 1    
   218  110  112 1    
   219  110  231 1    
   220  111  232 1    
   221  111  233 1    
   222  111  234 1    
   223  112  113 2    
   224  112  114 am   BACKBONE|DICT|INTERRES
   225  114  115 1    
   226  114  235 1    
   227  115  116 1    
   228  115  117 1    
   229  115  236 1    
   230  116  237 1    
   231  116  238 1    
   232  116  239 1    
   233  117  118 2    
   234  117  119 am   BACKBONE|DICT|INTERRES
   235  119  120 1    
   236  119  240 1    
   237  120  121 1    
   238  120  124 1    
   239  120  241 1    
   240  121  122 am   BACKBONE|DICT|INTERRES
   241  121  123 2    
   242  122  242 1    
   243  122  243 1    
   244  124  125 1    
   245  124  244 1    
   246  124  245 1    
   247  125  126 1    
   248  126  246 1    
   249  126  247 1    
@<TRIPOS>SUBSTRUCTURE
     1 UNK         1 GROUP             0       ****    0 ROOT    
