@<TRIPOS>MOLECULE
3R540
247   249    1
SMALL
USER_CHARGES


@<TRIPOS>ATOM
      1 CA         -2.6057  -14.0154  -40.5737 C.3       0 UNK        -0.1800 
      2 C          -1.4363  -13.2625  -41.1912 C.2       0 UNK         0.5000 
      3 O          -0.5603  -12.7851  -40.4701 O.2       0 UNK        -0.5000 
      4 N          -1.4056  -13.1709  -42.5258 N.am      1 UNK        -0.5000 
      5 CA         -0.3845  -12.4993  -43.3401 C.3       1 UNK         0.1400 
      6 C6         -0.9605  -12.0711  -44.7156 C.3       23 UNK        -0.0398 
      7 S7         -1.5812  -13.4607  -45.7332 S.3       23 UNK        -0.2404 
      8 C8         -3.3742  -13.1670  -45.6854 C.3       23 UNK        -0.0205 
      9 C9         -4.1333  -14.2398  -46.4503 C.ar      23 UNK        -0.0193 
     10 C10        -4.5161  -14.0245  -47.7784 C.ar      23 UNK        -0.1150 
     11 C11        -5.2430  -14.9954  -48.4753 C.ar      23 UNK        -0.0193 
     12 C12        -5.5942  -16.1811  -47.8253 C.ar      23 UNK        -0.1150 
     13 C13        -5.1817  -16.4284  -46.5139 C.ar      23 UNK        -0.0193 
     14 C14        -4.4601  -15.4479  -45.8270 C.ar      23 UNK        -0.1150 
     15 C15        -5.5098  -17.7583  -45.8499 C.3       23 UNK        -0.0205 
     16 S16        -4.8287  -19.1549  -46.8020 S.3       23 UNK        -0.2404 
     17 C17        -4.6152  -20.4100  -45.5037 C.3       23 UNK        -0.0398 
     18 CA         -3.8756  -21.6622  -46.0299 C.3       11 UNK         0.1400 
     19 N          -2.4974  -21.3827  -46.4706 N.am      11 UNK        -0.5000 
     20 C          -1.6557  -22.2762  -47.0145 C.2       10 UNK         0.5000 
     21 O          -1.9597  -23.4499  -47.2210 O.2       10 UNK        -0.5000 
     22 CA         -0.2320  -21.8098  -47.3571 C.3       10 UNK         0.1400 
     23 CB         -0.1862  -21.1289  -48.7338 C.3       10 UNK        -0.1800 
     24 N           0.3021  -20.9214  -46.3274 N.am      10 UNK        -0.5000 
     25 C           0.7294  -21.3390  -45.1265 C.2       9 UNK         0.5000 
     26 O           0.8056  -22.5250  -44.8062 O.2       9 UNK        -0.5000 
     27 CA          1.1010  -20.2559  -44.0961 C.3       9 UNK         0.1400 
     28 CB          2.5998  -19.9258  -44.1614 C.3       9 UNK        -0.1800 
     29 N           0.3209  -19.0307  -44.2728 N.am      9 UNK        -0.5000 
     30 C          -0.9773  -18.9166  -43.9566 C.2       8 UNK         0.5000 
     31 O          -1.6335  -19.8172  -43.4318 O.2       8 UNK        -0.5000 
     32 CA         -1.6717  -17.5926  -44.3336 C.3       8 UNK         0.1400 
     33 CB         -1.5626  -16.5784  -43.1875 C.3       8 UNK        -0.1800 
     34 N          -1.1601  -16.9852  -45.5651 N.am      8 UNK        -0.5000 
     35 C          -1.1871  -17.5711  -46.7708 C.2       7 UNK         0.5000 
     36 O          -1.6493  -18.6915  -46.9661 O.2       7 UNK        -0.5000 
     37 CA         -0.4996  -16.8336  -47.9324 C.3       7 UNK         0.1400 
     38 CB         -1.4901  -15.9435  -48.6939 C.3       7 UNK        -0.1800 
     39 N           0.6561  -16.0467  -47.4966 N.am      7 UNK        -0.5000 
     40 C           1.7823  -16.5792  -46.9989 C.2       6 UNK         0.5000 
     41 O           1.9390  -17.7913  -46.8475 O.2       6 UNK        -0.5000 
     42 CA          2.8929  -15.6111  -46.5419 C.3       6 UNK         0.1400 
     43 CB          4.3093  -16.1441  -46.8388 C.3       6 UNK        -0.1800 
     44 N           2.7323  -14.2315  -47.0182 N.am      6 UNK        -0.5000 
     45 C           2.8132  -13.7883  -48.2824 C.2       5 UNK         0.5000 
     46 O           3.0212  -14.5065  -49.2601 O.2       5 UNK        -0.5000 
     47 CA          2.6343  -12.2726  -48.4766 C.3       5 UNK         0.1400 
     48 CB          1.1579  -11.8763  -48.3213 C.3       5 UNK        -0.1800 
     49 N           3.4563  -11.4890  -47.5496 N.am      5 UNK        -0.5000 
     50 C           4.7951  -11.4134  -47.6036 C.2       4 UNK         0.5000 
     51 O           5.4779  -12.0003  -48.4427 O.2       4 UNK        -0.5000 
     52 CA          5.5031  -10.5421  -46.5458 C.3       4 UNK         0.1400 
     53 CB          5.9171   -9.1972  -47.1626 C.3       4 UNK        -0.1800 
     54 N           4.6785  -10.2764  -45.3624 N.am      4 UNK        -0.5000 
     55 C           4.4347  -11.0887  -44.3232 C.2       3 UNK         0.5000 
     56 O           3.6730  -10.7324  -43.4244 O.2       3 UNK        -0.5000 
     57 CA          5.1207  -12.4758  -44.2456 C.3       3 UNK         0.1400 
     58 CB          6.4869  -12.4041  -43.5347 C.3       3 UNK        -0.1800 
     59 N           4.2303  -13.4780  -43.6529 N.am      3 UNK        -0.5000 
     60 C           3.8753  -13.6628  -42.3743 C.2       2 UNK         0.5000 
     61 O           4.4050  -13.1188  -41.4037 O.2       2 UNK        -0.5000 
     62 CA          2.6608  -14.5915  -42.1725 C.3       2 UNK         0.1400 
     63 CB          2.6637  -15.2787  -40.7965 C.3       2 UNK        -0.1800 
     64 N           1.4101  -13.8489  -42.3237 N.am      2 UNK        -0.5000 
     65 C           0.9325  -13.3095  -43.4528 C.2       1 UNK         0.5000 
     66 O           1.4855  -13.4458  -44.5471 O.2       1 UNK        -0.5000 
     67 C          -3.9512  -22.7982  -44.9894 C.2       11 UNK         0.5000 
     68 O          -4.8710  -23.6146  -45.0529 O.2       11 UNK        -0.5000 
     69 N          -2.9457  -22.8783  -44.1063 N.am      12 UNK        -0.5000 
     70 CA         -2.7595  -23.9605  -43.1349 C.3       12 UNK         0.1400 
     71 CB         -1.6135  -23.5778  -42.1861 C.3       12 UNK        -0.1800 
     72 C          -2.4976  -25.3445  -43.7727 C.2       12 UNK         0.5000 
     73 O          -2.6891  -26.3604  -43.1039 O.2       12 UNK        -0.5000 
     74 N          -2.0877  -25.3621  -45.0472 N.am      13 UNK        -0.5000 
     75 CA         -1.8535  -26.5462  -45.8705 C.3       13 UNK         0.1400 
     76 CB         -0.3998  -26.5057  -46.3765 C.3       13 UNK        -0.1800 
     77 C          -2.8694  -26.6213  -47.0306 C.2       13 UNK         0.5000 
     78 O          -2.5443  -27.1630  -48.0879 O.2       13 UNK        -0.5000 
     79 N          -4.0741  -26.0615  -46.8297 N.am      14 UNK        -0.5000 
     80 CA         -5.1969  -26.0151  -47.7762 C.3       14 UNK         0.1400 
     81 CB         -5.7560  -27.4307  -48.0317 C.3       14 UNK        -0.1800 
     82 C          -4.8403  -25.2653  -49.0762 C.2       14 UNK         0.5000 
     83 O          -5.0199  -25.7935  -50.1750 O.2       14 UNK        -0.5000 
     84 N          -4.2893  -24.0550  -48.9094 N.am      15 UNK        -0.5000 
     85 CA         -3.7464  -23.1766  -49.9530 C.3       15 UNK         0.1400 
     86 CB         -4.8625  -22.6669  -50.8882 C.3       15 UNK        -0.1800 
     87 C          -2.5669  -23.8371  -50.6950 C.2       15 UNK         0.5000 
     88 O          -2.4818  -23.7574  -51.9201 O.2       15 UNK        -0.5000 
     89 N          -1.6980  -24.5095  -49.9242 N.am      16 UNK        -0.5000 
     90 CA         -0.5729  -25.3398  -50.3673 C.3       16 UNK         0.1400 
     91 CB          0.5506  -24.4569  -50.9500 C.3       16 UNK        -0.1800 
     92 C          -1.0281  -26.4594  -51.3273 C.2       16 UNK         0.5000 
     93 O          -0.4662  -26.6124  -52.4111 O.2       16 UNK        -0.5000 
     94 N          -2.0834  -27.1825  -50.9248 N.am      17 UNK        -0.5000 
     95 CA         -2.8328  -28.1685  -51.7124 C.3       17 UNK         0.1400 
     96 CB         -1.9819  -29.4311  -51.9610 C.3       17 UNK        -0.1800 
     97 C          -3.4175  -27.5592  -53.0072 C.2       17 UNK         0.5000 
     98 O          -3.2875  -28.1396  -54.0867 O.2       17 UNK        -0.5000 
     99 N          -4.0346  -26.3782  -52.8591 N.am      18 UNK        -0.5000 
    100 CA        -4.6407  -25.5361  -53.8964 C.3       18 UNK         0.1400 
    101 CB        -5.8726  -26.2345  -54.5089 C.3       18 UNK        -0.1800 
    102 C         -3.6556  -25.0120  -54.9676 C.2       18 UNK         0.5000 
    103 O         -4.0872  -24.6685  -56.0700 O.2       18 UNK        -0.5000 
    104 N         -2.3590  -24.9416  -54.6378 N.am      19 UNK        -0.5000 
    105 CA        -1.3157  -24.4005  -55.5098 C.3       19 UNK         0.1400 
    106 CB         0.0201  -25.0919  -55.2014 C.3       19 UNK        -0.1800 
    107 C         -1.1642  -22.8746  -55.3748 C.2       19 UNK         0.5000 
    108 O         -0.7434  -22.2298  -56.3370 O.2       19 UNK        -0.5000 
    109 N         -1.4827  -22.3192  -54.1966 N.am      20 UNK        -0.5000 
    110 CA        -1.4116  -20.8845  -53.9202 C.3       20 UNK         0.1400 
    111 CB        -1.4128  -20.6565  -52.4002 C.3       20 UNK        -0.1800 
    112 C         -2.5741  -20.1242  -54.5820 C.2       20 UNK         0.5000 
    113 O         -3.6692  -20.6740  -54.7278 O.2       20 UNK        -0.5000 
    114 N         -2.3277  -18.8526  -54.9261 N.am      21 UNK        -0.5000 
    115 CA        -3.2755  -17.9553  -55.5996 C.3       21 UNK         0.1400 
    116 CB        -2.5650  -16.6329  -55.9271 C.3       21 UNK        -0.1800 
    117 C         -4.5723  -17.6875  -54.8091 C.2       21 UNK         0.5000 
    118 O         -5.6093  -17.4227  -55.4187 O.2       21 UNK        -0.5000 
    119 N         -4.4941  -17.7859  -53.4767 N.am      22 UNK        -0.5000 
    120 CA        -5.6438  -17.7348  -52.5612 C.3       22 UNK         0.1400 
    121 C         -6.4905  -19.0445  -52.5225 C.2       22 UNK         0.5000 
    122 N         -6.0964  -20.1317  -53.1762 N.am      22 UNK        -0.7600 
    123 O         -7.5443  -19.0704  -51.8927 O.2       22 UNK        -0.5000 
    124 C124       -5.2172  -17.3032  -51.1350 C.3       23 UNK        -0.0398 
    125 S125       -4.5265  -15.6102  -51.0893 S.3       23 UNK        -0.2404 
    126 C126       -5.6481  -14.7637  -49.9252 C.3       23 UNK        -0.0205 
    127 H127       -3.1342  -13.3745  -39.8680 H         1 UNK         0.0600 
    128 H128       -2.2443  -14.8921  -40.0362 H         1 UNK         0.0600 
    129 H129       -3.3179  -14.3492  -41.3288 H         1 UNK         0.0600 
    130 H130       -2.1398  -13.6105  -43.0596 H         1 UNK         0.3000 
    131 H131       -0.1092  -11.5785  -42.8216 H         1 UNK         0.0600 
    132 H132       -1.7669  -11.3535  -44.5593 H         1 UNK         0.0800 
    133 H133       -0.2084  -11.5270  -45.2877 H         1 UNK         0.0800 
    134 H134       -3.7166  -13.1416  -44.6500 H         1 UNK         0.0800 
    135 H135       -3.5898  -12.1834  -46.1056 H         1 UNK         0.0800 
    136 H136       -4.2467  -13.1002  -48.2698 H         1 UNK         0.1150 
    137 H137       -6.1675  -16.9349  -48.3420 H         1 UNK         0.1150 
    138 H138       -4.1497  -15.6230  -44.8074 H         1 UNK         0.1150 
    139 H139       -5.1215  -17.7798  -44.8312 H         1 UNK         0.0800 
    140 H140       -6.5921  -17.8690  -45.7721 H         1 UNK         0.0800 
    141 H141       -5.6088  -20.6711  -45.1338 H         1 UNK         0.0800 
    142 H142       -4.0746  -19.9722  -44.6637 H         1 UNK         0.0800 
    143 H143       -4.4181  -22.0135  -46.9091 H         1 UNK         0.0600 
    144 H144       -2.2004  -20.4103  -46.4271 H         1 UNK         0.3000 
    145 H145        0.4030  -22.6972  -47.4087 H         1 UNK         0.0600 
    146 H146       -0.8499  -20.2676  -48.7946 H         1 UNK         0.0600 
    147 H147        0.8223  -20.7928  -48.9748 H         1 UNK         0.0600 
    148 H148       -0.4917  -21.8228  -49.5162 H         1 UNK         0.0600 
    149 H149        0.2346  -19.9282  -46.5042 H         1 UNK         0.3000 
    150 H150        0.8882  -20.6574  -43.1028 H         1 UNK         0.0600 
    151 H151        3.2006  -20.8125  -43.9555 H         1 UNK         0.0600 
    152 H152        2.8716  -19.1708  -43.4236 H         1 UNK         0.0600 
    153 H153        2.8923  -19.5568  -45.1444 H         1 UNK         0.0600 
    154 H154        0.7773  -18.2673  -44.7515 H         1 UNK         0.3000 
    155 H155       -2.7273  -17.8163  -44.4925 H         1 UNK         0.0600 
    156 H156       -1.9259  -17.0023  -42.2503 H         1 UNK         0.0600 
    157 H157       -2.1646  -15.6961  -43.3966 H         1 UNK         0.0600 
    158 H158       -0.5327  -16.2567  -43.0272 H         1 UNK         0.0600 
    159 H159       -0.7700  -16.0566  -45.4936 H         1 UNK         0.3000 
    160 H160       -0.1397  -17.5960  -48.6268 H         1 UNK         0.0600 
    161 H161       -1.0397  -15.5328  -49.5974 H         1 UNK         0.0600 
    162 H162       -1.8373  -15.1107  -48.0859 H         1 UNK         0.0600 
    163 H163       -2.3704  -16.5119  -48.9979 H         1 UNK         0.0600 
    164 H164        0.5847  -15.0428  -47.5686 H         1 UNK         0.3000 
    165 H165        2.7953  -15.5664  -45.4577 H         1 UNK         0.0600 
    166 H166        4.4683  -16.3029  -47.9055 H         1 UNK         0.0600 
    167 H167        5.0734  -15.4522  -46.4843 H         1 UNK         0.0600 
    168 H168        4.4814  -17.0985  -46.3398 H         1 UNK         0.0600 
    169 H169        2.4440  -13.5732  -46.3016 H         1 UNK         0.3000 
    170 H170        2.9435  -12.0272  -49.4951 H         1 UNK         0.0600 
    171 H171        0.7888  -12.0836  -47.3177 H         1 UNK         0.0600 
    172 H172        1.0101  -10.8150  -48.5212 H         1 UNK         0.0600 
    173 H173        0.5290  -12.4289  -49.0208 H         1 UNK         0.0600 
    174 H174        2.9716  -10.9708  -46.8316 H         1 UNK         0.3000 
    175 H175        6.4164  -11.0574  -46.2451 H         1 UNK         0.0600 
    176 H176        5.0517   -8.6193  -47.4897 H         1 UNK         0.0600 
    177 H177        6.4755   -8.5910  -46.4489 H         1 UNK         0.0600 
    178 H178        6.5597   -9.3455  -48.0317 H         1 UNK         0.0600 
    179 H179        4.2286   -9.3729  -45.3565 H         1 UNK         0.3000 
    180 H180        5.2949  -12.8503  -45.2526 H         1 UNK         0.0600 
    181 H181        6.4115  -11.9469  -42.5479 H         1 UNK         0.0600 
    182 H182        7.1944  -11.8049  -44.1079 H         1 UNK         0.0600 
    183 H183        6.9239  -13.3955  -43.4150 H         1 UNK         0.0600 
    184 H184        3.6191  -13.9200  -44.3245 H         1 UNK         0.3000 
    185 H185        2.6937  -15.3746  -42.9326 H         1 UNK         0.0600 
    186 H186        1.8397  -15.9873  -40.7099 H         1 UNK         0.0600 
    187 H187        3.5889  -15.8347  -40.6400 H         1 UNK         0.0600 
    188 H188        2.5704  -14.5575  -39.9835 H         1 UNK         0.0600 
    189 H189        0.9042  -13.6384  -41.4693 H         1 UNK         0.3000 
    190 H190       -2.2366  -22.1570  -44.1201 H         1 UNK         0.3000 
    191 H191       -3.6767  -24.0420  -42.5481 H         1 UNK         0.0600 
    192 H192       -0.6658  -23.4876  -42.7177 H         1 UNK         0.0600 
    193 H193       -1.8112  -22.6274  -41.6897 H         1 UNK         0.0600 
    194 H194       -1.4822  -24.3302  -41.4074 H         1 UNK         0.0600 
    195 H195       -1.9862  -24.4804  -45.5387 H         1 UNK         0.3000 
    196 H196       -1.9838  -27.4553  -45.2809 H         1 UNK         0.0600 
    197 H197        0.3032  -26.4744  -45.5441 H         1 UNK         0.0600 
    198 H198       -0.2160  -25.6294  -46.9988 H         1 UNK         0.0600 
    199 H199       -0.1598  -27.3900  -46.9680 H         1 UNK         0.0600 
    200 H200       -4.2341  -25.5918  -45.9470 H         1 UNK         0.3000 
    201 H201       -5.9836  -25.4336  -47.2931 H         1 UNK         0.0600 
    202 H202       -6.6555  -27.3884  -48.6469 H         1 UNK         0.0600 
    203 H203       -6.0253  -27.9223  -47.0970 H         1 UNK         0.0600 
    204 H204       -5.0376  -28.0666  -48.5500 H         1 UNK         0.0600 
    205 H205       -4.0853  -23.7719  -47.9614 H         1 UNK         0.3000 
    206 H206       -3.3316  -22.3034  -49.4490 H         1 UNK         0.0600 
    207 H207       -5.6176  -22.1144  -50.3294 H         1 UNK         0.0600 
    208 H208       -5.3653  -23.4799  -51.4092 H         1 UNK         0.0600 
    209 H209       -4.4664  -21.9912  -51.6462 H         1 UNK         0.0600 
    210 H210       -1.8601  -24.4886  -48.9229 H         1 UNK         0.3000 
    211 H211       -0.1791  -25.8377  -49.4806 H         1 UNK         0.0600 
    212 H212        0.8964  -23.7277  -50.2180 H         1 UNK         0.0600 
    213 H213        1.4132  -25.0597  -51.2357 H         1 UNK         0.0600 
    214 H214        0.2236  -23.9130  -51.8366 H         1 UNK         0.0600 
    215 H215       -2.4398  -27.0135  -49.9869 H         1 UNK         0.3000 
    216 H216       -3.6866  -28.4611  -51.0994 H         1 UNK         0.0600 
    217 H217       -2.5733  -30.2105  -52.4426 H         1 UNK         0.0600 
    218 H218       -1.1267  -29.2250  -52.6052 H         1 UNK         0.0600 
    219 H219       -1.6053  -29.8418  -51.0243 H         1 UNK         0.0600 
    220 H220       -4.1229  -26.0181  -51.9127 H         1 UNK         0.3000 
    221 H221       -4.9991  -24.6467  -53.3793 H         1 UNK         0.0600 
    222 H222       -5.5906  -27.1025  -55.1053 H         1 UNK         0.0600 
    223 H223       -6.5615  -26.5688  -53.7331 H         1 UNK         0.0600 
    224 H224       -6.4259  -25.5566  -55.1598 H         1 UNK         0.0600 
    225 H225       -2.0836  -25.2043  -53.6995 H         1 UNK         0.3000 
    226 H226       -1.5681  -24.6200  -56.5493 H         1 UNK         0.0600 
    227 H227       -0.0697  -26.1763  -55.2692 H         1 UNK         0.0600 
    228 H228        0.7904  -24.7829  -55.9089 H         1 UNK         0.0600 
    229 H229        0.3788  -24.8454  -54.2018 H         1 UNK         0.0600 
    230 H230       -1.8652  -22.9057  -53.4584 H         1 UNK         0.3000 
    231 H231       -0.4697  -20.5047  -54.3218 H         1 UNK         0.0600 
    232 H232       -1.2600  -19.6036  -52.1609 H         1 UNK         0.0600 
    233 H233       -0.6123  -21.2182  -51.9187 H         1 UNK         0.0600 
    234 H234       -2.3558  -20.9598  -51.9469 H         1 UNK         0.0600 
    235 H235       -1.4075  -18.4735  -54.7545 H         1 UNK         0.3000 
    236 H236       -3.5634  -18.4301  -56.5399 H         1 UNK         0.0600 
    237 H237       -1.6986  -16.7972  -56.5680 H         1 UNK         0.0600 
    238 H238       -3.2326  -15.9507  -56.4554 H         1 UNK         0.0600 
    239 H239       -2.2252  -16.1249  -55.0236 H         1 UNK         0.0600 
    240 H240       -3.5992  -17.9961  -53.0623 H         1 UNK         0.3000 
    241 H241       -6.3260  -16.9686  -52.9349 H         1 UNK         0.0600 
    242 H242       -5.2400  -20.1518  -53.7215 H         1 UNK         0.3800 
    243 H243       -6.6749  -20.9547  -53.1404 H         1 UNK         0.3800 
    244 H244       -6.0775  -17.3508  -50.4693 H         1 UNK         0.0800 
    245 H245       -4.4792  -17.9947  -50.7251 H         1 UNK         0.0800 
    246 H246       -6.6775  -15.0865  -50.0878 H         1 UNK         0.0800 
    247 H247       -5.6315  -13.6957  -50.1472 H         1 UNK         0.0800 
@<TRIPOS>BOND
     1    1    2 1    
     2    1  127 1    
     3    1  128 1    
     4    1  129 1    
     5    2    3 2    
     6    2    4 am   BACKBONE|DICT|INTERRES
     7    4    5 1    
     8    4  130 1    
     9    5    6 1    
    10    5   65 1    
    11    5  131 1    
    12    6    7 1    
    13    6  132 1    
    14    6  133 1    
    15    7    8 1    
    16    8    9 1    
    17    8  134 1    
    18    8  135 1    
    19    9   10 ar   
    20    9   14 ar   
    21   10   11 ar   
    22   10  136 1    
    23   11   12 ar   
    24   11  126 1    
    25   12   13 ar   
    26   12  137 1    
    27   13   14 ar   
    28   13   15 1    
    29   14  138 1    
    30   15   16 1    
    31   15  139 1    
    32   15  140 1    
    33   16   17 1    
    34   17   18 1    
    35   17  141 1    
    36   17  142 1    
    37   18   19 1    
    38   18   67 1    
    39   18  143 1    
    40   19   20 am   BACKBONE|DICT|INTERRES
    41   19  144 1    
    42   20   21 2    
    43   20   22 1    
    44   22   23 1    
    45   22   24 1    
    46   22  145 1    
    47   23  146 1    
    48   23  147 1    
    49   23  148 1    
    50   24   25 am   BACKBONE|DICT|INTERRES
    51   24  149 1    
    52   25   26 2    
    53   25   27 1    
    54   27   28 1    
    55   27   29 1    
    56   27  150 1    
    57   28  151 1    
    58   28  152 1    
    59   28  153 1    
    60   29   30 am   BACKBONE|DICT|INTERRES
    61   29  154 1    
    62   30   31 2    
    63   30   32 1    
    64   32   33 1    
    65   32   34 1    
    66   32  155 1    
    67   33  156 1    
    68   33  157 1    
    69   33  158 1    
    70   34   35 am   BACKBONE|DICT|INTERRES
    71   34  159 1    
    72   35   36 2    
    73   35   37 1    
    74   37   38 1    
    75   37   39 1    
    76   37  160 1    
    77   38  161 1    
    78   38  162 1    
    79   38  163 1    
    80   39   40 am   BACKBONE|DICT|INTERRES
    81   39  164 1    
    82   40   41 2    
    83   40   42 1    
    84   42   43 1    
    85   42   44 1    
    86   42  165 1    
    87   43  166 1    
    88   43  167 1    
    89   43  168 1    
    90   44   45 am   BACKBONE|DICT|INTERRES
    91   44  169 1    
    92   45   46 2    
    93   45   47 1    
    94   47   48 1    
    95   47   49 1    
    96   47  170 1    
    97   48  171 1    
    98   48  172 1    
    99   48  173 1    
   100   49   50 am   BACKBONE|DICT|INTERRES
   101   49  174 1    
   102   50   51 2    
   103   50   52 1    
   104   52   53 1    
   105   52   54 1    
   106   52  175 1    
   107   53  176 1    
   108   53  177 1    
   109   53  178 1    
   110   54   55 am   BACKBONE|DICT|INTERRES
   111   54  179 1    
   112   55   56 2    
   113   55   57 1    
   114   57   58 1    
   115   57   59 1    
   116   57  180 1    
   117   58  181 1    
   118   58  182 1    
   119   58  183 1    
   120   59   60 am   BACKBONE|DICT|INTERRES
   121   59  184 1    
   122   60   61 2    
   123   60   62 1    
   124   62   63 1    
   125   62   64 1    
   126   62  185 1    
   127   63  186 1    
   128   63  187 1    
   129   63  188 1    
   130   64   65 am   BACKBONE|DICT|INTERRES
   131   64  189 1    
   132   65   66 2    
   133   67   68 2    
   134   67   69 am   BACKBONE|DICT|INTERRES
   135   69   70 1    
   136   69  190 1    
   137   70   71 1    
   138   70   72 1    
   139   70  191 1    
   140   71  192 1    
   141   71  193 1    
   142   71  194 1    
   143   72   73 2    
   144   72   74 am   BACKBONE|DICT|INTERRES
   145   74   75 1    
   146   74  195 1    
   147   75   76 1    
   148   75   77 1    
   149   75  196 1    
   150   76  197 1    
   151   76  198 1    
   152   76  199 1    
   153   77   78 2    
   154   77   79 am   BACKBONE|DICT|INTERRES
   155   79   80 1    
   156   79  200 1    
   157   80   81 1    
   158   80   82 1    
   159   80  201 1    
   160   81  202 1    
   161   81  203 1    
   162   81  204 1    
   163   82   83 2    
   164   82   84 am   BACKBONE|DICT|INTERRES
   165   84   85 1    
   166   84  205 1    
   167   85   86 1    
   168   85   87 1    
   169   85  206 1    
   170   86  207 1    
   171   86  208 1    
   172   86  209 1    
   173   87   88 2    
   174   87   89 am   BACKBONE|DICT|INTERRES
   175   89   90 1    
   176   89  210 1    
   177   90   91 1    
   178   90   92 1    
   179   90  211 1    
   180   91  212 1    
   181   91  213 1    
   182   91  214 1    
   183   92   93 2    
   184   92   94 am   BACKBONE|DICT|INTERRES
   185   94   95 1    
   186   94  215 1    
   187   95   96 1    
   188   95   97 1    
   189   95  216 1    
   190   96  217 1    
   191   96  218 1    
   192   96  219 1    
   193   97   98 2    
   194   97   99 am   BACKBONE|DICT|INTERRES
   195   99  100 1    
   196   99  220 1    
   197  100  101 1    
   198  100  102 1    
   199  100  221 1    
   200  101  222 1    
   201  101  223 1    
   202  101  224 1    
   203  102  103 2    
   204  102  104 am   BACKBONE|DICT|INTERRES
   205  104  105 1    
   206  104  225 1    
   207  105  106 1    
   208  105  107 1    
   209  105  226 1    
   210  106  227 1    
   211  106  228 1    
   212  106  229 1    
   213  107  108 2    
   214  107  109 am   BACKBONE|DICT|INTERRES
   215  109  110 1    
   216  109  230 1    
   217  110  111 1    
   218  110  112 1    
   219  110  231 1    
   220  111  232 1    
   221  111  233 1    
   222  111  234 1    
   223  112  113 2    
   224  112  114 am   BACKBONE|DICT|INTERRES
   225  114  115 1    
   226  114  235 1    
   227  115  116 1    
   228  115  117 1    
   229  115  236 1    
   230  116  237 1    
   231  116  238 1    
   232  116  239 1    
   233  117  118 2    
   234  117  119 am   BACKBONE|DICT|INTERRES
   235  119  120 1    
   236  119  240 1    
   237  120  121 1    
   238  120  124 1    
   239  120  241 1    
   240  121  122 am   BACKBONE|DICT|INTERRES
   241  121  123 2    
   242  122  242 1    
   243  122  243 1    
   244  124  125 1    
   245  124  244 1    
   246  124  245 1    
   247  125  126 1    
   248  126  246 1    
   249  126  247 1    
@<TRIPOS>SUBSTRUCTURE
     1 UNK         1 GROUP             0       ****    0 ROOT    
