@<TRIPOS>MOLECULE
3R540
247   249    1
SMALL
USER_CHARGES


@<TRIPOS>ATOM
      1 CA          1.3681  -10.1715  -49.0583 C.3       0 UNK        -0.1800 
      2 C           1.3500  -11.4062  -48.1702 C.2       0 UNK         0.5000 
      3 O           1.1687  -11.2861  -46.9591 O.2       0 UNK        -0.5000 
      4 N           1.5131  -12.5951  -48.7647 N.am      1 UNK        -0.5000 
      5 CA          1.5794  -13.8927  -48.0751 C.3       1 UNK         0.1400 
      6 C6          1.9180  -15.0463  -49.0458 C.3       23 UNK        -0.0398 
      7 S7          3.5292  -14.8373  -49.8808 S.3       23 UNK        -0.2404 
      8 C8          3.2105  -15.5910  -51.5159 C.3       23 UNK        -0.0205 
      9 C9          2.5000  -16.9366  -51.4200 C.ar      23 UNK        -0.0193 
     10 C10         1.2841  -17.1390  -52.0796 C.ar      23 UNK        -0.1150 
     11 C11         0.5887  -18.3432  -51.9362 C.ar      23 UNK        -0.0193 
     12 C12         1.1145  -19.3506  -51.1226 C.ar      23 UNK        -0.1150 
     13 C13         2.3295  -19.1587  -50.4590 C.ar      23 UNK        -0.0193 
     14 C14         3.0290  -17.9622  -50.6324 C.ar      23 UNK        -0.1150 
     15 C15         2.8742  -20.2169  -49.5154 C.3       23 UNK        -0.0205 
     16 S16         2.6611  -19.7149  -47.7776 S.3       23 UNK        -0.2404 
     17 C17         0.8784  -20.0198  -47.5148 C.3       23 UNK        -0.0398 
     18 CA          0.6430  -21.3834  -46.8264 C.3       11 UNK         0.1400 
     19 N           1.2336  -21.4313  -45.4848 N.am      11 UNK        -0.5000 
     20 C           1.5181  -22.5419  -44.7935 C.2       10 UNK         0.5000 
     21 O           1.2348  -23.6759  -45.1804 O.2       10 UNK        -0.5000 
     22 CA          2.1966  -22.3404  -43.4297 C.3       10 UNK         0.1400 
     23 CB          3.6859  -22.0046  -43.6057 C.3       10 UNK        -0.1800 
     24 N           1.5441  -21.2707  -42.6755 N.am      10 UNK        -0.5000 
     25 C           0.4960  -21.4509  -41.8609 C.2       9 UNK         0.5000 
     26 O          -0.0000  -22.5521  -41.6207 O.2       9 UNK        -0.5000 
     27 CA         -0.1109  -20.1933  -41.2064 C.3       9 UNK         0.1400 
     28 CB          0.5708  -19.9108  -39.8592 C.3       9 UNK        -0.1800 
     29 N          -0.0327  -18.9952  -42.0441 N.am      9 UNK        -0.5000 
     30 C          -0.6506  -18.8490  -43.2248 C.2       8 UNK         0.5000 
     31 O          -1.3880  -19.7004  -43.7189 O.2       8 UNK        -0.5000 
     32 CA         -0.3679  -17.5543  -44.0084 C.3       8 UNK         0.1400 
     33 CB         -1.3387  -16.4464  -43.5745 C.3       8 UNK        -0.1800 
     34 N           1.0096  -17.0705  -43.8900 N.am      8 UNK        -0.5000 
     35 C           2.1131  -17.7688  -44.1940 C.2       7 UNK         0.5000 
     36 O           2.1065  -18.9542  -44.5200 O.2       7 UNK        -0.5000 
     37 CA          3.4540  -17.0359  -44.0556 C.3       7 UNK         0.1400 
     38 CB          3.6495  -16.0094  -45.1831 C.3       7 UNK        -0.1800 
     39 N           3.5365  -16.3792  -42.7538 N.am      7 UNK        -0.5000 
     40 C           3.8743  -17.0094  -41.6197 C.2       6 UNK         0.5000 
     41 O           4.2554  -18.1794  -41.5744 O.2       6 UNK        -0.5000 
     42 CA          3.7502  -16.2081  -40.3092 C.3       6 UNK         0.1400 
     43 CB          5.0741  -15.5001  -39.9836 C.3       6 UNK        -0.1800 
     44 N           2.6717  -15.2189  -40.3325 N.am      6 UNK        -0.5000 
     45 C           1.3660  -15.5132  -40.4034 C.2       5 UNK         0.5000 
     46 O           0.9216  -16.6605  -40.4427 O.2       5 UNK        -0.5000 
     47 CA          0.3974  -14.3184  -40.4917 C.3       5 UNK         0.1400 
     48 CB          0.0315  -13.8187  -39.0863 C.3       5 UNK        -0.1800 
     49 N           0.8960  -13.1931  -41.2908 N.am      5 UNK        -0.5000 
     50 C           1.2902  -13.2663  -42.5691 C.2       4 UNK         0.5000 
     51 O           1.3576  -14.3192  -43.2032 O.2       4 UNK        -0.5000 
     52 CA          1.6613  -11.9429  -43.2582 C.3       4 UNK         0.1400 
     53 CB          2.9511  -12.0832  -44.0839 C.3       4 UNK        -0.1800 
     54 N           0.5816  -11.5101  -44.1392 N.am      4 UNK        -0.5000 
     55 C          -0.6100  -11.0499  -43.7356 C.2       3 UNK         0.5000 
     56 O          -0.9080  -10.8596  -42.5558 O.2       3 UNK        -0.5000 
     57 CA         -1.6442  -10.7608  -44.8353 C.3       3 UNK         0.1400 
     58 CB         -1.4028   -9.3779  -45.4611 C.3       3 UNK        -0.1800 
     59 N          -1.6091  -11.7807  -45.8834 N.am      3 UNK        -0.5000 
     60 C          -2.3118  -12.9220  -45.8560 C.2       2 UNK         0.5000 
     61 O          -3.0874  -13.2232  -44.9483 O.2       2 UNK        -0.5000 
     62 CA         -2.1406  -13.8858  -47.0472 C.3       2 UNK         0.1400 
     63 CB         -3.2718  -13.6864  -48.0680 C.3       2 UNK        -0.1800 
     64 N          -0.8557  -13.7227  -47.7280 N.am      2 UNK        -0.5000 
     65 C           0.2979  -14.2438  -47.2882 C.2       1 UNK         0.5000 
     66 O           0.3795  -14.9756  -46.3049 O.2       1 UNK        -0.5000 
     67 C          -0.8406  -21.8101  -46.8671 C.2       11 UNK         0.5000 
     68 O          -1.3759  -22.0062  -47.9567 O.2       11 UNK        -0.5000 
     69 N          -1.4614  -22.0426  -45.7015 N.am      12 UNK        -0.5000 
     70 CA         -2.7429  -22.7371  -45.5407 C.3       12 UNK         0.1400 
     71 CB         -3.1297  -22.7290  -44.0540 C.3       12 UNK        -0.1800 
     72 C          -2.7366  -24.1837  -46.0870 C.2       12 UNK         0.5000 
     73 O          -3.8036  -24.7216  -46.3788 O.2       12 UNK        -0.5000 
     74 N          -1.5411  -24.7705  -46.2569 N.am      13 UNK        -0.5000 
     75 CA         -1.2968  -26.0570  -46.9138 C.3       13 UNK         0.1400 
     76 CB          0.1135  -26.5368  -46.5328 C.3       13 UNK        -0.1800 
     77 C          -1.4749  -26.0359  -48.4517 C.2       13 UNK         0.5000 
     78 O          -1.2699  -27.0724  -49.0861 O.2       13 UNK        -0.5000 
     79 N          -1.8377  -24.8794  -49.0297 N.am      14 UNK        -0.5000 
     80 CA         -2.2098  -24.6828  -50.4342 C.3       14 UNK         0.1400 
     81 CB         -2.6295  -23.2136  -50.6207 C.3       14 UNK        -0.1800 
     82 C          -3.3449  -25.6088  -50.9173 C.2       14 UNK         0.5000 
     83 O          -4.1178  -26.1224  -50.1038 O.2       14 UNK        -0.5000 
     84 N          -3.4549  -25.7665  -52.2429 N.am      15 UNK        -0.5000 
     85 CA         -4.5107  -26.5220  -52.9203 C.3       15 UNK         0.1400 
     86 CB         -4.2635  -26.4862  -54.4352 C.3       15 UNK        -0.1800 
     87 C          -5.9057  -25.9733  -52.5655 C.2       15 UNK         0.5000 
     88 O          -6.2051  -24.8205  -52.8809 O.2       15 UNK        -0.5000 
     89 N          -6.6877  -26.7815  -51.8336 N.am      16 UNK        -0.5000 
     90 CA         -7.9846  -26.4493  -51.2237 C.3       16 UNK         0.1400 
     91 CB         -9.0535  -26.2378  -52.3165 C.3       16 UNK        -0.1800 
     92 C          -7.9240  -25.2667  -50.2257 C.2       16 UNK         0.5000 
     93 O          -8.9495  -24.6348  -49.9676 O.2       16 UNK        -0.5000 
     94 N          -6.7195  -24.9727  -49.7084 N.am      17 UNK        -0.5000 
     95 CA         -6.3388  -23.8089  -48.9005 C.3       17 UNK         0.1400 
     96 CB         -7.0198  -23.8556  -47.5174 C.3       17 UNK        -0.1800 
     97 C          -6.5454  -22.4547  -49.6202 C.2       17 UNK         0.5000 
     98 O          -6.6193  -21.4209  -48.9537 O.2       17 UNK        -0.5000 
     99 N          -6.6513  -22.4683  -50.9573 N.am      18 UNK        -0.5000 
    100 CA        -6.9702  -21.2968  -51.7643 C.3       18 UNK         0.1400 
    101 CB        -7.6726  -21.7432  -53.0561 C.3       18 UNK        -0.1800 
    102 C         -5.7082  -20.4844  -52.0837 C.2       18 UNK         0.5000 
    103 O         -4.7836  -21.0022  -52.7157 O.2       18 UNK        -0.5000 
    104 N         -5.7254  -19.1987  -51.7106 N.am      19 UNK        -0.5000 
    105 CA        -4.6750  -18.2214  -52.0148 C.3       19 UNK         0.1400 
    106 CB        -4.9018  -16.9617  -51.1646 C.3       19 UNK        -0.1800 
    107 C         -4.5815  -17.8599  -53.5127 C.2       19 UNK         0.5000 
    108 O         -3.5764  -17.2927  -53.9363 O.2       19 UNK        -0.5000 
    109 N         -5.6202  -18.1945  -54.2894 N.am      20 UNK        -0.5000 
    110 CA        -5.6305  -18.0886  -55.7472 C.3       20 UNK         0.1400 
    111 CB        -7.0893  -18.0316  -56.2272 C.3       20 UNK        -0.1800 
    112 C         -4.8872  -19.2532  -56.4330 C.2       20 UNK         0.5000 
    113 O         -4.4390  -19.0870  -57.5682 O.2       20 UNK        -0.5000 
    114 N         -4.7904  -20.4073  -55.7565 N.am      21 UNK        -0.5000 
    115 CA        -4.1776  -21.6264  -56.2846 C.3       21 UNK         0.1400 
    116 CB        -5.0419  -22.8355  -55.8957 C.3       21 UNK        -0.1800 
    117 C         -2.7402  -21.8067  -55.7727 C.2       21 UNK         0.5000 
    118 O         -1.8627  -22.1663  -56.5591 O.2       21 UNK        -0.5000 
    119 N         -2.5286  -21.5468  -54.4753 N.am      22 UNK        -0.5000 
    120 CA        -1.2580  -21.7284  -53.7532 C.3       22 UNK         0.1400 
    121 C         -0.8180  -23.2247  -53.6534 C.2       22 UNK         0.5000 
    122 N          0.4408  -23.5153  -53.3506 N.am      22 UNK        -0.7600 
    123 O         -1.6263  -24.1428  -53.7802 O.2       22 UNK        -0.5000 
    124 C124       -0.1214  -20.7749  -54.2344 C.3       23 UNK        -0.0398 
    125 S125       -0.6105  -19.0199  -54.3589 S.3       23 UNK        -0.2404 
    126 C126       -0.7597  -18.5254  -52.6126 C.3       23 UNK        -0.0205 
    127 H127        2.1758   -9.5055  -48.7551 H         1 UNK         0.0600 
    128 H128        0.4263   -9.6306  -48.9664 H         1 UNK         0.0600 
    129 H129        1.5135  -10.4286  -50.1077 H         1 UNK         0.0600 
    130 H130        1.6688  -12.6285  -49.7622 H         1 UNK         0.3000 
    131 H131        2.3848  -13.8225  -47.3409 H         1 UNK         0.0600 
    132 H132        1.1306  -15.1414  -49.7956 H         1 UNK         0.0800 
    133 H133        1.9514  -16.0000  -48.5141 H         1 UNK         0.0800 
    134 H134        4.1592  -15.7250  -52.0371 H         1 UNK         0.0800 
    135 H135        2.6266  -14.8892  -52.1133 H         1 UNK         0.0800 
    136 H136        0.8633  -16.3514  -52.6891 H         1 UNK         0.1150 
    137 H137        0.5665  -20.2723  -50.9862 H         1 UNK         0.1150 
    138 H138        3.9614  -17.8078  -50.1073 H         1 UNK         0.1150 
    139 H139        2.3942  -21.1821  -49.6844 H         1 UNK         0.0800 
    140 H140        3.9369  -20.3629  -49.7137 H         1 UNK         0.0800 
    141 H141        0.3596  -19.9668  -48.4724 H         1 UNK         0.0800 
    142 H142        0.4735  -19.2099  -46.9064 H         1 UNK         0.0800 
    143 H143        1.1633  -22.1352  -47.4241 H         1 UNK         0.0600 
    144 H144        1.5265  -20.5327  -45.1030 H         1 UNK         0.3000 
    145 H145        2.1278  -23.2786  -42.8749 H         1 UNK         0.0600 
    146 H146        4.1819  -21.9020  -42.6404 H         1 UNK         0.0600 
    147 H147        4.2009  -22.7939  -44.1546 H         1 UNK         0.0600 
    148 H148        3.8316  -21.0739  -44.1555 H         1 UNK         0.0600 
    149 H149        1.8511  -20.3262  -42.8738 H         1 UNK         0.3000 
    150 H150       -1.1666  -20.3993  -41.0183 H         1 UNK         0.0600 
    151 H151        0.5370  -20.7865  -39.2098 H         1 UNK         0.0600 
    152 H152        0.0751  -19.0964  -39.3307 H         1 UNK         0.0600 
    153 H153        1.6185  -19.6359  -39.9898 H         1 UNK         0.0600 
    154 H154        0.5119  -18.2195  -41.6800 H         1 UNK         0.3000 
    155 H155       -0.5416  -17.7622  -45.0657 H         1 UNK         0.0600 
    156 H156       -1.2422  -16.2270  -42.5120 H         1 UNK         0.0600 
    157 H157       -2.3729  -16.7409  -43.7560 H         1 UNK         0.0600 
    158 H158       -1.1623  -15.5221  -44.1247 H         1 UNK         0.0600 
    159 H159        1.1160  -16.0863  -43.6521 H         1 UNK         0.3000 
    160 H160        4.2535  -17.7755  -44.1391 H         1 UNK         0.0600 
    161 H161        2.8833  -15.2352  -45.1665 H         1 UNK         0.0600 
    162 H162        3.6014  -16.4925  -46.1601 H         1 UNK         0.0600 
    163 H163        4.6205  -15.5204  -45.1074 H         1 UNK         0.0600 
    164 H164        3.1520  -15.4452  -42.6976 H         1 UNK         0.3000 
    165 H165        3.5361  -16.9191  -39.5084 H         1 UNK         0.0600 
    166 H166        5.0253  -14.9962  -39.0181 H         1 UNK         0.0600 
    167 H167        5.8970  -16.2146  -39.9346 H         1 UNK         0.0600 
    168 H168        5.3296  -14.7564  -40.7394 H         1 UNK         0.0600 
    169 H169        2.9429  -14.2469  -40.3133 H         1 UNK         0.3000 
    170 H170       -0.5169  -14.6722  -40.9693 H         1 UNK         0.0600 
    171 H171       -0.3638  -14.6302  -38.4736 H         1 UNK         0.0600 
    172 H172        0.8976  -13.4066  -38.5669 H         1 UNK         0.0600 
    173 H173       -0.7345  -13.0442  -39.1299 H         1 UNK         0.0600 
    174 H174        0.8372  -12.2815  -40.8597 H         1 UNK         0.3000 
    175 H175        1.8259  -11.1770  -42.4976 H         1 UNK         0.0600 
    176 H176        2.8270  -12.7840  -44.9104 H         1 UNK         0.0600 
    177 H177        3.2518  -11.1247  -44.5071 H         1 UNK         0.0600 
    178 H178        3.7759  -12.4422  -43.4672 H         1 UNK         0.0600 
    179 H179        0.7530  -11.6013  -45.1368 H         1 UNK         0.3000 
    180 H180       -2.6331  -10.7487  -44.3719 H         1 UNK         0.0600 
    181 H181       -0.4252   -9.3125  -45.9398 H         1 UNK         0.0600 
    182 H182       -1.4493   -8.5948  -44.7034 H         1 UNK         0.0600 
    183 H183       -2.1590   -9.1487  -46.2120 H         1 UNK         0.0600 
    184 H184       -0.9342  -11.6401  -46.6234 H         1 UNK         0.3000 
    185 H185       -2.2112  -14.9048  -46.6600 H         1 UNK         0.0600 
    186 H186       -4.2478  -13.8253  -47.6011 H         1 UNK         0.0600 
    187 H187       -3.2539  -12.6847  -48.4994 H         1 UNK         0.0600 
    188 H188       -3.1985  -14.4059  -48.8839 H         1 UNK         0.0600 
    189 H189       -0.8417  -13.1394  -48.5518 H         1 UNK         0.3000 
    190 H190       -0.9793  -21.7884  -44.8502 H         1 UNK         0.3000 
    191 H191       -3.4980  -22.1802  -46.0991 H         1 UNK         0.0600 
    192 H192       -3.2446  -21.7110  -43.6817 H         1 UNK         0.0600 
    193 H193       -2.3775  -23.2272  -43.4408 H         1 UNK         0.0600 
    194 H194       -4.0794  -23.2406  -43.8924 H         1 UNK         0.0600 
    195 H195       -0.7135  -24.2662  -45.9599 H         1 UNK         0.3000 
    196 H196       -2.0171  -26.7775  -46.5215 H         1 UNK         0.0600 
    197 H197        0.3123  -27.5336  -46.9281 H         1 UNK         0.0600 
    198 H198        0.2346  -26.5889  -45.4506 H         1 UNK         0.0600 
    199 H199        0.8820  -25.8688  -46.9237 H         1 UNK         0.0600 
    200 H200       -1.9311  -24.0642  -48.4380 H         1 UNK         0.3000 
    201 H201       -1.3278  -24.8853  -51.0441 H         1 UNK         0.0600 
    202 H202       -1.7716  -22.5484  -50.5277 H         1 UNK         0.0600 
    203 H203       -3.3693  -22.9072  -49.8814 H         1 UNK         0.0600 
    204 H204       -3.0701  -23.0379  -51.6028 H         1 UNK         0.0600 
    205 H205       -2.8117  -25.2579  -52.8468 H         1 UNK         0.3000 
    206 H206       -4.4423  -27.5605  -52.5906 H         1 UNK         0.0600 
    207 H207       -3.3170  -26.9627  -54.6910 H         1 UNK         0.0600 
    208 H208       -5.0518  -27.0119  -54.9754 H         1 UNK         0.0600 
    209 H209       -4.2310  -25.4632  -54.8086 H         1 UNK         0.0600 
    210 H210       -6.3246  -27.6927  -51.5893 H         1 UNK         0.3000 
    211 H211       -8.2784  -27.3213  -50.6379 H         1 UNK         0.0600 
    212 H212       -8.8667  -25.3328  -52.8955 H         1 UNK         0.0600 
    213 H213      -10.0487  -26.1459  -51.8802 H         1 UNK         0.0600 
    214 H214       -9.0820  -27.0791  -53.0089 H         1 UNK         0.0600 
    215 H215       -5.9352  -25.5651  -49.9707 H         1 UNK         0.3000 
    216 H216       -5.2649  -23.9001  -48.7346 H         1 UNK         0.0600 
    217 H217       -6.6169  -23.0868  -46.8572 H         1 UNK         0.0600 
    218 H218       -6.8512  -24.8156  -47.0294 H         1 UNK         0.0600 
    219 H219       -8.0960  -23.6963  -47.5878 H         1 UNK         0.0600 
    220 H220       -6.5284  -23.3395  -51.4629 H         1 UNK         0.3000 
    221 H221       -7.6726  -20.6676  -51.2130 H         1 UNK         0.0600 
    222 H222       -7.0349  -22.3842  -53.6640 H         1 UNK         0.0600 
    223 H223       -8.5842  -22.2988  -52.8351 H         1 UNK         0.0600 
    224 H224       -7.9536  -20.8853  -53.6678 H         1 UNK         0.0600 
    225 H225       -6.5191  -18.8518  -51.1908 H         1 UNK         0.3000 
    226 H226       -3.7174  -18.6586  -51.7267 H         1 UNK         0.0600 
    227 H227       -4.8953  -17.1971  -50.1002 H         1 UNK         0.0600 
    228 H228       -4.1147  -16.2262  -51.3368 H         1 UNK         0.0600 
    229 H229       -5.8541  -16.4843  -51.3988 H         1 UNK         0.0600 
    230 H230       -6.4284  -18.6142  -53.8561 H         1 UNK         0.3000 
    231 H231       -5.1387  -17.1589  -56.0415 H         1 UNK         0.0600 
    232 H232       -7.6142  -17.1801  -55.7939 H         1 UNK         0.0600 
    233 H233       -7.6375  -18.9363  -55.9609 H         1 UNK         0.0600 
    234 H234       -7.1395  -17.9250  -57.3117 H         1 UNK         0.0600 
    235 H235       -5.1207  -20.4480  -54.8021 H         1 UNK         0.3000 
    236 H236       -4.1435  -21.5851  -57.3754 H         1 UNK         0.0600 
    237 H237       -4.6699  -23.7416  -56.3742 H         1 UNK         0.0600 
    238 H238       -5.0387  -23.0077  -54.8185 H         1 UNK         0.0600 
    239 H239       -6.0764  -22.7035  -56.2124 H         1 UNK         0.0600 
    240 H240       -3.3262  -21.3068  -53.8936 H         1 UNK         0.3000 
    241 H241       -1.4906  -21.4546  -52.7258 H         1 UNK         0.0600 
    242 H242        1.1412  -22.8047  -53.2153 H         1 UNK         0.3800 
    243 H243        0.7066  -24.4847  -53.2778 H         1 UNK         0.3800 
    244 H244        0.7415  -20.8309  -53.5711 H         1 UNK         0.0800 
    245 H245        0.2368  -21.0867  -55.2164 H         1 UNK         0.0800 
    246 H246       -1.3049  -17.5820  -52.5675 H         1 UNK         0.0800 
    247 H247       -1.3700  -19.2460  -52.0686 H         1 UNK         0.0800 
@<TRIPOS>BOND
     1    1    2 1    
     2    1  127 1    
     3    1  128 1    
     4    1  129 1    
     5    2    3 2    
     6    2    4 am   BACKBONE|DICT|INTERRES
     7    4    5 1    
     8    4  130 1    
     9    5    6 1    
    10    5   65 1    
    11    5  131 1    
    12    6    7 1    
    13    6  132 1    
    14    6  133 1    
    15    7    8 1    
    16    8    9 1    
    17    8  134 1    
    18    8  135 1    
    19    9   10 ar   
    20    9   14 ar   
    21   10   11 ar   
    22   10  136 1    
    23   11   12 ar   
    24   11  126 1    
    25   12   13 ar   
    26   12  137 1    
    27   13   14 ar   
    28   13   15 1    
    29   14  138 1    
    30   15   16 1    
    31   15  139 1    
    32   15  140 1    
    33   16   17 1    
    34   17   18 1    
    35   17  141 1    
    36   17  142 1    
    37   18   19 1    
    38   18   67 1    
    39   18  143 1    
    40   19   20 am   BACKBONE|DICT|INTERRES
    41   19  144 1    
    42   20   21 2    
    43   20   22 1    
    44   22   23 1    
    45   22   24 1    
    46   22  145 1    
    47   23  146 1    
    48   23  147 1    
    49   23  148 1    
    50   24   25 am   BACKBONE|DICT|INTERRES
    51   24  149 1    
    52   25   26 2    
    53   25   27 1    
    54   27   28 1    
    55   27   29 1    
    56   27  150 1    
    57   28  151 1    
    58   28  152 1    
    59   28  153 1    
    60   29   30 am   BACKBONE|DICT|INTERRES
    61   29  154 1    
    62   30   31 2    
    63   30   32 1    
    64   32   33 1    
    65   32   34 1    
    66   32  155 1    
    67   33  156 1    
    68   33  157 1    
    69   33  158 1    
    70   34   35 am   BACKBONE|DICT|INTERRES
    71   34  159 1    
    72   35   36 2    
    73   35   37 1    
    74   37   38 1    
    75   37   39 1    
    76   37  160 1    
    77   38  161 1    
    78   38  162 1    
    79   38  163 1    
    80   39   40 am   BACKBONE|DICT|INTERRES
    81   39  164 1    
    82   40   41 2    
    83   40   42 1    
    84   42   43 1    
    85   42   44 1    
    86   42  165 1    
    87   43  166 1    
    88   43  167 1    
    89   43  168 1    
    90   44   45 am   BACKBONE|DICT|INTERRES
    91   44  169 1    
    92   45   46 2    
    93   45   47 1    
    94   47   48 1    
    95   47   49 1    
    96   47  170 1    
    97   48  171 1    
    98   48  172 1    
    99   48  173 1    
   100   49   50 am   BACKBONE|DICT|INTERRES
   101   49  174 1    
   102   50   51 2    
   103   50   52 1    
   104   52   53 1    
   105   52   54 1    
   106   52  175 1    
   107   53  176 1    
   108   53  177 1    
   109   53  178 1    
   110   54   55 am   BACKBONE|DICT|INTERRES
   111   54  179 1    
   112   55   56 2    
   113   55   57 1    
   114   57   58 1    
   115   57   59 1    
   116   57  180 1    
   117   58  181 1    
   118   58  182 1    
   119   58  183 1    
   120   59   60 am   BACKBONE|DICT|INTERRES
   121   59  184 1    
   122   60   61 2    
   123   60   62 1    
   124   62   63 1    
   125   62   64 1    
   126   62  185 1    
   127   63  186 1    
   128   63  187 1    
   129   63  188 1    
   130   64   65 am   BACKBONE|DICT|INTERRES
   131   64  189 1    
   132   65   66 2    
   133   67   68 2    
   134   67   69 am   BACKBONE|DICT|INTERRES
   135   69   70 1    
   136   69  190 1    
   137   70   71 1    
   138   70   72 1    
   139   70  191 1    
   140   71  192 1    
   141   71  193 1    
   142   71  194 1    
   143   72   73 2    
   144   72   74 am   BACKBONE|DICT|INTERRES
   145   74   75 1    
   146   74  195 1    
   147   75   76 1    
   148   75   77 1    
   149   75  196 1    
   150   76  197 1    
   151   76  198 1    
   152   76  199 1    
   153   77   78 2    
   154   77   79 am   BACKBONE|DICT|INTERRES
   155   79   80 1    
   156   79  200 1    
   157   80   81 1    
   158   80   82 1    
   159   80  201 1    
   160   81  202 1    
   161   81  203 1    
   162   81  204 1    
   163   82   83 2    
   164   82   84 am   BACKBONE|DICT|INTERRES
   165   84   85 1    
   166   84  205 1    
   167   85   86 1    
   168   85   87 1    
   169   85  206 1    
   170   86  207 1    
   171   86  208 1    
   172   86  209 1    
   173   87   88 2    
   174   87   89 am   BACKBONE|DICT|INTERRES
   175   89   90 1    
   176   89  210 1    
   177   90   91 1    
   178   90   92 1    
   179   90  211 1    
   180   91  212 1    
   181   91  213 1    
   182   91  214 1    
   183   92   93 2    
   184   92   94 am   BACKBONE|DICT|INTERRES
   185   94   95 1    
   186   94  215 1    
   187   95   96 1    
   188   95   97 1    
   189   95  216 1    
   190   96  217 1    
   191   96  218 1    
   192   96  219 1    
   193   97   98 2    
   194   97   99 am   BACKBONE|DICT|INTERRES
   195   99  100 1    
   196   99  220 1    
   197  100  101 1    
   198  100  102 1    
   199  100  221 1    
   200  101  222 1    
   201  101  223 1    
   202  101  224 1    
   203  102  103 2    
   204  102  104 am   BACKBONE|DICT|INTERRES
   205  104  105 1    
   206  104  225 1    
   207  105  106 1    
   208  105  107 1    
   209  105  226 1    
   210  106  227 1    
   211  106  228 1    
   212  106  229 1    
   213  107  108 2    
   214  107  109 am   BACKBONE|DICT|INTERRES
   215  109  110 1    
   216  109  230 1    
   217  110  111 1    
   218  110  112 1    
   219  110  231 1    
   220  111  232 1    
   221  111  233 1    
   222  111  234 1    
   223  112  113 2    
   224  112  114 am   BACKBONE|DICT|INTERRES
   225  114  115 1    
   226  114  235 1    
   227  115  116 1    
   228  115  117 1    
   229  115  236 1    
   230  116  237 1    
   231  116  238 1    
   232  116  239 1    
   233  117  118 2    
   234  117  119 am   BACKBONE|DICT|INTERRES
   235  119  120 1    
   236  119  240 1    
   237  120  121 1    
   238  120  124 1    
   239  120  241 1    
   240  121  122 am   BACKBONE|DICT|INTERRES
   241  121  123 2    
   242  122  242 1    
   243  122  243 1    
   244  124  125 1    
   245  124  244 1    
   246  124  245 1    
   247  125  126 1    
   248  126  246 1    
   249  126  247 1    
@<TRIPOS>SUBSTRUCTURE
     1 UNK         1 GROUP             0       ****    0 ROOT    
