@<TRIPOS>MOLECULE
3R540
247   249    1
SMALL
USER_CHARGES


@<TRIPOS>ATOM
      1 CA          4.0391   -9.4434  -47.8483 C.3       0 UNK        -0.1800 
      2 C           3.7732  -10.8904  -47.4613 C.2       0 UNK         0.5000 
      3 O           3.4702  -11.1680  -46.3016 O.2       0 UNK        -0.5000 
      4 N           3.8630  -11.8110  -48.4295 N.am      1 UNK        -0.5000 
      5 CA          3.6533  -13.2555  -48.2550 C.3       1 UNK         0.1400 
      6 C6          4.0636  -14.0491  -49.5219 C.3       23 UNK        -0.0398 
      7 S7          3.1492  -13.5631  -51.0345 S.3       23 UNK        -0.2404 
      8 C8          2.7116  -15.1689  -51.7780 C.3       23 UNK        -0.0205 
      9 C9          1.7965  -15.9999  -50.8900 C.ar      23 UNK        -0.0193 
     10 C10         0.4569  -15.6385  -50.7156 C.ar      23 UNK        -0.1150 
     11 C11        -0.3789  -16.3956  -49.8887 C.ar      23 UNK        -0.0193 
     12 C12         0.1332  -17.5272  -49.2476 C.ar      23 UNK        -0.1150 
     13 C13         1.4748  -17.8919  -49.4025 C.ar      23 UNK        -0.0193 
     14 C14         2.2962  -17.1292  -50.2350 C.ar      23 UNK        -0.1150 
     15 C15         2.0645  -19.0611  -48.6229 C.3       23 UNK        -0.0205 
     16 S16         2.1675  -20.5914  -49.5984 S.3       23 UNK        -0.2404 
     17 C17         0.4476  -21.1801  -49.4916 C.3       23 UNK        -0.0398 
     18 CA          0.2589  -22.4071  -48.5648 C.3       11 UNK         0.1400 
     19 N           0.7461  -22.2011  -47.1972 N.am      11 UNK        -0.5000 
     20 C           0.9635  -23.2001  -46.3293 C.2       10 UNK         0.5000 
     21 O           0.8350  -24.3918  -46.6111 O.2       10 UNK        -0.5000 
     22 CA          1.3456  -22.8036  -44.8927 C.3       10 UNK         0.1400 
     23 CB          2.8542  -22.5381  -44.7804 C.3       10 UNK        -0.1800 
     24 N           0.5957  -21.6431  -44.4079 N.am      10 UNK        -0.5000 
     25 C          -0.7269  -21.6492  -44.1817 C.2       9 UNK         0.5000 
     26 O          -1.4463  -22.6240  -44.3915 O.2       9 UNK        -0.5000 
     27 CA         -1.3714  -20.3554  -43.6530 C.3       9 UNK         0.1400 
     28 CB         -1.4054  -20.3699  -42.1177 C.3       9 UNK        -0.1800 
     29 N          -0.7166  -19.1313  -44.1069 N.am      9 UNK        -0.5000 
     30 C          -0.5592  -18.7597  -45.3849 C.2       8 UNK         0.5000 
     31 O          -0.9515  -19.4188  -46.3514 O.2       8 UNK        -0.5000 
     32 CA          0.2249  -17.4535  -45.6067 C.3       8 UNK         0.1400 
     33 CB         -0.6903  -16.2370  -45.4104 C.3       8 UNK        -0.1800 
     34 N           1.4015  -17.3343  -44.7441 N.am      8 UNK        -0.5000 
     35 C           2.4183  -18.2077  -44.6868 C.2       7 UNK         0.5000 
     36 O           2.4665  -19.2522  -45.3343 O.2       7 UNK        -0.5000 
     37 CA          3.5537  -17.8796  -43.7065 C.3       7 UNK         0.1400 
     38 CB          4.5038  -16.8260  -44.2980 C.3       7 UNK        -0.1800 
     39 N           3.0141  -17.4087  -42.4329 N.am      7 UNK        -0.5000 
     40 C           2.5521  -18.2177  -41.4691 C.2       6 UNK         0.5000 
     41 O           2.6218  -19.4462  -41.5158 O.2       6 UNK        -0.5000 
     42 CA          1.8835  -17.5463  -40.2535 C.3       6 UNK         0.1400 
     43 CB          2.9212  -17.2620  -39.1572 C.3       6 UNK        -0.1800 
     44 N           1.1866  -16.3028  -40.5872 N.am      6 UNK        -0.5000 
     45 C           0.0916  -16.2272  -41.3560 C.2       5 UNK         0.5000 
     46 O          -0.4622  -17.2053  -41.8580 O.2       5 UNK        -0.5000 
     47 CA         -0.4475  -14.8144  -41.6519 C.3       5 UNK         0.1400 
     48 CB         -1.3940  -14.3559  -40.5329 C.3       5 UNK        -0.1800 
     49 N           0.5848  -13.7924  -41.8594 N.am      5 UNK        -0.5000 
     50 C           1.5943  -13.8653  -42.7371 C.2       4 UNK         0.5000 
     51 O           1.8382  -14.8641  -43.4130 O.2       4 UNK        -0.5000 
     52 CA          2.4480  -12.5974  -42.9135 C.3       4 UNK         0.1400 
     53 CB          3.8877  -12.9278  -43.3443 C.3       4 UNK        -0.1800 
     54 N           1.8449  -11.7333  -43.9224 N.am      4 UNK        -0.5000 
     55 C           0.7330  -11.0057  -43.7565 C.2       3 UNK         0.5000 
     56 O           0.1503  -10.8799  -42.6783 O.2       3 UNK        -0.5000 
     57 CA          0.1662  -10.3225  -45.0117 C.3       3 UNK         0.1400 
     58 CB          0.8443   -8.9639  -45.2470 C.3       3 UNK        -0.1800 
     59 N           0.3124  -11.1552  -46.2070 N.am      3 UNK        -0.5000 
     60 C          -0.4536  -12.2176  -46.4958 C.2       2 UNK         0.5000 
     61 O          -1.3741  -12.6105  -45.7792 O.2       2 UNK        -0.5000 
     62 CA         -0.1645  -12.9473  -47.8213 C.3       2 UNK         0.1400 
     63 CB         -1.0464  -12.3714  -48.9401 C.3       2 UNK        -0.1800 
     64 N           1.2344  -12.8324  -48.2269 N.am      2 UNK        -0.5000 
     65 C           2.2270  -13.6134  -47.7781 C.2       1 UNK         0.5000 
     66 O           2.0649  -14.5531  -47.0012 O.2       1 UNK        -0.5000 
     67 C          -1.2239  -22.8181  -48.5401 C.2       11 UNK         0.5000 
     68 O          -1.6034  -23.7831  -49.2058 O.2       11 UNK        -0.5000 
     69 N          -2.0298  -22.0786  -47.7624 N.am      12 UNK        -0.5000 
     70 CA         -3.4772  -22.2620  -47.6610 C.3       12 UNK         0.1400 
     71 CB         -4.0798  -21.1405  -46.8043 C.3       12 UNK        -0.1800 
     72 C          -3.8802  -23.6453  -47.1229 C.2       12 UNK         0.5000 
     73 O          -4.8204  -24.2409  -47.6445 O.2       12 UNK        -0.5000 
     74 N          -3.1437  -24.1546  -46.1258 N.am      13 UNK        -0.5000 
     75 CA         -3.3330  -25.4926  -45.5642 C.3       13 UNK         0.1400 
     76 CB         -2.5290  -25.6214  -44.2619 C.3       13 UNK        -0.1800 
     77 C          -2.9499  -26.6194  -46.5409 C.2       13 UNK         0.5000 
     78 O          -3.5770  -27.6784  -46.5091 O.2       13 UNK        -0.5000 
     79 N          -1.9403  -26.3777  -47.3897 N.am      14 UNK        -0.5000 
     80 CA         -1.4689  -27.3289  -48.3963 C.3       14 UNK         0.1400 
     81 CB         -0.0758  -26.9145  -48.8948 C.3       14 UNK        -0.1800 
     82 C          -2.4573  -27.4743  -49.5665 C.2       14 UNK         0.5000 
     83 O          -2.7354  -28.5978  -49.9880 O.2       14 UNK        -0.5000 
     84 N          -2.9843  -26.3434  -50.0563 N.am      15 UNK        -0.5000 
     85 CA         -3.9922  -26.3086  -51.1208 C.3       15 UNK         0.1400 
     86 CB         -3.9702  -24.9261  -51.7849 C.3       15 UNK        -0.1800 
     87 C          -5.4143  -26.6316  -50.6205 C.2       15 UNK         0.5000 
     88 O          -6.2553  -27.0359  -51.4236 O.2       15 UNK        -0.5000 
     89 N          -5.6551  -26.4254  -49.3172 N.am      16 UNK        -0.5000 
     90 CA         -6.9359  -26.5159  -48.6060 C.3       16 UNK         0.1400 
     91 CB         -7.5220  -27.9416  -48.6753 C.3       16 UNK        -0.1800 
     92 C          -7.9417  -25.4203  -49.0276 C.2       16 UNK         0.5000 
     93 O          -9.1512  -25.6084  -48.8843 O.2       16 UNK        -0.5000 
     94 N          -7.4229  -24.2908  -49.5231 N.am      17 UNK        -0.5000 
     95 CA         -8.1397  -23.1207  -50.0211 C.3       17 UNK         0.1400 
     96 CB         -8.9584  -23.4796  -51.2780 C.3       17 UNK        -0.1800 
     97 C          -7.1108  -22.0212  -50.3334 C.2       17 UNK         0.5000 
     98 O          -5.9105  -22.2988  -50.3739 O.2       17 UNK        -0.5000 
     99 N          -7.5915  -20.7914  -50.5603 N.am      18 UNK        -0.5000 
    100 CA        -6.7609  -19.6307  -50.9054 C.3       18 UNK         0.1400 
    101 CB        -7.5865  -18.3483  -50.7247 C.3       18 UNK        -0.1800 
    102 C         -6.1706  -19.6934  -52.3290 C.2       18 UNK         0.5000 
    103 O         -5.1372  -19.0751  -52.5818 O.2       18 UNK        -0.5000 
    104 N         -6.8154  -20.4493  -53.2239 N.am      19 UNK        -0.5000 
    105 CA        -6.3260  -20.7738  -54.5599 C.3       19 UNK         0.1400 
    106 CB        -7.3755  -20.3463  -55.5970 C.3       19 UNK        -0.1800 
    107 C         -6.0970  -22.2963  -54.6181 C.2       19 UNK         0.5000 
    108 O         -6.8917  -23.0332  -54.0358 O.2       19 UNK        -0.5000 
    109 N         -5.0595  -22.8047  -55.2963 N.am      20 UNK        -0.5000 
    110 CA        -4.0179  -22.0971  -56.0506 C.3       20 UNK         0.1400 
    111 CB        -3.5024  -23.0453  -57.1472 C.3       20 UNK        -0.1800 
    112 C         -2.8524  -21.5864  -55.1711 C.2       20 UNK         0.5000 
    113 O         -1.8426  -21.1459  -55.7198 O.2       20 UNK        -0.5000 
    114 N         -3.0022  -21.6757  -53.8403 N.am      21 UNK        -0.5000 
    115 CA        -2.0354  -21.2881  -52.8097 C.3       21 UNK         0.1400 
    116 CB        -2.7049  -21.4078  -51.4305 C.3       21 UNK        -0.1800 
    117 C         -1.4263  -19.8861  -52.9833 C.2       21 UNK         0.5000 
    118 O         -0.2091  -19.7653  -53.1273 O.2       21 UNK        -0.5000 
    119 N         -2.2829  -18.8633  -52.9391 N.am      22 UNK        -0.5000 
    120 CA        -1.8873  -17.4548  -53.0121 C.3       22 UNK         0.1400 
    121 C         -1.7746  -16.9792  -54.4833 C.2       22 UNK         0.5000 
    122 N         -0.7154  -16.2615  -54.8323 N.am      22 UNK        -0.7600 
    123 O         -2.6593  -17.2169  -55.3029 O.2       22 UNK        -0.5000 
    124 C124       -2.8574  -16.5520  -52.2114 C.3       23 UNK        -0.0398 
    125 S125       -3.0211  -17.0613  -50.4633 S.3       23 UNK        -0.2404 
    126 C126       -1.8202  -15.9704  -49.6429 C.3       23 UNK        -0.0205 
    127 H127        3.1422   -8.8431  -47.6961 H         1 UNK         0.0600 
    128 H128        4.3379   -9.3514  -48.8928 H         1 UNK         0.0600 
    129 H129        4.8356   -9.0310  -47.2291 H         1 UNK         0.0600 
    130 H130        4.0977  -11.5209  -49.3686 H         1 UNK         0.3000 
    131 H131        4.3248  -13.5681  -47.4522 H         1 UNK         0.0600 
    132 H132        3.9607  -15.1186  -49.3397 H         1 UNK         0.0800 
    133 H133        5.1257  -13.8943  -49.7158 H         1 UNK         0.0800 
    134 H134        3.6271  -15.7153  -52.0102 H         1 UNK         0.0800 
    135 H135        2.2157  -14.9892  -52.7326 H         1 UNK         0.0800 
    136 H136        0.0739  -14.7574  -51.2104 H         1 UNK         0.1150 
    137 H137       -0.5140  -18.1042  -48.6034 H         1 UNK         0.1150 
    138 H138        3.3339  -17.4069  -50.3556 H         1 UNK         0.1150 
    139 H139        3.0639  -18.7974  -48.2736 H         1 UNK         0.0800 
    140 H140        1.4779  -19.2569  -47.7275 H         1 UNK         0.0800 
    141 H141        0.1473  -21.4373  -50.5082 H         1 UNK         0.0800 
    142 H142       -0.2006  -20.3589  -49.1848 H         1 UNK         0.0800 
    143 H143        0.8217  -23.2363  -48.9998 H         1 UNK         0.0600 
    144 H144        0.8526  -21.2474  -46.8811 H         1 UNK         0.3000 
    145 H145        1.1046  -23.6465  -44.2414 H         1 UNK         0.0600 
    146 H146        3.1304  -22.2351  -43.7702 H         1 UNK         0.0600 
    147 H147        3.4231  -23.4376  -45.0186 H         1 UNK         0.0600 
    148 H148        3.1811  -21.7576  -45.4675 H         1 UNK         0.0600 
    149 H149        1.1162  -20.7863  -44.2712 H         1 UNK         0.3000 
    150 H150       -2.4002  -20.3289  -44.0147 H         1 UNK         0.0600 
    151 H151       -1.8785  -21.2786  -41.7431 H         1 UNK         0.0600 
    152 H152       -1.9747  -19.5256  -41.7287 H         1 UNK         0.0600 
    153 H153       -0.4013  -20.3206  -41.6939 H         1 UNK         0.0600 
    154 H154       -0.3928  -18.5007  -43.3792 H         1 UNK         0.3000 
    155 H155        0.5918  -17.4322  -46.6290 H         1 UNK         0.0600 
    156 H156       -1.4920  -16.2311  -46.1490 H         1 UNK         0.0600 
    157 H157       -0.1391  -15.3030  -45.5181 H         1 UNK         0.0600 
    158 H158       -1.1554  -16.2394  -44.4257 H         1 UNK         0.0600 
    159 H159        1.4814  -16.4727  -44.2083 H         1 UNK         0.3000 
    160 H160        4.1303  -18.7915  -43.5361 H         1 UNK         0.0600 
    161 H161        3.9836  -15.9019  -44.5506 H         1 UNK         0.0600 
    162 H162        4.9682  -17.1957  -45.2128 H         1 UNK         0.0600 
    163 H163        5.3053  -16.5806  -43.6012 H         1 UNK         0.0600 
    164 H164        2.8395  -16.4144  -42.3619 H         1 UNK         0.3000 
    165 H165        1.1476  -18.2476  -39.8542 H         1 UNK         0.0600 
    166 H166        2.4484  -16.8613  -38.2603 H         1 UNK         0.0600 
    167 H167        3.4431  -18.1751  -38.8677 H         1 UNK         0.0600 
    168 H168        3.6732  -16.5456  -39.4904 H         1 UNK         0.0600 
    169 H169        1.5797  -15.4461  -40.2260 H         1 UNK         0.3000 
    170 H170       -1.0258  -14.8715  -42.5747 H         1 UNK         0.0600 
    171 H171       -2.1892  -15.0847  -40.3699 H         1 UNK         0.0600 
    172 H172       -0.8667  -14.2273  -39.5869 H         1 UNK         0.0600 
    173 H173       -1.8708  -13.4080  -40.7835 H         1 UNK         0.0600 
    174 H174        0.4304  -12.9067  -41.3966 H         1 UNK         0.3000 
    175 H175        2.4904  -12.0667  -41.9601 H         1 UNK         0.0600 
    176 H176        3.9163  -13.3984  -44.3283 H         1 UNK         0.0600 
    177 H177        4.4991  -12.0266  -43.3921 H         1 UNK         0.0600 
    178 H178        4.3629  -13.6093  -42.6378 H         1 UNK         0.0600 
    179 H179        2.2840  -11.7405  -44.8383 H         1 UNK         0.3000 
    180 H180       -0.8979  -10.1434  -44.8430 H         1 UNK         0.0600 
    181 H181        1.9186   -9.0680  -45.4012 H         1 UNK         0.0600 
    182 H182        0.7005   -8.3051  -44.3897 H         1 UNK         0.0600 
    183 H183        0.4266   -8.4590  -46.1181 H         1 UNK         0.0600 
    184 H184        1.0807  -10.9334  -46.8218 H         1 UNK         0.3000 
    185 H185       -0.4139  -14.0027  -47.6934 H         1 UNK         0.0600 
    186 H186       -2.1036  -12.5252  -48.7204 H         1 UNK         0.0600 
    187 H187       -0.8898  -11.2992  -49.0654 H         1 UNK         0.0600 
    188 H188       -0.8377  -12.8490  -49.8969 H         1 UNK         0.0600 
    189 H189        1.4639  -12.1005  -48.8830 H         1 UNK         0.3000 
    190 H190       -1.6352  -21.3066  -47.2373 H         1 UNK         0.3000 
    191 H191       -3.8846  -22.1715  -48.6692 H         1 UNK         0.0600 
    192 H192       -3.8330  -20.1583  -47.2084 H         1 UNK         0.0600 
    193 H193       -5.1674  -21.2169  -46.7742 H         1 UNK         0.0600 
    194 H194       -3.7179  -21.1828  -45.7774 H         1 UNK         0.0600 
    195 H195       -2.4163  -23.5843  -45.7013 H         1 UNK         0.3000 
    196 H196       -4.3914  -25.6109  -45.3223 H         1 UNK         0.0600 
    197 H197       -2.6590  -26.6082  -43.8160 H         1 UNK         0.0600 
    198 H198       -2.8537  -24.8870  -43.5246 H         1 UNK         0.0600 
    199 H199       -1.4616  -25.4746  -44.4335 H         1 UNK         0.0600 
    200 H200       -1.4836  -25.4760  -47.3654 H         1 UNK         0.3000 
    201 H201       -1.3725  -28.3071  -47.9201 H         1 UNK         0.0600 
    202 H202        0.6383  -26.8685  -48.0724 H         1 UNK         0.0600 
    203 H203       -0.0885  -25.9386  -49.3796 H         1 UNK         0.0600 
    204 H204        0.3081  -27.6341  -49.6188 H         1 UNK         0.0600 
    205 H205       -2.6670  -25.4529  -49.6846 H         1 UNK         0.3000 
    206 H206       -3.7310  -27.0503  -51.8787 H         1 UNK         0.0600 
    207 H207       -2.9845  -24.6934  -52.1882 H         1 UNK         0.0600 
    208 H208       -4.6840  -24.8712  -52.6080 H         1 UNK         0.0600 
    209 H209       -4.2380  -24.1510  -51.0689 H         1 UNK         0.0600 
    210 H210       -4.9071  -26.0192  -48.7679 H         1 UNK         0.3000 
    211 H211       -6.7035  -26.3150  -47.5593 H         1 UNK         0.0600 
    212 H212       -7.8728  -28.1900  -49.6770 H         1 UNK         0.0600 
    213 H213       -8.3710  -28.0469  -47.9991 H         1 UNK         0.0600 
    214 H214       -6.7815  -28.6862  -48.3827 H         1 UNK         0.0600 
    215 H215       -6.4142  -24.1871  -49.5500 H         1 UNK         0.3000 
    216 H216       -8.8048  -22.7552  -49.2367 H         1 UNK         0.0600 
    217 H217       -9.3987  -22.5950  -51.7390 H         1 UNK         0.0600 
    218 H218       -9.7809  -24.1536  -51.0404 H         1 UNK         0.0600 
    219 H219       -8.3377  -23.9690  -52.0287 H         1 UNK         0.0600 
    220 H220       -8.5873  -20.6322  -50.5044 H         1 UNK         0.3000 
    221 H221       -5.9202  -19.5930  -50.2087 H         1 UNK         0.0600 
    222 H222       -8.4524  -18.3296  -51.3877 H         1 UNK         0.0600 
    223 H223       -7.9439  -18.2500  -49.6995 H         1 UNK         0.0600 
    224 H224       -6.9854  -17.4645  -50.9437 H         1 UNK         0.0600 
    225 H225       -7.6114  -20.9880  -52.9130 H         1 UNK         0.3000 
    226 H226       -5.4010  -20.2342  -54.7606 H         1 UNK         0.0600 
    227 H227       -7.5629  -19.2736  -55.5460 H         1 UNK         0.0600 
    228 H228       -7.0378  -20.5704  -56.6095 H         1 UNK         0.0600 
    229 H229       -8.3263  -20.8594  -55.4457 H         1 UNK         0.0600 
    230 H230       -4.9630  -23.8094  -55.2970 H         1 UNK         0.3000 
    231 H231       -4.4545  -21.2322  -56.5525 H         1 UNK         0.0600 
    232 H232       -3.0150  -23.9239  -56.7226 H         1 UNK         0.0600 
    233 H233       -2.7777  -22.5475  -57.7929 H         1 UNK         0.0600 
    234 H234       -4.3161  -23.3889  -57.7864 H         1 UNK         0.0600 
    235 H235       -3.8568  -22.0873  -53.4978 H         1 UNK         0.3000 
    236 H236       -1.2112  -22.0030  -52.8493 H         1 UNK         0.0600 
    237 H237       -2.7835  -22.4474  -51.1276 H         1 UNK         0.0600 
    238 H238       -2.1431  -20.8861  -50.6570 H         1 UNK         0.0600 
    239 H239       -3.7078  -20.9860  -51.4218 H         1 UNK         0.0600 
    240 H240       -3.2794  -19.0371  -52.8321 H         1 UNK         0.3000 
    241 H241       -0.9025  -17.3567  -52.5524 H         1 UNK         0.0600 
    242 H242       -0.6392  -15.9339  -55.7828 H         1 UNK         0.3800 
    243 H243        0.0238  -16.0578  -54.1786 H         1 UNK         0.3800 
    244 H244       -2.5343  -15.5107  -52.2539 H         1 UNK         0.0800 
    245 H245       -3.8528  -16.5777  -52.6584 H         1 UNK         0.0800 
    246 H246       -1.9882  -14.9431  -49.9655 H         1 UNK         0.0800 
    247 H247       -2.0149  -15.9853  -48.5700 H         1 UNK         0.0800 
@<TRIPOS>BOND
     1    1    2 1    
     2    1  127 1    
     3    1  128 1    
     4    1  129 1    
     5    2    3 2    
     6    2    4 am   BACKBONE|DICT|INTERRES
     7    4    5 1    
     8    4  130 1    
     9    5    6 1    
    10    5   65 1    
    11    5  131 1    
    12    6    7 1    
    13    6  132 1    
    14    6  133 1    
    15    7    8 1    
    16    8    9 1    
    17    8  134 1    
    18    8  135 1    
    19    9   10 ar   
    20    9   14 ar   
    21   10   11 ar   
    22   10  136 1    
    23   11   12 ar   
    24   11  126 1    
    25   12   13 ar   
    26   12  137 1    
    27   13   14 ar   
    28   13   15 1    
    29   14  138 1    
    30   15   16 1    
    31   15  139 1    
    32   15  140 1    
    33   16   17 1    
    34   17   18 1    
    35   17  141 1    
    36   17  142 1    
    37   18   19 1    
    38   18   67 1    
    39   18  143 1    
    40   19   20 am   BACKBONE|DICT|INTERRES
    41   19  144 1    
    42   20   21 2    
    43   20   22 1    
    44   22   23 1    
    45   22   24 1    
    46   22  145 1    
    47   23  146 1    
    48   23  147 1    
    49   23  148 1    
    50   24   25 am   BACKBONE|DICT|INTERRES
    51   24  149 1    
    52   25   26 2    
    53   25   27 1    
    54   27   28 1    
    55   27   29 1    
    56   27  150 1    
    57   28  151 1    
    58   28  152 1    
    59   28  153 1    
    60   29   30 am   BACKBONE|DICT|INTERRES
    61   29  154 1    
    62   30   31 2    
    63   30   32 1    
    64   32   33 1    
    65   32   34 1    
    66   32  155 1    
    67   33  156 1    
    68   33  157 1    
    69   33  158 1    
    70   34   35 am   BACKBONE|DICT|INTERRES
    71   34  159 1    
    72   35   36 2    
    73   35   37 1    
    74   37   38 1    
    75   37   39 1    
    76   37  160 1    
    77   38  161 1    
    78   38  162 1    
    79   38  163 1    
    80   39   40 am   BACKBONE|DICT|INTERRES
    81   39  164 1    
    82   40   41 2    
    83   40   42 1    
    84   42   43 1    
    85   42   44 1    
    86   42  165 1    
    87   43  166 1    
    88   43  167 1    
    89   43  168 1    
    90   44   45 am   BACKBONE|DICT|INTERRES
    91   44  169 1    
    92   45   46 2    
    93   45   47 1    
    94   47   48 1    
    95   47   49 1    
    96   47  170 1    
    97   48  171 1    
    98   48  172 1    
    99   48  173 1    
   100   49   50 am   BACKBONE|DICT|INTERRES
   101   49  174 1    
   102   50   51 2    
   103   50   52 1    
   104   52   53 1    
   105   52   54 1    
   106   52  175 1    
   107   53  176 1    
   108   53  177 1    
   109   53  178 1    
   110   54   55 am   BACKBONE|DICT|INTERRES
   111   54  179 1    
   112   55   56 2    
   113   55   57 1    
   114   57   58 1    
   115   57   59 1    
   116   57  180 1    
   117   58  181 1    
   118   58  182 1    
   119   58  183 1    
   120   59   60 am   BACKBONE|DICT|INTERRES
   121   59  184 1    
   122   60   61 2    
   123   60   62 1    
   124   62   63 1    
   125   62   64 1    
   126   62  185 1    
   127   63  186 1    
   128   63  187 1    
   129   63  188 1    
   130   64   65 am   BACKBONE|DICT|INTERRES
   131   64  189 1    
   132   65   66 2    
   133   67   68 2    
   134   67   69 am   BACKBONE|DICT|INTERRES
   135   69   70 1    
   136   69  190 1    
   137   70   71 1    
   138   70   72 1    
   139   70  191 1    
   140   71  192 1    
   141   71  193 1    
   142   71  194 1    
   143   72   73 2    
   144   72   74 am   BACKBONE|DICT|INTERRES
   145   74   75 1    
   146   74  195 1    
   147   75   76 1    
   148   75   77 1    
   149   75  196 1    
   150   76  197 1    
   151   76  198 1    
   152   76  199 1    
   153   77   78 2    
   154   77   79 am   BACKBONE|DICT|INTERRES
   155   79   80 1    
   156   79  200 1    
   157   80   81 1    
   158   80   82 1    
   159   80  201 1    
   160   81  202 1    
   161   81  203 1    
   162   81  204 1    
   163   82   83 2    
   164   82   84 am   BACKBONE|DICT|INTERRES
   165   84   85 1    
   166   84  205 1    
   167   85   86 1    
   168   85   87 1    
   169   85  206 1    
   170   86  207 1    
   171   86  208 1    
   172   86  209 1    
   173   87   88 2    
   174   87   89 am   BACKBONE|DICT|INTERRES
   175   89   90 1    
   176   89  210 1    
   177   90   91 1    
   178   90   92 1    
   179   90  211 1    
   180   91  212 1    
   181   91  213 1    
   182   91  214 1    
   183   92   93 2    
   184   92   94 am   BACKBONE|DICT|INTERRES
   185   94   95 1    
   186   94  215 1    
   187   95   96 1    
   188   95   97 1    
   189   95  216 1    
   190   96  217 1    
   191   96  218 1    
   192   96  219 1    
   193   97   98 2    
   194   97   99 am   BACKBONE|DICT|INTERRES
   195   99  100 1    
   196   99  220 1    
   197  100  101 1    
   198  100  102 1    
   199  100  221 1    
   200  101  222 1    
   201  101  223 1    
   202  101  224 1    
   203  102  103 2    
   204  102  104 am   BACKBONE|DICT|INTERRES
   205  104  105 1    
   206  104  225 1    
   207  105  106 1    
   208  105  107 1    
   209  105  226 1    
   210  106  227 1    
   211  106  228 1    
   212  106  229 1    
   213  107  108 2    
   214  107  109 am   BACKBONE|DICT|INTERRES
   215  109  110 1    
   216  109  230 1    
   217  110  111 1    
   218  110  112 1    
   219  110  231 1    
   220  111  232 1    
   221  111  233 1    
   222  111  234 1    
   223  112  113 2    
   224  112  114 am   BACKBONE|DICT|INTERRES
   225  114  115 1    
   226  114  235 1    
   227  115  116 1    
   228  115  117 1    
   229  115  236 1    
   230  116  237 1    
   231  116  238 1    
   232  116  239 1    
   233  117  118 2    
   234  117  119 am   BACKBONE|DICT|INTERRES
   235  119  120 1    
   236  119  240 1    
   237  120  121 1    
   238  120  124 1    
   239  120  241 1    
   240  121  122 am   BACKBONE|DICT|INTERRES
   241  121  123 2    
   242  122  242 1    
   243  122  243 1    
   244  124  125 1    
   245  124  244 1    
   246  124  245 1    
   247  125  126 1    
   248  126  246 1    
   249  126  247 1    
@<TRIPOS>SUBSTRUCTURE
     1 UNK         1 GROUP             0       ****    0 ROOT    
