@<TRIPOS>MOLECULE
3R540
247   249    1
SMALL
USER_CHARGES


@<TRIPOS>ATOM
      1 CA          3.9328  -10.7650  -47.8579 C.3       0 UNK        -0.1800 
      2 C           3.0819  -11.9916  -47.5666 C.2       0 UNK         0.5000 
      3 O           3.0903  -12.4900  -46.4417 O.2       0 UNK        -0.5000 
      4 N           2.3309  -12.4716  -48.5657 N.am      1 UNK        -0.5000 
      5 CA          1.4497  -13.6451  -48.4862 C.3       1 UNK         0.1400 
      6 C6          0.8580  -14.0389  -49.8627 C.3       23 UNK        -0.0398 
      7 S7          0.1878  -12.6429  -50.8436 S.3       23 UNK        -0.2404 
      8 C8         -1.6162  -12.7732  -50.5930 C.3       23 UNK        -0.0205 
      9 C9         -2.1869  -14.1435  -50.9390 C.ar      23 UNK        -0.0193 
     10 C10        -1.8646  -14.7776  -52.1435 C.ar      23 UNK        -0.1150 
     11 C11        -2.3581  -16.0536  -52.4273 C.ar      23 UNK        -0.0193 
     12 C12        -3.1862  -16.6924  -51.5012 C.ar      23 UNK        -0.1150 
     13 C13        -3.5414  -16.0616  -50.3067 C.ar      23 UNK        -0.0193 
     14 C14        -3.0427  -14.7823  -50.0378 C.ar      23 UNK        -0.1150 
     15 C15        -4.4655  -16.7633  -49.3182 C.3       23 UNK        -0.0205 
     16 S16        -3.7779  -16.7503  -47.6340 S.3       23 UNK        -0.2404 
     17 C17        -4.1622  -18.4256  -47.0241 C.3       23 UNK        -0.0398 
     18 CA         -3.2130  -19.5350  -47.5526 C.3       11 UNK         0.1400 
     19 N          -1.8173  -19.0985  -47.6512 N.am      11 UNK        -0.5000 
     20 C          -0.8018  -19.8133  -48.1511 C.2       10 UNK         0.5000 
     21 O          -0.9150  -20.9757  -48.5420 O.2       10 UNK        -0.5000 
     22 CA          0.5868  -19.1412  -48.1816 C.3       10 UNK         0.1400 
     23 CB          0.5598  -17.6265  -47.8749 C.3       10 UNK        -0.1800 
     24 N           1.5452  -19.8164  -47.2984 N.am      10 UNK        -0.5000 
     25 C           1.3777  -20.1002  -45.9985 C.2       9 UNK         0.5000 
     26 O           0.3478  -19.8519  -45.3656 O.2       9 UNK        -0.5000 
     27 CA          2.5549  -20.7986  -45.3010 C.3       9 UNK         0.1400 
     28 CB          3.7583  -19.8568  -45.1250 C.3       9 UNK        -0.1800 
     29 N           2.1198  -21.2729  -43.9939 N.am      9 UNK        -0.5000 
     30 C           2.5559  -22.3623  -43.3574 C.2       8 UNK         0.5000 
     31 O           3.4103  -23.1210  -43.8191 O.2       8 UNK        -0.5000 
     32 CA          1.9520  -22.6216  -41.9579 C.3       8 UNK         0.1400 
     33 CB          2.4877  -23.9100  -41.3078 C.3       8 UNK        -0.1800 
     34 N           2.1958  -21.4986  -41.0472 N.am      8 UNK        -0.5000 
     35 C           1.5168  -20.3447  -41.0505 C.2       7 UNK         0.5000 
     36 O           0.5520  -20.1407  -41.7900 O.2       7 UNK        -0.5000 
     37 CA          2.0112  -19.2444  -40.0922 C.3       7 UNK         0.1400 
     38 CB          3.4933  -18.9093  -40.3411 C.3       7 UNK        -0.1800 
     39 N           1.2297  -18.0305  -40.3069 N.am      7 UNK        -0.5000 
     40 C           0.2945  -17.5389  -39.4853 C.2       6 UNK         0.5000 
     41 O           0.0556  -18.0000  -38.3681 O.2       6 UNK        -0.5000 
     42 CA         -0.5162  -16.3249  -39.9883 C.3       6 UNK         0.1400 
     43 CB         -0.0065  -15.0311  -39.3356 C.3       6 UNK        -0.1800 
     44 N          -0.4751  -16.1772  -41.4455 N.am      6 UNK        -0.5000 
     45 C          -1.1538  -16.9585  -42.3003 C.2       5 UNK         0.5000 
     46 O          -1.9917  -17.7843  -41.9361 O.2       5 UNK        -0.5000 
     47 CA         -0.8666  -16.8045  -43.8102 C.3       5 UNK         0.1400 
     48 CB         -2.0353  -16.0894  -44.5010 C.3       5 UNK        -0.1800 
     49 N           0.3687  -16.0921  -44.1441 N.am      5 UNK        -0.5000 
     50 C           1.6102  -16.4492  -43.7882 C.2       4 UNK         0.5000 
     51 O           1.8739  -17.4542  -43.1316 O.2       4 UNK        -0.5000 
     52 CA          2.7437  -15.4778  -44.1660 C.3       4 UNK         0.1400 
     53 CB          3.3193  -15.8331  -45.5438 C.3       4 UNK        -0.1800 
     54 N           2.3316  -14.0709  -44.1597 N.am      4 UNK        -0.5000 
     55 C           1.8481  -13.4093  -43.0970 C.2       3 UNK         0.5000 
     56 O           1.6947  -13.9182  -41.9869 O.2       3 UNK        -0.5000 
     57 CA          1.4245  -11.9496  -43.3259 C.3       3 UNK         0.1400 
     58 CB          2.6410  -11.0111  -43.3086 C.3       3 UNK        -0.1800 
     59 N           0.7063  -11.8059  -44.5916 N.am      3 UNK        -0.5000 
     60 C          -0.5991  -12.0676  -44.7500 C.2       2 UNK         0.5000 
     61 O          -1.3509  -12.3727  -43.8241 O.2       2 UNK        -0.5000 
     62 CA         -1.1627  -11.9896  -46.1831 C.3       2 UNK         0.1400 
     63 CB         -1.7449  -10.5962  -46.4621 C.3       2 UNK        -0.1800 
     64 N          -0.1709  -12.3059  -47.2114 N.am      2 UNK        -0.5000 
     65 C           0.3540  -13.5233  -47.4062 C.2       1 UNK         0.5000 
     66 O           0.0456  -14.5117  -46.7412 O.2       1 UNK        -0.5000 
     67 C          -3.3828  -20.8101  -46.7017 C.2       11 UNK         0.5000 
     68 O          -4.2277  -21.6443  -47.0276 O.2       11 UNK        -0.5000 
     69 N          -2.5713  -20.9450  -45.6419 N.am      12 UNK        -0.5000 
     70 CA         -2.5877  -22.0944  -44.7383 C.3       12 UNK         0.1400 
     71 CB         -1.8558  -21.7369  -43.4385 C.3       12 UNK        -0.1800 
     72 C          -1.9663  -23.3432  -45.3833 C.2       12 UNK         0.5000 
     73 O          -2.4845  -24.4430  -45.1924 O.2       12 UNK        -0.5000 
     74 N          -0.8983  -23.1482  -46.1704 N.am      13 UNK        -0.5000 
     75 CA         -0.2525  -24.2028  -46.9561 C.3       13 UNK         0.1400 
     76 CB          1.1180  -23.7198  -47.4509 C.3       13 UNK        -0.1800 
     77 C          -1.1302  -24.6657  -48.1317 C.2       13 UNK         0.5000 
     78 O          -1.1492  -25.8551  -48.4484 O.2       13 UNK        -0.5000 
     79 N          -1.8732  -23.7221  -48.7249 N.am      14 UNK        -0.5000 
     80 CA         -2.8580  -23.9733  -49.7742 C.3       14 UNK         0.1400 
     81 CB         -3.1900  -22.6467  -50.4725 C.3       14 UNK        -0.1800 
     82 C          -4.1635  -24.6119  -49.2615 C.2       14 UNK         0.5000 
     83 O          -4.9911  -25.0007  -50.0835 O.2       14 UNK        -0.5000 
     84 N          -4.3656  -24.6479  -47.9354 N.am      15 UNK        -0.5000 
     85 CA         -5.5871  -25.0764  -47.2429 C.3       15 UNK         0.1400 
     86 CB         -5.7888  -26.5989  -47.3867 C.3       15 UNK        -0.1800 
     87 C          -6.8220  -24.2544  -47.6765 C.2       15 UNK         0.5000 
     88 O          -7.8937  -24.8128  -47.9153 O.2       15 UNK        -0.5000 
     89 N          -6.6171  -22.9350  -47.8041 N.am      16 UNK        -0.5000 
     90 CA         -7.5585  -21.9004  -48.2450 C.3       16 UNK         0.1400 
     91 CB         -8.7975  -21.8414  -47.3280 C.3       16 UNK        -0.1800 
     92 C          -7.9400  -21.9539  -49.7417 C.2       16 UNK         0.5000 
     93 O          -8.7661  -21.1469  -50.1699 O.2       16 UNK        -0.5000 
     94 N          -7.3239  -22.8486  -50.5313 N.am      17 UNK        -0.5000 
     95 CA         -7.5481  -22.9541  -51.9794 C.3       17 UNK         0.1400 
     96 CB         -7.1689  -24.3658  -52.4520 C.3       17 UNK        -0.1800 
     97 C          -6.7757  -21.8958  -52.7938 C.2       17 UNK         0.5000 
     98 O          -7.0653  -21.7208  -53.9781 O.2       17 UNK        -0.5000 
     99 N          -5.8017  -21.2303  -52.1536 N.am      18 UNK        -0.5000 
    100 CA        -4.8822  -20.2054  -52.6634 C.3       18 UNK         0.1400 
    101 CB        -5.6471  -18.9572  -53.1483 C.3       18 UNK        -0.1800 
    102 C         -3.8989  -20.7279  -53.7280 C.2       18 UNK         0.5000 
    103 O         -2.6920  -20.7748  -53.4807 O.2       18 UNK        -0.5000 
    104 N         -4.4335  -21.1482  -54.8803 N.am      19 UNK        -0.5000 
    105 CA        -3.6954  -21.6311  -56.0504 C.3       19 UNK         0.1400 
    106 CB        -4.6890  -21.8965  -57.1903 C.3       19 UNK        -0.1800 
    107 C         -2.8360  -22.8809  -55.7832 C.2       19 UNK         0.5000 
    108 O         -1.8337  -23.0819  -56.4681 O.2       19 UNK        -0.5000 
    109 N         -3.2123  -23.6733  -54.7708 N.am      20 UNK        -0.5000 
    110 CA        -2.4718  -24.8475  -54.3088 C.3       20 UNK         0.1400 
    111 CB        -3.3361  -25.6201  -53.3022 C.3       20 UNK        -0.1800 
    112 C         -1.0800  -24.5238  -53.7229 C.2       20 UNK         0.5000 
    113 O         -0.2155  -25.4008  -53.7430 O.2       20 UNK        -0.5000 
    114 N         -0.8744  -23.2869  -53.2441 N.am      21 UNK        -0.5000 
    115 CA         0.4396  -22.7723  -52.8505 C.3       21 UNK         0.1400 
    116 CB         0.3593  -22.0978  -51.4719 C.3       21 UNK        -0.1800 
    117 C          0.9750  -21.7801  -53.8942 C.2       21 UNK         0.5000 
    118 O          2.1581  -21.8427  -54.2311 O.2       21 UNK        -0.5000 
    119 N          0.1110  -20.8743  -54.3726 N.am      22 UNK        -0.5000 
    120 CA         0.4903  -19.7718  -55.2722 C.3       22 UNK         0.1400 
    121 C          0.7448  -20.1748  -56.7534 C.2       22 UNK         0.5000 
    122 N          0.3148  -21.3379  -57.2241 N.am      22 UNK        -0.7600 
    123 O          1.3606  -19.4135  -57.4944 O.2       22 UNK        -0.5000 
    124 C124       -0.5103  -18.5937  -55.1858 C.3       23 UNK        -0.0398 
    125 S125       -0.6103  -17.8910  -53.5059 S.3       23 UNK        -0.2404 
    126 C126       -1.9992  -16.7443  -53.7319 C.3       23 UNK        -0.0205 
    127 H127        3.8089  -10.4200  -48.8846 H         1 UNK         0.0600 
    128 H128        4.9863  -10.9952  -47.6998 H         1 UNK         0.0600 
    129 H129        3.6565   -9.9505  -47.1883 H         1 UNK         0.0600 
    130 H130        2.3474  -12.0101  -49.4647 H         1 UNK         0.3000 
    131 H131        2.0837  -14.4756  -48.1723 H         1 UNK         0.0600 
    132 H132        1.6514  -14.4838  -50.4647 H         1 UNK         0.0800 
    133 H133        0.1147  -14.8305  -49.7568 H         1 UNK         0.0800 
    134 H134       -2.1105  -12.0237  -51.2120 H         1 UNK         0.0800 
    135 H135       -1.8424  -12.5125  -49.5582 H         1 UNK         0.0800 
    136 H136       -1.2135  -14.2850  -52.8519 H         1 UNK         0.1150 
    137 H137       -3.5511  -17.6846  -51.7135 H         1 UNK         0.1150 
    138 H138       -3.3087  -14.2915  -49.1120 H         1 UNK         0.1150 
    139 H139       -5.4342  -16.2622  -49.3134 H         1 UNK         0.0800 
    140 H140       -4.6486  -17.7911  -49.6339 H         1 UNK         0.0800 
    141 H141       -5.1997  -18.6645  -47.2646 H         1 UNK         0.0800 
    142 H142       -4.1142  -18.3672  -45.9348 H         1 UNK         0.0800 
    143 H143       -3.5262  -19.7852  -48.5679 H         1 UNK         0.0600 
    144 H144       -1.6354  -18.1530  -47.3466 H         1 UNK         0.3000 
    145 H145        0.9559  -19.2656  -49.2007 H         1 UNK         0.0600 
    146 H146       -0.1317  -17.0980  -48.5328 H         1 UNK         0.0600 
    147 H147        0.2666  -17.4182  -46.8452 H         1 UNK         0.0600 
    148 H148        1.5434  -17.1847  -48.0302 H         1 UNK         0.0600 
    149 H149        2.4095  -20.0954  -47.7402 H         1 UNK         0.3000 
    150 H150        2.8552  -21.6443  -45.9206 H         1 UNK         0.0600 
    151 H151        4.0862  -19.4426  -46.0788 H         1 UNK         0.0600 
    152 H152        4.6084  -20.3851  -44.6932 H         1 UNK         0.0600 
    153 H153        3.5196  -19.0232  -44.4656 H         1 UNK         0.0600 
    154 H154        1.3971  -20.7050  -43.5566 H         1 UNK         0.3000 
    155 H155        0.8750  -22.7451  -42.0893 H         1 UNK         0.0600 
    156 H156        3.5641  -23.8598  -41.1389 H         1 UNK         0.0600 
    157 H157        2.2932  -24.7774  -41.9399 H         1 UNK         0.0600 
    158 H158        2.0059  -24.0964  -40.3478 H         1 UNK         0.0600 
    159 H159        2.9920  -21.5923  -40.4336 H         1 UNK         0.3000 
    160 H160        1.8942  -19.6062  -39.0690 H         1 UNK         0.0600 
    161 H161        3.6757  -18.6404  -41.3826 H         1 UNK         0.0600 
    162 H162        4.1402  -19.7531  -40.1005 H         1 UNK         0.0600 
    163 H163        3.8159  -18.0728  -39.7207 H         1 UNK         0.0600 
    164 H164        1.2950  -17.6534  -41.2480 H         1 UNK         0.3000 
    165 H165       -1.5545  -16.4705  -39.6834 H         1 UNK         0.0600 
    166 H166       -0.5667  -14.1632  -39.6840 H         1 UNK         0.0600 
    167 H167       -0.1132  -15.0742  -38.2511 H         1 UNK         0.0600 
    168 H168        1.0484  -14.8602  -39.5528 H         1 UNK         0.0600 
    169 H169        0.1925  -15.5091  -41.8129 H         1 UNK         0.3000 
    170 H170       -0.7865  -17.8102  -44.2238 H         1 UNK         0.0600 
    171 H171       -2.9720  -16.6273  -44.3510 H         1 UNK         0.0600 
    172 H172       -2.1696  -15.0776  -44.1171 H         1 UNK         0.0600 
    173 H173       -1.8680  -16.0176  -45.5746 H         1 UNK         0.0600 
    174 H174        0.2646  -15.2744  -44.7336 H         1 UNK         0.3000 
    175 H175        3.5364  -15.5901  -43.4238 H         1 UNK         0.0600 
    176 H176        2.5562  -15.7742  -46.3180 H         1 UNK         0.0600 
    177 H177        4.1330  -15.1624  -45.8201 H         1 UNK         0.0600 
    178 H178        3.7162  -16.8480  -45.5532 H         1 UNK         0.0600 
    179 H179        2.4703  -13.5563  -45.0257 H         1 UNK         0.3000 
    180 H180        0.7671  -11.6570  -42.5041 H         1 UNK         0.0600 
    181 H181        2.3378   -9.9719  -43.4369 H         1 UNK         0.0600 
    182 H182        3.3547  -11.2510  -44.0969 H         1 UNK         0.0600 
    183 H183        3.1701  -11.0801  -42.3573 H         1 UNK         0.0600 
    184 H184        1.2687  -11.6185  -45.4103 H         1 UNK         0.3000 
    185 H185       -1.9721  -12.7194  -46.2580 H         1 UNK         0.0600 
    186 H186       -2.2134  -10.5543  -47.4457 H         1 UNK         0.0600 
    187 H187       -2.5093  -10.3385  -45.7279 H         1 UNK         0.0600 
    188 H188       -0.9765   -9.8232  -46.4217 H         1 UNK         0.0600 
    189 H189        0.1498  -11.5443  -47.7914 H         1 UNK         0.3000 
    190 H190       -1.8525  -20.2494  -45.4781 H         1 UNK         0.3000 
    191 H191       -3.6265  -22.3237  -44.4906 H         1 UNK         0.0600 
    192 H192       -1.9122  -22.5543  -42.7187 H         1 UNK         0.0600 
    193 H193       -2.2886  -20.8547  -42.9661 H         1 UNK         0.0600 
    194 H194       -0.8013  -21.5329  -43.6192 H         1 UNK         0.0600 
    195 H195       -0.5757  -22.2024  -46.3172 H         1 UNK         0.3000 
    196 H196       -0.0912  -25.0658  -46.3064 H         1 UNK         0.0600 
    197 H197        1.0428  -22.7957  -48.0247 H         1 UNK         0.0600 
    198 H198        1.7924  -23.5507  -46.6128 H         1 UNK         0.0600 
    199 H199        1.5873  -24.4664  -48.0929 H         1 UNK         0.0600 
    200 H200       -1.7266  -22.7521  -48.4606 H         1 UNK         0.3000 
    201 H201       -2.4106  -24.6509  -50.5034 H         1 UNK         0.0600 
    202 H202       -2.2964  -22.1151  -50.7866 H         1 UNK         0.0600 
    203 H203       -3.7566  -21.9794  -49.8228 H         1 UNK         0.0600 
    204 H204       -3.7822  -22.8295  -51.3676 H         1 UNK         0.0600 
    205 H205       -3.6367  -24.2764  -47.3419 H         1 UNK         0.3000 
    206 H206       -5.4316  -24.8610  -46.1848 H         1 UNK         0.0600 
    207 H207       -4.9036  -27.1448  -47.0601 H         1 UNK         0.0600 
    208 H208       -6.6247  -26.9414  -46.7758 H         1 UNK         0.0600 
    209 H209       -5.9981  -26.8858  -48.4176 H         1 UNK         0.0600 
    210 H210       -5.6900  -22.5833  -47.5668 H         1 UNK         0.3000 
    211 H211       -7.0227  -20.9586  -48.1180 H         1 UNK         0.0600 
    212 H212       -9.4036  -20.9613  -47.5454 H         1 UNK         0.0600 
    213 H213       -8.5092  -21.7824  -46.2784 H         1 UNK         0.0600 
    214 H214       -9.4389  -22.7140  -47.4528 H         1 UNK         0.0600 
    215 H215       -6.6771  -23.5120  -50.1218 H         1 UNK         0.3000 
    216 H216       -8.6119  -22.8104  -52.1804 H         1 UNK         0.0600 
    217 H217       -6.0952  -24.5379  -52.3878 H         1 UNK         0.0600 
    218 H218       -7.4589  -24.5186  -53.4922 H         1 UNK         0.0600 
    219 H219       -7.6689  -25.1318  -51.8589 H         1 UNK         0.0600 
    220 H220       -5.6667  -21.4784  -51.1853 H         1 UNK         0.3000 
    221 H221       -4.2737  -19.9049  -51.8094 H         1 UNK         0.0600 
    222 H222       -6.2136  -18.5062  -52.3336 H         1 UNK         0.0600 
    223 H223       -6.3468  -19.1841  -53.9524 H         1 UNK         0.0600 
    224 H224       -4.9651  -18.1975  -53.5284 H         1 UNK         0.0600 
    225 H225       -5.4474  -21.1608  -54.9408 H         1 UNK         0.3000 
    226 H226       -3.0177  -20.8348  -56.3643 H         1 UNK         0.0600 
    227 H227       -5.4172  -22.6616  -56.9176 H         1 UNK         0.0600 
    228 H228       -5.2363  -20.9916  -57.4548 H         1 UNK         0.0600 
    229 H229       -4.1731  -22.2375  -58.0890 H         1 UNK         0.0600 
    230 H230       -4.0526  -23.4337  -54.2671 H         1 UNK         0.3000 
    231 H231       -2.3069  -25.4947  -55.1728 H         1 UNK         0.0600 
    232 H232       -3.6427  -24.9893  -52.4707 H         1 UNK         0.0600 
    233 H233       -2.7970  -26.4737  -52.8892 H         1 UNK         0.0600 
    234 H234       -4.2392  -26.0058  -53.7753 H         1 UNK         0.0600 
    235 H235       -1.6298  -22.6138  -53.2882 H         1 UNK         0.3000 
    236 H236        1.1630  -23.5862  -52.7710 H         1 UNK         0.0600 
    237 H237       -0.3061  -21.2337  -51.4791 H         1 UNK         0.0600 
    238 H238        0.0087  -22.7947  -50.7113 H         1 UNK         0.0600 
    239 H239        1.3411  -21.7452  -51.1539 H         1 UNK         0.0600 
    240 H240       -0.8424  -20.8528  -54.0247 H         1 UNK         0.3000 
    241 H241        1.4496  -19.3898  -54.9167 H         1 UNK         0.0600 
    242 H242        0.5046  -21.5745  -58.1846 H         1 UNK         0.3800 
    243 H243       -0.2538  -21.9671  -56.6672 H         1 UNK         0.3800 
    244 H244       -0.2204  -17.7889  -55.8639 H         1 UNK         0.0800 
    245 H245       -1.5042  -18.9197  -55.4963 H         1 UNK         0.0800 
    246 H246       -2.8629  -17.2897  -54.1126 H         1 UNK         0.0800 
    247 H247       -1.7397  -16.0066  -54.4929 H         1 UNK         0.0800 
@<TRIPOS>BOND
     1    1    2 1    
     2    1  127 1    
     3    1  128 1    
     4    1  129 1    
     5    2    3 2    
     6    2    4 am   BACKBONE|DICT|INTERRES
     7    4    5 1    
     8    4  130 1    
     9    5    6 1    
    10    5   65 1    
    11    5  131 1    
    12    6    7 1    
    13    6  132 1    
    14    6  133 1    
    15    7    8 1    
    16    8    9 1    
    17    8  134 1    
    18    8  135 1    
    19    9   10 ar   
    20    9   14 ar   
    21   10   11 ar   
    22   10  136 1    
    23   11   12 ar   
    24   11  126 1    
    25   12   13 ar   
    26   12  137 1    
    27   13   14 ar   
    28   13   15 1    
    29   14  138 1    
    30   15   16 1    
    31   15  139 1    
    32   15  140 1    
    33   16   17 1    
    34   17   18 1    
    35   17  141 1    
    36   17  142 1    
    37   18   19 1    
    38   18   67 1    
    39   18  143 1    
    40   19   20 am   BACKBONE|DICT|INTERRES
    41   19  144 1    
    42   20   21 2    
    43   20   22 1    
    44   22   23 1    
    45   22   24 1    
    46   22  145 1    
    47   23  146 1    
    48   23  147 1    
    49   23  148 1    
    50   24   25 am   BACKBONE|DICT|INTERRES
    51   24  149 1    
    52   25   26 2    
    53   25   27 1    
    54   27   28 1    
    55   27   29 1    
    56   27  150 1    
    57   28  151 1    
    58   28  152 1    
    59   28  153 1    
    60   29   30 am   BACKBONE|DICT|INTERRES
    61   29  154 1    
    62   30   31 2    
    63   30   32 1    
    64   32   33 1    
    65   32   34 1    
    66   32  155 1    
    67   33  156 1    
    68   33  157 1    
    69   33  158 1    
    70   34   35 am   BACKBONE|DICT|INTERRES
    71   34  159 1    
    72   35   36 2    
    73   35   37 1    
    74   37   38 1    
    75   37   39 1    
    76   37  160 1    
    77   38  161 1    
    78   38  162 1    
    79   38  163 1    
    80   39   40 am   BACKBONE|DICT|INTERRES
    81   39  164 1    
    82   40   41 2    
    83   40   42 1    
    84   42   43 1    
    85   42   44 1    
    86   42  165 1    
    87   43  166 1    
    88   43  167 1    
    89   43  168 1    
    90   44   45 am   BACKBONE|DICT|INTERRES
    91   44  169 1    
    92   45   46 2    
    93   45   47 1    
    94   47   48 1    
    95   47   49 1    
    96   47  170 1    
    97   48  171 1    
    98   48  172 1    
    99   48  173 1    
   100   49   50 am   BACKBONE|DICT|INTERRES
   101   49  174 1    
   102   50   51 2    
   103   50   52 1    
   104   52   53 1    
   105   52   54 1    
   106   52  175 1    
   107   53  176 1    
   108   53  177 1    
   109   53  178 1    
   110   54   55 am   BACKBONE|DICT|INTERRES
   111   54  179 1    
   112   55   56 2    
   113   55   57 1    
   114   57   58 1    
   115   57   59 1    
   116   57  180 1    
   117   58  181 1    
   118   58  182 1    
   119   58  183 1    
   120   59   60 am   BACKBONE|DICT|INTERRES
   121   59  184 1    
   122   60   61 2    
   123   60   62 1    
   124   62   63 1    
   125   62   64 1    
   126   62  185 1    
   127   63  186 1    
   128   63  187 1    
   129   63  188 1    
   130   64   65 am   BACKBONE|DICT|INTERRES
   131   64  189 1    
   132   65   66 2    
   133   67   68 2    
   134   67   69 am   BACKBONE|DICT|INTERRES
   135   69   70 1    
   136   69  190 1    
   137   70   71 1    
   138   70   72 1    
   139   70  191 1    
   140   71  192 1    
   141   71  193 1    
   142   71  194 1    
   143   72   73 2    
   144   72   74 am   BACKBONE|DICT|INTERRES
   145   74   75 1    
   146   74  195 1    
   147   75   76 1    
   148   75   77 1    
   149   75  196 1    
   150   76  197 1    
   151   76  198 1    
   152   76  199 1    
   153   77   78 2    
   154   77   79 am   BACKBONE|DICT|INTERRES
   155   79   80 1    
   156   79  200 1    
   157   80   81 1    
   158   80   82 1    
   159   80  201 1    
   160   81  202 1    
   161   81  203 1    
   162   81  204 1    
   163   82   83 2    
   164   82   84 am   BACKBONE|DICT|INTERRES
   165   84   85 1    
   166   84  205 1    
   167   85   86 1    
   168   85   87 1    
   169   85  206 1    
   170   86  207 1    
   171   86  208 1    
   172   86  209 1    
   173   87   88 2    
   174   87   89 am   BACKBONE|DICT|INTERRES
   175   89   90 1    
   176   89  210 1    
   177   90   91 1    
   178   90   92 1    
   179   90  211 1    
   180   91  212 1    
   181   91  213 1    
   182   91  214 1    
   183   92   93 2    
   184   92   94 am   BACKBONE|DICT|INTERRES
   185   94   95 1    
   186   94  215 1    
   187   95   96 1    
   188   95   97 1    
   189   95  216 1    
   190   96  217 1    
   191   96  218 1    
   192   96  219 1    
   193   97   98 2    
   194   97   99 am   BACKBONE|DICT|INTERRES
   195   99  100 1    
   196   99  220 1    
   197  100  101 1    
   198  100  102 1    
   199  100  221 1    
   200  101  222 1    
   201  101  223 1    
   202  101  224 1    
   203  102  103 2    
   204  102  104 am   BACKBONE|DICT|INTERRES
   205  104  105 1    
   206  104  225 1    
   207  105  106 1    
   208  105  107 1    
   209  105  226 1    
   210  106  227 1    
   211  106  228 1    
   212  106  229 1    
   213  107  108 2    
   214  107  109 am   BACKBONE|DICT|INTERRES
   215  109  110 1    
   216  109  230 1    
   217  110  111 1    
   218  110  112 1    
   219  110  231 1    
   220  111  232 1    
   221  111  233 1    
   222  111  234 1    
   223  112  113 2    
   224  112  114 am   BACKBONE|DICT|INTERRES
   225  114  115 1    
   226  114  235 1    
   227  115  116 1    
   228  115  117 1    
   229  115  236 1    
   230  116  237 1    
   231  116  238 1    
   232  116  239 1    
   233  117  118 2    
   234  117  119 am   BACKBONE|DICT|INTERRES
   235  119  120 1    
   236  119  240 1    
   237  120  121 1    
   238  120  124 1    
   239  120  241 1    
   240  121  122 am   BACKBONE|DICT|INTERRES
   241  121  123 2    
   242  122  242 1    
   243  122  243 1    
   244  124  125 1    
   245  124  244 1    
   246  124  245 1    
   247  125  126 1    
   248  126  246 1    
   249  126  247 1    
@<TRIPOS>SUBSTRUCTURE
     1 UNK         1 GROUP             0       ****    0 ROOT    
