@<TRIPOS>MOLECULE
3R540
247   249    1
SMALL
USER_CHARGES


@<TRIPOS>ATOM
      1 CA          0.4247  -12.7973  -47.6481 C.3       0 UNK        -0.1800 
      2 C           1.7813  -12.4370  -48.2346 C.2       0 UNK         0.5000 
      3 O           2.1268  -11.2589  -48.3177 O.2       0 UNK        -0.5000 
      4 N           2.5641  -13.4514  -48.6254 N.am      1 UNK        -0.5000 
      5 CA          3.9022  -13.3114  -49.2172 C.3       1 UNK         0.1400 
      6 C6          4.3636  -14.6129  -49.9252 C.3       23 UNK        -0.0398 
      7 S7          4.8053  -16.0182  -48.8350 S.3       23 UNK        -0.2404 
      8 C8          3.2026  -16.7434  -48.3671 C.3       23 UNK        -0.0205 
      9 C9          2.4296  -17.3127  -49.5454 C.ar      23 UNK        -0.0193 
     10 C10         1.4472  -16.5514  -50.1835 C.ar      23 UNK        -0.1150 
     11 C11         0.6758  -17.0926  -51.2198 C.ar      23 UNK        -0.0193 
     12 C12         0.9070  -18.4170  -51.6048 C.ar      23 UNK        -0.1150 
     13 C13         1.8733  -19.1996  -50.9645 C.ar      23 UNK        -0.0193 
     14 C14         2.6516  -18.6280  -49.9539 C.ar      23 UNK        -0.1150 
     15 C15         2.0495  -20.6637  -51.3627 C.3       23 UNK        -0.0205 
     16 S16         2.2042  -21.8231  -49.9540 S.3       23 UNK        -0.2404 
     17 C17         0.9613  -21.2129  -48.7633 C.3       23 UNK        -0.0398 
     18 CA          0.3941  -22.3319  -47.8557 C.3       11 UNK         0.1400 
     19 N           0.1581  -21.8580  -46.4896 N.am      11 UNK        -0.5000 
     20 C          -0.1441  -22.6494  -45.4509 C.2       10 UNK         0.5000 
     21 O          -0.1886  -23.8784  -45.5171 O.2       10 UNK        -0.5000 
     22 CA         -0.5177  -21.9422  -44.1352 C.3       10 UNK         0.1400 
     23 CB          0.7409  -21.5464  -43.3495 C.3       10 UNK        -0.1800 
     24 N          -1.3544  -20.7608  -44.3602 N.am      10 UNK        -0.5000 
     25 C          -2.5925  -20.8022  -44.8740 C.2       9 UNK         0.5000 
     26 O          -3.1816  -21.8499  -45.1342 O.2       9 UNK        -0.5000 
     27 CA         -3.2670  -19.4577  -45.2010 C.3       9 UNK         0.1400 
     28 CB         -3.9231  -18.8564  -43.9505 C.3       9 UNK        -0.1800 
     29 N          -2.3343  -18.4924  -45.7815 N.am      9 UNK        -0.5000 
     30 C          -1.7529  -18.6182  -46.9821 C.2       8 UNK         0.5000 
     31 O          -1.9968  -19.5295  -47.7725 O.2       8 UNK        -0.5000 
     32 CA         -0.7014  -17.5625  -47.3565 C.3       8 UNK         0.1400 
     33 CB         -1.3701  -16.3421  -47.9985 C.3       8 UNK        -0.1800 
     34 N           0.0960  -17.1391  -46.2061 N.am      8 UNK        -0.5000 
     35 C           1.0110  -17.9098  -45.6019 C.2       7 UNK         0.5000 
     36 O           1.3017  -19.0454  -45.9772 O.2       7 UNK        -0.5000 
     37 CA          1.6762  -17.3264  -44.3421 C.3       7 UNK         0.1400 
     38 CB          2.8183  -16.3683  -44.7141 C.3       7 UNK        -0.1800 
     39 N           0.7155  -16.6268  -43.4886 N.am      7 UNK        -0.5000 
     40 C          -0.2687  -17.2375  -42.8110 C.2       6 UNK         0.5000 
     41 O          -0.4385  -18.4559  -42.8094 O.2       6 UNK        -0.5000 
     42 CA         -1.2603  -16.3390  -42.0462 C.3       6 UNK         0.1400 
     43 CB         -0.7653  -16.0941  -40.6133 C.3       6 UNK        -0.1800 
     44 N          -1.4995  -15.0505  -42.6969 N.am      6 UNK        -0.5000 
     45 C          -1.9686  -14.8805  -43.9417 C.2       5 UNK         0.5000 
     46 O          -2.3173  -15.8103  -44.6681 O.2       5 UNK        -0.5000 
     47 CA         -2.0064  -13.4383  -44.4841 C.3       5 UNK         0.1400 
     48 CB         -3.4361  -12.8814  -44.4309 C.3       5 UNK        -0.1800 
     49 N          -1.1048  -12.5211  -43.7771 N.am      5 UNK        -0.5000 
     50 C           0.2319  -12.6089  -43.7773 C.2       4 UNK         0.5000 
     51 O           0.8621  -13.4846  -44.3759 O.2       4 UNK        -0.5000 
     52 CA          0.9873  -11.5808  -42.9194 C.3       4 UNK         0.1400 
     53 CB          1.6484  -12.2699  -41.7156 C.3       4 UNK        -0.1800 
     54 N           2.0137  -10.9063  -43.7050 N.am      4 UNK        -0.5000 
     55 C           1.7825  -10.0036  -44.6644 C.2       3 UNK         0.5000 
     56 O           0.6628   -9.5612  -44.9241 O.2       3 UNK        -0.5000 
     57 CA          2.9932   -9.5275  -45.4903 C.3       3 UNK         0.1400 
     58 CB          3.7244   -8.3581  -44.8036 C.3       3 UNK        -0.1800 
     59 N           3.9125  -10.6096  -45.8690 N.am      3 UNK        -0.5000 
     60 C           4.7493  -11.3292  -45.1049 C.2       2 UNK         0.5000 
     61 O           4.9031  -11.1342  -43.8985 O.2       2 UNK        -0.5000 
     62 CA          5.4861  -12.4991  -45.7907 C.3       2 UNK         0.1400 
     63 CB          5.7452  -13.6636  -44.8179 C.3       2 UNK        -0.1800 
     64 N           4.7092  -13.0080  -46.9201 N.am      2 UNK        -0.5000 
     65 C           4.9504  -12.7723  -48.2162 C.2       1 UNK         0.5000 
     66 O           5.9176  -12.1323  -48.6297 O.2       1 UNK        -0.5000 
     67 C          -0.8701  -22.9821  -48.4576 C.2       11 UNK         0.5000 
     68 O          -0.7726  -24.0410  -49.0755 O.2       11 UNK        -0.5000 
     69 N          -2.0407  -22.3719  -48.2172 N.am      12 UNK        -0.5000 
     70 CA         -3.3449  -22.8944  -48.6252 C.3       12 UNK         0.1400 
     71 CB         -4.4378  -21.8414  -48.3997 C.3       12 UNK        -0.1800 
     72 C          -3.7035  -24.2073  -47.9178 C.2       12 UNK         0.5000 
     73 O          -4.2059  -25.1183  -48.5712 O.2       12 UNK        -0.5000 
     74 N          -3.4058  -24.3047  -46.6153 N.am      13 UNK        -0.5000 
     75 CA         -3.5699  -25.5221  -45.8207 C.3       13 UNK         0.1400 
     76 CB         -3.2884  -25.2223  -44.3409 C.3       13 UNK        -0.1800 
     77 C          -2.6905  -26.6775  -46.3336 C.2       13 UNK         0.5000 
     78 O          -3.1832  -27.7980  -46.4669 O.2       13 UNK        -0.5000 
     79 N          -1.4291  -26.3733  -46.6735 N.am      14 UNK        -0.5000 
     80 CA         -0.4890  -27.3074  -47.2993 C.3       14 UNK         0.1400 
     81 CB          0.9114  -26.6771  -47.3359 C.3       14 UNK        -0.1800 
     82 C          -0.9308  -27.7539  -48.7086 C.2       14 UNK         0.5000 
     83 O          -0.7530  -28.9203  -49.0606 O.2       14 UNK        -0.5000 
     84 N          -1.5332  -26.8319  -49.4714 N.am      15 UNK        -0.5000 
     85 CA         -2.1171  -27.0702  -50.7936 C.3       15 UNK         0.1400 
     86 CB         -2.1952  -25.7322  -51.5503 C.3       15 UNK        -0.1800 
     87 C          -3.5062  -27.7427  -50.7524 C.2       15 UNK         0.5000 
     88 O          -4.0726  -27.9929  -51.8159 O.2       15 UNK        -0.5000 
     89 N          -4.0554  -27.9886  -49.5526 N.am      16 UNK        -0.5000 
     90 CA         -5.3901  -28.5401  -49.2849 C.3       16 UNK         0.1400 
     91 CB         -5.4656  -30.0181  -49.7204 C.3       16 UNK        -0.1800 
     92 C          -6.5285  -27.6753  -49.8735 C.2       16 UNK         0.5000 
     93 O          -7.5186  -28.2068  -50.3784 O.2       16 UNK        -0.5000 
     94 N          -6.3425  -26.3491  -49.8077 N.am      17 UNK        -0.5000 
     95 CA         -7.2097  -25.2740  -50.2996 C.3       17 UNK         0.1400 
     96 CB         -8.5785  -25.2975  -49.5887 C.3       17 UNK        -0.1800 
     97 C          -7.3410  -25.2040  -51.8368 C.2       17 UNK         0.5000 
     98 O          -8.2048  -24.4795  -52.3337 O.2       17 UNK        -0.5000 
     99 N          -6.4800  -25.9209  -52.5738 N.am      18 UNK        -0.5000 
    100 CA        -6.4590  -25.9297  -54.0394 C.3       18 UNK         0.1400 
    101 CB        -5.8032  -27.2327  -54.5221 C.3       18 UNK        -0.1800 
    102 C         -5.7367  -24.7105  -54.6481 C.2       18 UNK         0.5000 
    103 O         -5.8546  -24.4842  -55.8534 O.2       18 UNK        -0.5000 
    104 N         -4.9941  -23.9592  -53.8273 N.am      19 UNK        -0.5000 
    105 CA        -4.1991  -22.7993  -54.2155 C.3       19 UNK         0.1400 
    106 CB        -2.8583  -23.2753  -54.8116 C.3       19 UNK        -0.1800 
    107 C         -3.9826  -21.8919  -52.9930 C.2       19 UNK         0.5000 
    108 O         -4.4144  -22.2353  -51.8893 O.2       19 UNK        -0.5000 
    109 N         -3.2883  -20.7690  -53.2227 N.am      20 UNK        -0.5000 
    110 CA        -2.8712  -19.7604  -52.2452 C.3       20 UNK         0.1400 
    111 CB        -1.9059  -20.3677  -51.2077 C.3       20 UNK        -0.1800 
    112 C         -4.0538  -18.9822  -51.6297 C.2       20 UNK         0.5000 
    113 O         -5.0087  -18.6806  -52.3482 O.2       20 UNK        -0.5000 
    114 N         -3.9376  -18.6167  -50.3418 N.am      21 UNK        -0.5000 
    115 CA        -4.8595  -17.7700  -49.5708 C.3       21 UNK         0.1400 
    116 CB        -6.2275  -18.4602  -49.3834 C.3       21 UNK        -0.1800 
    117 C         -4.9767  -16.3336  -50.1318 C.2       21 UNK         0.5000 
    118 O         -6.0497  -15.7297  -50.0775 O.2       21 UNK        -0.5000 
    119 N         -3.8632  -15.8186  -50.6690 N.am      22 UNK        -0.5000 
    120 CA        -3.7110  -14.4465  -51.1716 C.3       22 UNK         0.1400 
    121 C         -3.7808  -13.3592  -50.0573 C.2       22 UNK         0.5000 
    122 N         -4.0961  -12.1215  -50.4158 N.am      22 UNK        -0.7600 
    123 O         -3.5319  -13.6140  -48.8809 O.2       22 UNK        -0.5000 
    124 C124       -2.4386  -14.3066  -52.0522 C.3       23 UNK        -0.0398 
    125 S125       -0.8768  -14.7032  -51.1874 S.3       23 UNK        -0.2404 
    126 C126       -0.4220  -16.3051  -51.9424 C.3       23 UNK        -0.0205 
    127 H127       -0.3302  -12.8390  -48.4336 H         1 UNK         0.0600 
    128 H128        0.1173  -12.0497  -46.9166 H         1 UNK         0.0600 
    129 H129        0.4566  -13.7631  -47.1443 H         1 UNK         0.0600 
    130 H130        2.2276  -14.3962  -48.5328 H         1 UNK         0.3000 
    131 H131        3.8142  -12.5502  -49.9958 H         1 UNK         0.0600 
    132 H132        3.6158  -14.9328  -50.6501 H         1 UNK         0.0800 
    133 H133        5.2488  -14.3919  -50.5239 H         1 UNK         0.0800 
    134 H134        2.5986  -16.0172  -47.8257 H         1 UNK         0.0800 
    135 H135        3.3950  -17.5463  -47.6541 H         1 UNK         0.0800 
    136 H136        1.2821  -15.5377  -49.8582 H         1 UNK         0.1150 
    137 H137        0.3159  -18.8477  -52.4005 H         1 UNK         0.1150 
    138 H138        3.4049  -19.2210  -49.4546 H         1 UNK         0.1150 
    139 H139        1.2159  -20.9938  -51.9828 H         1 UNK         0.0800 
    140 H140        2.9415  -20.7499  -51.9840 H         1 UNK         0.0800 
    141 H141        0.1691  -20.6709  -49.2788 H         1 UNK         0.0800 
    142 H142        1.4740  -20.4669  -48.1567 H         1 UNK         0.0800 
    143 H143        1.1465  -23.1191  -47.7695 H         1 UNK         0.0600 
    144 H144        0.2215  -20.8585  -46.3350 H         1 UNK         0.3000 
    145 H145       -1.0885  -22.6482  -43.5287 H         1 UNK         0.0600 
    146 H146        0.4811  -21.1177  -42.3814 H         1 UNK         0.0600 
    147 H147        1.3733  -22.4149  -43.1615 H         1 UNK         0.0600 
    148 H148        1.3407  -20.8130  -43.8888 H         1 UNK         0.0600 
    149 H149       -0.9589  -19.8640  -44.0955 H         1 UNK         0.3000 
    150 H150       -4.0512  -19.6458  -45.9370 H         1 UNK         0.0600 
    151 H151       -4.6870  -19.5258  -43.5532 H         1 UNK         0.0600 
    152 H152       -4.4066  -17.9054  -44.1752 H         1 UNK         0.0600 
    153 H153       -3.1955  -18.6848  -43.1581 H         1 UNK         0.0600 
    154 H154       -2.1392  -17.6580  -45.2361 H         1 UNK         0.3000 
    155 H155       -0.0312  -18.0116  -48.0922 H         1 UNK         0.0600 
    156 H156       -2.1041  -15.8771  -47.3397 H         1 UNK         0.0600 
    157 H157       -1.8853  -16.6294  -48.9132 H         1 UNK         0.0600 
    158 H158       -0.6368  -15.5843  -48.2677 H         1 UNK         0.0600 
    159 H159       -0.1341  -16.2460  -45.7955 H         1 UNK         0.3000 
    160 H160        2.0993  -18.1562  -43.7719 H         1 UNK         0.0600 
    161 H161        2.4638  -15.5220  -45.3034 H         1 UNK         0.0600 
    162 H162        3.5852  -16.8801  -45.2962 H         1 UNK         0.0600 
    163 H163        3.3028  -15.9724  -43.8215 H         1 UNK         0.0600 
    164 H164        0.7713  -15.6164  -43.4733 H         1 UNK         0.3000 
    165 H165       -2.2149  -16.8648  -41.9936 H         1 UNK         0.0600 
    166 H166       -1.4964  -15.5302  -40.0337 H         1 UNK         0.0600 
    167 H167       -0.5973  -17.0375  -40.0919 H         1 UNK         0.0600 
    168 H168        0.1742  -15.5399  -40.6007 H         1 UNK         0.0600 
    169 H169       -1.2476  -14.2269  -42.1718 H         1 UNK         0.3000 
    170 H170       -1.6951  -13.4786  -45.5300 H         1 UNK         0.0600 
    171 H171       -4.1263  -13.5268  -44.9764 H         1 UNK         0.0600 
    172 H172       -3.8003  -12.8018  -43.4059 H         1 UNK         0.0600 
    173 H173       -3.4914  -11.8927  -44.8868 H         1 UNK         0.0600 
    174 H174       -1.5451  -11.7714  -43.2629 H         1 UNK         0.3000 
    175 H175        0.2860  -10.8313  -42.5464 H         1 UNK         0.0600 
    176 H176        2.3792  -13.0168  -42.0296 H         1 UNK         0.0600 
    177 H177        2.1619  -11.5470  -41.0814 H         1 UNK         0.0600 
    178 H178        0.9063  -12.7757  -41.0967 H         1 UNK         0.0600 
    179 H179        2.9734  -11.2047  -43.5655 H         1 UNK         0.3000 
    180 H180        2.5936   -9.1485  -46.4323 H         1 UNK         0.0600 
    181 H181        4.1118   -8.6338  -43.8226 H         1 UNK         0.0600 
    182 H182        3.0492   -7.5142  -44.6575 H         1 UNK         0.0600 
    183 H183        4.5596   -8.0053  -45.4085 H         1 UNK         0.0600 
    184 H184        3.8169  -10.8997  -46.8342 H         1 UNK         0.3000 
    185 H185        6.4507  -12.1188  -46.1323 H         1 UNK         0.0600 
    186 H186        6.4005  -13.3566  -44.0019 H         1 UNK         0.0600 
    187 H187        4.8184  -14.0305  -44.3758 H         1 UNK         0.0600 
    188 H188        6.2293  -14.4995  -45.3233 H         1 UNK         0.0600 
    189 H189        3.8731  -13.5221  -46.6841 H         1 UNK         0.3000 
    190 H190       -2.0379  -21.4698  -47.7517 H         1 UNK         0.3000 
    191 H191       -3.2927  -23.1049  -49.6937 H         1 UNK         0.0600 
    192 H192       -4.5913  -21.6283  -47.3429 H         1 UNK         0.0600 
    193 H193       -5.3906  -22.1798  -48.8084 H         1 UNK         0.0600 
    194 H194       -4.1882  -20.9067  -48.8959 H         1 UNK         0.0600 
    195 H195       -3.0622  -23.4801  -46.1306 H         1 UNK         0.3000 
    196 H196       -4.6124  -25.8349  -45.9089 H         1 UNK         0.0600 
    197 H197       -3.4515  -26.1084  -43.7264 H         1 UNK         0.0600 
    198 H198       -3.9477  -24.4394  -43.9656 H         1 UNK         0.0600 
    199 H199       -2.2607  -24.8976  -44.1809 H         1 UNK         0.0600 
    200 H200       -1.0910  -25.4321  -46.4985 H         1 UNK         0.3000 
    201 H201       -0.4410  -28.1994  -46.6714 H         1 UNK         0.0600 
    202 H202        1.2521  -26.4154  -46.3339 H         1 UNK         0.0600 
    203 H203        0.9319  -25.7712  -47.9418 H         1 UNK         0.0600 
    204 H204        1.6402  -27.3702  -47.7577 H         1 UNK         0.0600 
    205 H205       -1.5693  -25.8754  -49.1326 H         1 UNK         0.3000 
    206 H206       -1.4542  -27.7349  -51.3510 H         1 UNK         0.0600 
    207 H207       -1.2163  -25.2573  -51.6178 H         1 UNK         0.0600 
    208 H208       -2.5553  -25.8762  -52.5698 H         1 UNK         0.0600 
    209 H209       -2.8731  -25.0329  -51.0611 H         1 UNK         0.0600 
    210 H210       -3.5312  -27.7104  -48.7328 H         1 UNK         0.3000 
    211 H211       -5.5174  -28.5092  -48.2019 H         1 UNK         0.0600 
    212 H212       -5.4024  -30.1259  -50.8036 H         1 UNK         0.0600 
    213 H213       -6.4043  -30.4723  -49.4011 H         1 UNK         0.0600 
    214 H214       -4.6575  -30.6004  -49.2775 H         1 UNK         0.0600 
    215 H215       -5.4814  -26.0198  -49.3690 H         1 UNK         0.3000 
    216 H216       -6.7115  -24.3476  -50.0096 H         1 UNK         0.0600 
    217 H217       -9.1579  -24.4041  -49.8241 H         1 UNK         0.0600 
    218 H218       -8.4596  -25.3278  -48.5057 H         1 UNK         0.0600 
    219 H219       -9.1758  -26.1596  -49.8863 H         1 UNK         0.0600 
    220 H220       -5.8035  -26.5126  -52.1073 H         1 UNK         0.3000 
    221 H221       -7.4881  -25.9183  -54.4048 H         1 UNK         0.0600 
    222 H222       -4.7422  -27.2646  -54.2725 H         1 UNK         0.0600 
    223 H223       -6.2804  -28.1066  -54.0779 H         1 UNK         0.0600 
    224 H224       -5.8851  -27.3321  -55.6051 H         1 UNK         0.0600 
    225 H225       -4.9996  -24.1496  -52.8339 H         1 UNK         0.3000 
    226 H226       -4.7480  -22.2219  -54.9623 H         1 UNK         0.0600 
    227 H227       -3.0138  -23.9382  -55.6628 H         1 UNK         0.0600 
    228 H228       -2.2585  -22.4376  -55.1683 H         1 UNK         0.0600 
    229 H229       -2.2629  -23.8148  -54.0742 H         1 UNK         0.0600 
    230 H230       -3.0216  -20.5691  -54.1761 H         1 UNK         0.3000 
    231 H231       -2.3050  -19.0235  -52.8157 H         1 UNK         0.0600 
    232 H232       -1.1024  -20.9185  -51.6940 H         1 UNK         0.0600 
    233 H233       -2.4182  -21.0595  -50.5458 H         1 UNK         0.0600 
    234 H234       -1.4464  -19.5966  -50.5900 H         1 UNK         0.0600 
    235 H235       -3.1311  -18.9490  -49.8285 H         1 UNK         0.3000 
    236 H236       -4.4143  -17.6655  -48.5802 H         1 UNK         0.0600 
    237 H237       -6.8610  -17.8925  -48.7011 H         1 UNK         0.0600 
    238 H238       -6.7674  -18.5552  -50.3257 H         1 UNK         0.0600 
    239 H239       -6.1152  -19.4574  -48.9602 H         1 UNK         0.0600 
    240 H240       -3.0196  -16.3675  -50.6433 H         1 UNK         0.3000 
    241 H241       -4.5687  -14.2663  -51.8227 H         1 UNK         0.0600 
    242 H242       -4.1364  -11.4062  -49.7066 H         1 UNK         0.3800 
    243 H243       -4.3059  -11.8800  -51.3719 H         1 UNK         0.3800 
    244 H244       -2.5339  -14.9444  -52.9319 H         1 UNK         0.0800 
    245 H245       -2.3587  -13.2914  -52.4441 H         1 UNK         0.0800 
    246 H246       -0.1053  -16.1270  -52.9710 H         1 UNK         0.0800 
    247 H247       -1.3155  -16.9268  -51.9940 H         1 UNK         0.0800 
@<TRIPOS>BOND
     1    1    2 1    
     2    1  127 1    
     3    1  128 1    
     4    1  129 1    
     5    2    3 2    
     6    2    4 am   BACKBONE|DICT|INTERRES
     7    4    5 1    
     8    4  130 1    
     9    5    6 1    
    10    5   65 1    
    11    5  131 1    
    12    6    7 1    
    13    6  132 1    
    14    6  133 1    
    15    7    8 1    
    16    8    9 1    
    17    8  134 1    
    18    8  135 1    
    19    9   10 ar   
    20    9   14 ar   
    21   10   11 ar   
    22   10  136 1    
    23   11   12 ar   
    24   11  126 1    
    25   12   13 ar   
    26   12  137 1    
    27   13   14 ar   
    28   13   15 1    
    29   14  138 1    
    30   15   16 1    
    31   15  139 1    
    32   15  140 1    
    33   16   17 1    
    34   17   18 1    
    35   17  141 1    
    36   17  142 1    
    37   18   19 1    
    38   18   67 1    
    39   18  143 1    
    40   19   20 am   BACKBONE|DICT|INTERRES
    41   19  144 1    
    42   20   21 2    
    43   20   22 1    
    44   22   23 1    
    45   22   24 1    
    46   22  145 1    
    47   23  146 1    
    48   23  147 1    
    49   23  148 1    
    50   24   25 am   BACKBONE|DICT|INTERRES
    51   24  149 1    
    52   25   26 2    
    53   25   27 1    
    54   27   28 1    
    55   27   29 1    
    56   27  150 1    
    57   28  151 1    
    58   28  152 1    
    59   28  153 1    
    60   29   30 am   BACKBONE|DICT|INTERRES
    61   29  154 1    
    62   30   31 2    
    63   30   32 1    
    64   32   33 1    
    65   32   34 1    
    66   32  155 1    
    67   33  156 1    
    68   33  157 1    
    69   33  158 1    
    70   34   35 am   BACKBONE|DICT|INTERRES
    71   34  159 1    
    72   35   36 2    
    73   35   37 1    
    74   37   38 1    
    75   37   39 1    
    76   37  160 1    
    77   38  161 1    
    78   38  162 1    
    79   38  163 1    
    80   39   40 am   BACKBONE|DICT|INTERRES
    81   39  164 1    
    82   40   41 2    
    83   40   42 1    
    84   42   43 1    
    85   42   44 1    
    86   42  165 1    
    87   43  166 1    
    88   43  167 1    
    89   43  168 1    
    90   44   45 am   BACKBONE|DICT|INTERRES
    91   44  169 1    
    92   45   46 2    
    93   45   47 1    
    94   47   48 1    
    95   47   49 1    
    96   47  170 1    
    97   48  171 1    
    98   48  172 1    
    99   48  173 1    
   100   49   50 am   BACKBONE|DICT|INTERRES
   101   49  174 1    
   102   50   51 2    
   103   50   52 1    
   104   52   53 1    
   105   52   54 1    
   106   52  175 1    
   107   53  176 1    
   108   53  177 1    
   109   53  178 1    
   110   54   55 am   BACKBONE|DICT|INTERRES
   111   54  179 1    
   112   55   56 2    
   113   55   57 1    
   114   57   58 1    
   115   57   59 1    
   116   57  180 1    
   117   58  181 1    
   118   58  182 1    
   119   58  183 1    
   120   59   60 am   BACKBONE|DICT|INTERRES
   121   59  184 1    
   122   60   61 2    
   123   60   62 1    
   124   62   63 1    
   125   62   64 1    
   126   62  185 1    
   127   63  186 1    
   128   63  187 1    
   129   63  188 1    
   130   64   65 am   BACKBONE|DICT|INTERRES
   131   64  189 1    
   132   65   66 2    
   133   67   68 2    
   134   67   69 am   BACKBONE|DICT|INTERRES
   135   69   70 1    
   136   69  190 1    
   137   70   71 1    
   138   70   72 1    
   139   70  191 1    
   140   71  192 1    
   141   71  193 1    
   142   71  194 1    
   143   72   73 2    
   144   72   74 am   BACKBONE|DICT|INTERRES
   145   74   75 1    
   146   74  195 1    
   147   75   76 1    
   148   75   77 1    
   149   75  196 1    
   150   76  197 1    
   151   76  198 1    
   152   76  199 1    
   153   77   78 2    
   154   77   79 am   BACKBONE|DICT|INTERRES
   155   79   80 1    
   156   79  200 1    
   157   80   81 1    
   158   80   82 1    
   159   80  201 1    
   160   81  202 1    
   161   81  203 1    
   162   81  204 1    
   163   82   83 2    
   164   82   84 am   BACKBONE|DICT|INTERRES
   165   84   85 1    
   166   84  205 1    
   167   85   86 1    
   168   85   87 1    
   169   85  206 1    
   170   86  207 1    
   171   86  208 1    
   172   86  209 1    
   173   87   88 2    
   174   87   89 am   BACKBONE|DICT|INTERRES
   175   89   90 1    
   176   89  210 1    
   177   90   91 1    
   178   90   92 1    
   179   90  211 1    
   180   91  212 1    
   181   91  213 1    
   182   91  214 1    
   183   92   93 2    
   184   92   94 am   BACKBONE|DICT|INTERRES
   185   94   95 1    
   186   94  215 1    
   187   95   96 1    
   188   95   97 1    
   189   95  216 1    
   190   96  217 1    
   191   96  218 1    
   192   96  219 1    
   193   97   98 2    
   194   97   99 am   BACKBONE|DICT|INTERRES
   195   99  100 1    
   196   99  220 1    
   197  100  101 1    
   198  100  102 1    
   199  100  221 1    
   200  101  222 1    
   201  101  223 1    
   202  101  224 1    
   203  102  103 2    
   204  102  104 am   BACKBONE|DICT|INTERRES
   205  104  105 1    
   206  104  225 1    
   207  105  106 1    
   208  105  107 1    
   209  105  226 1    
   210  106  227 1    
   211  106  228 1    
   212  106  229 1    
   213  107  108 2    
   214  107  109 am   BACKBONE|DICT|INTERRES
   215  109  110 1    
   216  109  230 1    
   217  110  111 1    
   218  110  112 1    
   219  110  231 1    
   220  111  232 1    
   221  111  233 1    
   222  111  234 1    
   223  112  113 2    
   224  112  114 am   BACKBONE|DICT|INTERRES
   225  114  115 1    
   226  114  235 1    
   227  115  116 1    
   228  115  117 1    
   229  115  236 1    
   230  116  237 1    
   231  116  238 1    
   232  116  239 1    
   233  117  118 2    
   234  117  119 am   BACKBONE|DICT|INTERRES
   235  119  120 1    
   236  119  240 1    
   237  120  121 1    
   238  120  124 1    
   239  120  241 1    
   240  121  122 am   BACKBONE|DICT|INTERRES
   241  121  123 2    
   242  122  242 1    
   243  122  243 1    
   244  124  125 1    
   245  124  244 1    
   246  124  245 1    
   247  125  126 1    
   248  126  246 1    
   249  126  247 1    
@<TRIPOS>SUBSTRUCTURE
     1 UNK         1 GROUP             0       ****    0 ROOT    
