@<TRIPOS>MOLECULE
3R540
247   249    1
SMALL
USER_CHARGES


@<TRIPOS>ATOM
      1 CA          3.1161  -16.5292  -46.8585 C.3       0 UNK        -0.1800 
      2 C           2.1116  -15.4945  -46.3802 C.2       0 UNK         0.5000 
      3 O           2.3380  -14.8445  -45.3609 O.2       0 UNK        -0.5000 
      4 N           1.0200  -15.3063  -47.1334 N.am      1 UNK        -0.5000 
      5 CA         -0.0609  -14.3574  -46.8242 C.3       1 UNK         0.1400 
      6 C6         -1.2932  -14.5596  -47.7383 C.3       23 UNK        -0.0398 
      7 S7         -2.1105  -16.1575  -47.4121 S.3       23 UNK        -0.2404 
      8 C8         -2.5743  -16.7103  -49.0865 C.3       23 UNK        -0.0205 
      9 C9         -1.4277  -17.2539  -49.9380 C.ar      23 UNK        -0.0193 
     10 C10        -1.5247  -17.1653  -51.3298 C.ar      23 UNK        -0.1150 
     11 C11        -0.5274  -17.6948  -52.1536 C.ar      23 UNK        -0.0193 
     12 C12         0.5789  -18.3201  -51.5759 C.ar      23 UNK        -0.1150 
     13 C13         0.6947  -18.4167  -50.1873 C.ar      23 UNK        -0.0193 
     14 C14        -0.3098  -17.8826  -49.3741 C.ar      23 UNK        -0.1150 
     15 C15         1.9110  -19.0949  -49.5775 C.3       23 UNK        -0.0205 
     16 S16         1.5609  -20.8145  -49.1083 S.3       23 UNK        -0.2404 
     17 C17         1.0735  -20.6024  -47.3633 C.3       23 UNK        -0.0398 
     18 CA          0.7563  -21.9519  -46.6830 C.3       11 UNK         0.1400 
     19 N           0.9516  -21.9018  -45.2333 N.am      11 UNK        -0.5000 
     20 C           1.0088  -22.9824  -44.4428 C.2       10 UNK         0.5000 
     21 O           0.9217  -24.1374  -44.8597 O.2       10 UNK        -0.5000 
     22 CA          1.1501  -22.7308  -42.9309 C.3       10 UNK         0.1400 
     23 CB          2.6037  -22.3974  -42.5634 C.3       10 UNK        -0.1800 
     24 N           0.2638  -21.6678  -42.4569 N.am      10 UNK        -0.5000 
     25 C          -1.0750  -21.7411  -42.4696 C.2       9 UNK         0.5000 
     26 O          -1.7029  -22.7368  -42.8314 O.2       9 UNK        -0.5000 
     27 CA         -1.8438  -20.4799  -42.0366 C.3       9 UNK         0.1400 
     28 CB         -1.9396  -20.3999  -40.5058 C.3       9 UNK        -0.1800 
     29 N          -1.2586  -19.2422  -42.5532 N.am      9 UNK        -0.5000 
     30 C          -1.1417  -18.9313  -43.8528 C.2       8 UNK         0.5000 
     31 O          -1.5094  -19.6598  -44.7723 O.2       8 UNK        -0.5000 
     32 CA         -0.4436  -17.6012  -44.1780 C.3       8 UNK         0.1400 
     33 CB         -1.3484  -16.4171  -43.7965 C.3       8 UNK        -0.1800 
     34 N           0.8442  -17.4815  -43.4958 N.am      8 UNK        -0.5000 
     35 C           1.8704  -18.3366  -43.6135 C.2       7 UNK         0.5000 
     36 O           1.8760  -19.3010  -44.3775 O.2       7 UNK        -0.5000 
     37 CA          3.0675  -18.1150  -42.6732 C.3       7 UNK         0.1400 
     38 CB          4.0401  -17.0680  -43.2343 C.3       7 UNK        -0.1800 
     39 N           2.6392  -17.7192  -41.3326 N.am      7 UNK        -0.5000 
     40 C           1.9979  -18.5245  -40.4740 C.2       6 UNK         0.5000 
     41 O           1.7367  -19.7053  -40.7050 O.2       6 UNK        -0.5000 
     42 CA          1.5334  -17.8824  -39.1544 C.3       6 UNK         0.1400 
     43 CB          2.6909  -17.8077  -38.1474 C.3       6 UNK        -0.1800 
     44 N           0.9782  -16.5431  -39.3593 N.am      6 UNK        -0.5000 
     45 C          -0.1706  -16.2981  -40.0050 C.2       5 UNK         0.5000 
     46 O          -0.9071  -17.1832  -40.4402 O.2       5 UNK        -0.5000 
     47 CA         -0.5377  -14.8187  -40.2381 C.3       5 UNK         0.1400 
     48 CB         -1.3496  -14.2732  -39.0541 C.3       5 UNK        -0.1800 
     49 N           0.6250  -13.9538  -40.4697 N.am      5 UNK        -0.5000 
     50 C           1.4637  -14.0716  -41.5074 C.2       4 UNK         0.5000 
     51 O           1.3560  -14.9390  -42.3733 O.2       4 UNK        -0.5000 
     52 CA          2.6550  -13.1089  -41.5435 C.3       4 UNK         0.1400 
     53 CB          3.7481  -13.6013  -40.5722 C.3       4 UNK        -0.1800 
     54 N           3.1898  -13.0258  -42.9034 N.am      4 UNK        -0.5000 
     55 C           4.0681  -12.1032  -43.3173 C.2       3 UNK         0.5000 
     56 O           4.4506  -11.1637  -42.6179 O.2       3 UNK        -0.5000 
     57 CA          4.6268  -12.2505  -44.7400 C.3       3 UNK         0.1400 
     58 CB          5.4492  -13.5428  -44.8877 C.3       3 UNK        -0.1800 
     59 N           3.5660  -12.2198  -45.7447 N.am      3 UNK        -0.5000 
     60 C           3.1718  -11.1142  -46.3944 C.2       2 UNK         0.5000 
     61 O           3.6186   -9.9919  -46.1526 O.2       2 UNK        -0.5000 
     62 CA          2.1393  -11.2691  -47.5317 C.3       2 UNK         0.1400 
     63 CB          2.8147  -11.0621  -48.8972 C.3       2 UNK        -0.1800 
     64 N           1.4828  -12.5755  -47.5358 N.am      2 UNK        -0.5000 
     65 C           0.3957  -12.8816  -46.8166 C.2       1 UNK         0.5000 
     66 O          -0.2252  -12.0608  -46.1400 O.2       1 UNK        -0.5000 
     67 C          -0.6480  -22.4652  -47.0584 C.2       11 UNK         0.5000 
     68 O          -0.7580  -23.2971  -47.9566 O.2       11 UNK        -0.5000 
     69 N          -1.6834  -22.0221  -46.3295 N.am      12 UNK        -0.5000 
     70 CA         -3.0816  -22.4309  -46.5060 C.3       12 UNK         0.1400 
     71 CB         -3.9772  -21.5944  -45.5799 C.3       12 UNK        -0.1800 
     72 C          -3.3387  -23.9377  -46.2888 C.2       12 UNK         0.5000 
     73 O          -4.3340  -24.4614  -46.7905 O.2       12 UNK        -0.5000 
     74 N          -2.4450  -24.6109  -45.5525 N.am      13 UNK        -0.5000 
     75 CA         -2.4547  -26.0601  -45.3636 C.3       13 UNK         0.1400 
     76 CB         -1.7588  -26.3891  -44.0336 C.3       13 UNK        -0.1800 
     77 C          -1.7856  -26.8212  -46.5277 C.2       13 UNK         0.5000 
     78 O          -2.0279  -28.0207  -46.6692 O.2       13 UNK        -0.5000 
     79 N          -0.9506  -26.1375  -47.3227 N.am      14 UNK        -0.5000 
     80 CA         -0.1737  -26.7167  -48.4194 C.3       14 UNK         0.1400 
     81 CB          1.2617  -26.1691  -48.3564 C.3       14 UNK        -0.1800 
     82 C          -0.8018  -26.4198  -49.7917 C.2       14 UNK         0.5000 
     83 O          -0.8436  -27.3103  -50.6418 O.2       14 UNK        -0.5000 
     84 N          -1.2759  -25.1849  -49.9850 N.am      15 UNK        -0.5000 
     85 CA         -1.9238  -24.6923  -51.1967 C.3       15 UNK         0.1400 
     86 CB         -0.9903  -23.6811  -51.8820 C.3       15 UNK        -0.1800 
     87 C          -3.2458  -24.0191  -50.8103 C.2       15 UNK         0.5000 
     88 O          -3.3575  -23.4767  -49.7117 O.2       15 UNK        -0.5000 
     89 N          -4.2218  -24.0220  -51.7249 N.am      16 UNK        -0.5000 
     90 CA         -5.5848  -23.5188  -51.5146 C.3       16 UNK         0.1400 
     91 CB         -6.5189  -24.1827  -52.5413 C.3       16 UNK        -0.1800 
     92 C          -5.7156  -21.9760  -51.5030 C.2       16 UNK         0.5000 
     93 O          -6.6730  -21.4456  -52.0672 O.2       16 UNK        -0.5000 
     94 N          -4.7588  -21.2905  -50.8598 N.am      17 UNK        -0.5000 
     95 CA         -4.7450  -19.8775  -50.4509 C.3       17 UNK         0.1400 
     96 CB         -5.5453  -19.7321  -49.1409 C.3       17 UNK        -0.1800 
     97 C          -5.1867  -18.8581  -51.5271 C.2       17 UNK         0.5000 
     98 O          -5.8812  -17.8911  -51.2114 O.2       17 UNK        -0.5000 
     99 N          -4.7952  -19.1143  -52.7829 N.am      18 UNK        -0.5000 
    100 CA        -5.1414  -18.3711  -54.0029 C.3       18 UNK         0.1400 
    101 CB        -4.6369  -16.9142  -53.9432 C.3       18 UNK        -0.1800 
    102 C         -6.6274  -18.4462  -54.4240 C.2       18 UNK         0.5000 
    103 O         -7.0096  -17.7754  -55.3841 O.2       18 UNK        -0.5000 
    104 N         -7.4417  -19.2628  -53.7415 N.am      19 UNK        -0.5000 
    105 CA        -8.8483  -19.4948  -54.0753 C.3       19 UNK         0.1400 
    106 CB        -9.6144  -19.8989  -52.8061 C.3       19 UNK        -0.1800 
    107 C         -8.9993  -20.5696  -55.1659 C.2       19 UNK         0.5000 
    108 O         -9.9044  -20.4729  -55.9955 O.2       19 UNK        -0.5000 
    109 N         -8.1000  -21.5604  -55.1534 N.am      20 UNK        -0.5000 
    110 CA        -8.0228  -22.6530  -56.1234 C.3       20 UNK         0.1400 
    111 CB        -8.9495  -23.8053  -55.6894 C.3       20 UNK        -0.1800 
    112 C         -6.5570  -23.0870  -56.3069 C.2       20 UNK         0.5000 
    113 O         -6.2699  -24.2783  -56.4338 O.2       20 UNK        -0.5000 
    114 N         -5.6471  -22.1082  -56.2784 N.am      21 UNK        -0.5000 
    115 CA        -4.1992  -22.2682  -56.3571 C.3       21 UNK         0.1400 
    116 CB        -3.6530  -22.7236  -54.9876 C.3       21 UNK        -0.1800 
    117 C         -3.5818  -20.9340  -56.8074 C.2       21 UNK         0.5000 
    118 O         -4.3186  -19.9846  -57.0876 O.2       21 UNK        -0.5000 
    119 N         -2.2448  -20.8814  -56.8467 N.am      22 UNK        -0.5000 
    120 CA        -1.4284  -19.6821  -57.1238 C.3       22 UNK         0.1400 
    121 C         -1.4684  -19.1869  -58.6032 C.2       22 UNK         0.5000 
    122 N         -1.9629  -19.9724  -59.5521 N.am      22 UNK        -0.7600 
    123 O         -1.0140  -18.0870  -58.9072 O.2       22 UNK        -0.5000 
    124 C124       -1.6674  -18.5260  -56.1076 C.3       23 UNK        -0.0398 
    125 S125       -1.4780  -19.0450  -54.3650 S.3       23 UNK        -0.2404 
    126 C126       -0.6404  -17.5905  -53.6657 C.3       23 UNK        -0.0205 
    127 H127        2.8352  -17.5207  -46.5043 H         1 UNK         0.0600 
    128 H128        4.1107  -16.2975  -46.4776 H         1 UNK         0.0600 
    129 H129        3.1729  -16.5430  -47.9465 H         1 UNK         0.0600 
    130 H130        0.8875  -15.8590  -47.9677 H         1 UNK         0.3000 
    131 H131       -0.3744  -14.5595  -45.8015 H         1 UNK         0.0600 
    132 H132       -2.0372  -13.7787  -47.5695 H         1 UNK         0.0800 
    133 H133       -1.0070  -14.4905  -48.7892 H         1 UNK         0.0800 
    134 H134       -3.0722  -15.8860  -49.5999 H         1 UNK         0.0800 
    135 H135       -3.3187  -17.4991  -48.9833 H         1 UNK         0.0800 
    136 H136       -2.3870  -16.6896  -51.7735 H         1 UNK         0.1150 
    137 H137        1.3489  -18.7360  -52.2106 H         1 UNK         0.1150 
    138 H138       -0.2240  -17.9698  -48.3019 H         1 UNK         0.1150 
    139 H139        2.7380  -19.0909  -50.2892 H         1 UNK         0.0800 
    140 H140        2.2590  -18.5366  -48.7107 H         1 UNK         0.0800 
    141 H141        0.2352  -19.9107  -47.2765 H         1 UNK         0.0800 
    142 H142        1.9153  -20.1250  -46.8610 H         1 UNK         0.0800 
    143 H143        1.4735  -22.6875  -47.0551 H         1 UNK         0.0600 
    144 H144        1.0688  -20.9799  -44.8205 H         1 UNK         0.3000 
    145 H145        0.8735  -23.6521  -42.4139 H         1 UNK         0.0600 
    146 H146        2.7222  -22.2890  -41.4852 H         1 UNK         0.0600 
    147 H147        3.2796  -23.1897  -42.8874 H         1 UNK         0.0600 
    148 H148        2.9362  -21.4704  -43.0306 H         1 UNK         0.0600 
    149 H149        0.7066  -20.8295  -42.0957 H         1 UNK         0.3000 
    150 H150       -2.8567  -20.5570  -42.4366 H         1 UNK         0.0600 
    151 H151       -2.3855  -21.3058  -40.0933 H         1 UNK         0.0600 
    152 H152       -2.5607  -19.5600  -40.1938 H         1 UNK         0.0600 
    153 H153       -0.9579  -20.2767  -40.0470 H         1 UNK         0.0600 
    154 H154       -0.9478  -18.5665  -41.8612 H         1 UNK         0.3000 
    155 H155       -0.2505  -17.5620  -45.2518 H         1 UNK         0.0600 
    156 H156       -1.7361  -16.5047  -42.7833 H         1 UNK         0.0600 
    157 H157       -2.2114  -16.3599  -44.4593 H         1 UNK         0.0600 
    158 H158       -0.8196  -15.4681  -43.8563 H         1 UNK         0.0600 
    159 H159        0.9699  -16.6586  -42.9109 H         1 UNK         0.3000 
    160 H160        3.6046  -19.0621  -42.5916 H         1 UNK         0.0600 
    161 H161        3.5730  -16.0879  -43.3218 H         1 UNK         0.0600 
    162 H162        4.3919  -17.3554  -44.2253 H         1 UNK         0.0600 
    163 H163        4.9178  -16.9628  -42.5966 H         1 UNK         0.0600 
    164 H164        2.7623  -16.7492  -41.0866 H         1 UNK         0.3000 
    165 H165        0.7521  -18.5172  -38.7307 H         1 UNK         0.0600 
    166 H166        2.3519  -17.4218  -37.1859 H         1 UNK         0.0600 
    167 H167        3.1155  -18.7965  -37.9682 H         1 UNK         0.0600 
    168 H168        3.4964  -17.1638  -38.5027 H         1 UNK         0.0600 
    169 H169        1.5209  -15.7618  -39.0230 H         1 UNK         0.3000 
    170 H170       -1.1665  -14.7732  -41.1292 H         1 UNK         0.0600 
    171 H171       -2.2342  -14.8852  -38.8727 H         1 UNK         0.0600 
    172 H172       -0.7638  -14.2619  -38.1341 H         1 UNK         0.0600 
    173 H173       -1.6938  -13.2568  -39.2465 H         1 UNK         0.0600 
    174 H174        0.7854  -13.2253  -39.7888 H         1 UNK         0.3000 
    175 H175        2.3056  -12.1206  -41.2382 H         1 UNK         0.0600 
    176 H176        4.1503  -14.5674  -40.8800 H         1 UNK         0.0600 
    177 H177        4.5797  -12.8994  -40.5136 H         1 UNK         0.0600 
    178 H178        3.3588  -13.7142  -39.5598 H         1 UNK         0.0600 
    179 H179        2.8615  -13.7475  -43.5405 H         1 UNK         0.3000 
    180 H180        5.3138  -11.4187  -44.9109 H         1 UNK         0.0600 
    181 H181        6.2670  -13.5662  -44.1666 H         1 UNK         0.0600 
    182 H182        5.8908  -13.6153  -45.8816 H         1 UNK         0.0600 
    183 H183        4.8487  -14.4369  -44.7253 H         1 UNK         0.0600 
    184 H184        3.0883  -13.0980  -45.9146 H         1 UNK         0.3000 
    185 H185        1.3901  -10.4847  -47.4040 H         1 UNK         0.0600 
    186 H186        3.2887  -10.0814  -48.9557 H         1 UNK         0.0600 
    187 H187        3.5858  -11.8109  -49.0828 H         1 UNK         0.0600 
    188 H188        2.0888  -11.1184  -49.7086 H         1 UNK         0.0600 
    189 H189        1.9335  -13.3093  -48.0626 H         1 UNK         0.3000 
    190 H190       -1.5168  -21.3015  -45.6299 H         1 UNK         0.3000 
    191 H191       -3.3604  -22.1943  -47.5326 H         1 UNK         0.0600 
    192 H192       -3.7167  -21.7410  -44.5316 H         1 UNK         0.0600 
    193 H193       -5.0270  -21.8650  -45.6999 H         1 UNK         0.0600 
    194 H194       -3.8914  -20.5309  -45.8036 H         1 UNK         0.0600 
    195 H195       -1.6732  -24.1019  -45.1424 H         1 UNK         0.3000 
    196 H196       -3.4886  -26.4048  -45.2945 H         1 UNK         0.0600 
    197 H197       -1.8050  -27.4582  -43.8229 H         1 UNK         0.0600 
    198 H198       -2.2351  -25.8720  -43.2002 H         1 UNK         0.0600 
    199 H199       -0.7069  -26.1035  -44.0470 H         1 UNK         0.0600 
    200 H200       -0.8547  -25.1371  -47.1892 H         1 UNK         0.3000 
    201 H201       -0.1178  -27.8015  -48.3075 H         1 UNK         0.0600 
    202 H202        1.7335  -26.4128  -47.4043 H         1 UNK         0.0600 
    203 H203        1.2885  -25.0850  -48.4730 H         1 UNK         0.0600 
    204 H204        1.8787  -26.5996  -49.1461 H         1 UNK         0.0600 
    205 H205       -1.2290  -24.5080  -49.2239 H         1 UNK         0.3000 
    206 H206       -2.1386  -25.5130  -51.8839 H         1 UNK         0.0600 
    207 H207       -0.7542  -22.8430  -51.2239 H         1 UNK         0.0600 
    208 H208       -0.0505  -24.1498  -52.1740 H         1 UNK         0.0600 
    209 H209       -1.4451  -23.2723  -52.7847 H         1 UNK         0.0600 
    210 H210       -4.0457  -24.4569  -52.6183 H         1 UNK         0.3000 
    211 H211       -5.9115  -23.8506  -50.5268 H         1 UNK         0.0600 
    212 H212       -6.2584  -23.8970  -53.5585 H         1 UNK         0.0600 
    213 H213       -7.5588  -23.8990  -52.3741 H         1 UNK         0.0600 
    214 H214       -6.4700  -25.2697  -52.4758 H         1 UNK         0.0600 
    215 H215       -4.0347  -21.8645  -50.4357 H         1 UNK         0.3000 
    216 H216       -3.7035  -19.6403  -50.2289 H         1 UNK         0.0600 
    217 H217       -5.4744  -18.7209  -48.7390 H         1 UNK         0.0600 
    218 H218       -5.1701  -20.4087  -48.3730 H         1 UNK         0.0600 
    219 H219       -6.6025  -19.9526  -49.2938 H         1 UNK         0.0600 
    220 H220       -4.2305  -19.9390  -52.9266 H         1 UNK         0.3000 
    221 H221       -4.5890  -18.8642  -54.7995 H         1 UNK         0.0600 
    222 H222       -5.1700  -16.3250  -53.1972 H         1 UNK         0.0600 
    223 H223       -3.5759  -16.8753  -53.7096 H         1 UNK         0.0600 
    224 H224       -4.7670  -16.4151  -54.9039 H         1 UNK         0.0600 
    225 H225       -7.0616  -19.8224  -52.9826 H         1 UNK         0.3000 
    226 H226       -9.2877  -18.5679  -54.4504 H         1 UNK         0.0600 
    227 H227       -9.5158  -19.1414  -52.0285 H         1 UNK         0.0600 
    228 H228      -10.6784  -20.0153  -53.0154 H         1 UNK         0.0600 
    229 H229       -9.2565  -20.8451  -52.3992 H         1 UNK         0.0600 
    230 H230       -7.4036  -21.5661  -54.4194 H         1 UNK         0.3000 
    231 H231       -8.3560  -22.2925  -57.0987 H         1 UNK         0.0600 
    232 H232       -9.9828  -23.4697  -55.6013 H         1 UNK         0.0600 
    233 H233       -8.6494  -24.2198  -54.7268 H         1 UNK         0.0600 
    234 H234       -8.9360  -24.6169  -56.4178 H         1 UNK         0.0600 
    235 H235       -5.9528  -21.1429  -56.2776 H         1 UNK         0.3000 
    236 H236       -3.9601  -23.0165  -57.1152 H         1 UNK         0.0600 
    237 H237       -3.8758  -21.9977  -54.2049 H         1 UNK         0.0600 
    238 H238       -4.0837  -23.6796  -54.6930 H         1 UNK         0.0600 
    239 H239       -2.5720  -22.8617  -55.0114 H         1 UNK         0.0600 
    240 H240       -1.7195  -21.7125  -56.6173 H         1 UNK         0.3000 
    241 H241       -0.3974  -20.0088  -56.9842 H         1 UNK         0.0600 
    242 H242       -2.3314  -20.8818  -59.3243 H         1 UNK         0.3800 
    243 H243       -1.9755  -19.6505  -60.5074 H         1 UNK         0.3800 
    244 H244       -0.9653  -17.7136  -56.3016 H         1 UNK         0.0800 
    245 H245       -2.6611  -18.0959  -56.2361 H         1 UNK         0.0800 
    246 H246       -1.1854  -16.6852  -53.9364 H         1 UNK         0.0800 
    247 H247        0.3519  -17.4962  -54.1097 H         1 UNK         0.0800 
@<TRIPOS>BOND
     1    1    2 1    
     2    1  127 1    
     3    1  128 1    
     4    1  129 1    
     5    2    3 2    
     6    2    4 am   BACKBONE|DICT|INTERRES
     7    4    5 1    
     8    4  130 1    
     9    5    6 1    
    10    5   65 1    
    11    5  131 1    
    12    6    7 1    
    13    6  132 1    
    14    6  133 1    
    15    7    8 1    
    16    8    9 1    
    17    8  134 1    
    18    8  135 1    
    19    9   10 ar   
    20    9   14 ar   
    21   10   11 ar   
    22   10  136 1    
    23   11   12 ar   
    24   11  126 1    
    25   12   13 ar   
    26   12  137 1    
    27   13   14 ar   
    28   13   15 1    
    29   14  138 1    
    30   15   16 1    
    31   15  139 1    
    32   15  140 1    
    33   16   17 1    
    34   17   18 1    
    35   17  141 1    
    36   17  142 1    
    37   18   19 1    
    38   18   67 1    
    39   18  143 1    
    40   19   20 am   BACKBONE|DICT|INTERRES
    41   19  144 1    
    42   20   21 2    
    43   20   22 1    
    44   22   23 1    
    45   22   24 1    
    46   22  145 1    
    47   23  146 1    
    48   23  147 1    
    49   23  148 1    
    50   24   25 am   BACKBONE|DICT|INTERRES
    51   24  149 1    
    52   25   26 2    
    53   25   27 1    
    54   27   28 1    
    55   27   29 1    
    56   27  150 1    
    57   28  151 1    
    58   28  152 1    
    59   28  153 1    
    60   29   30 am   BACKBONE|DICT|INTERRES
    61   29  154 1    
    62   30   31 2    
    63   30   32 1    
    64   32   33 1    
    65   32   34 1    
    66   32  155 1    
    67   33  156 1    
    68   33  157 1    
    69   33  158 1    
    70   34   35 am   BACKBONE|DICT|INTERRES
    71   34  159 1    
    72   35   36 2    
    73   35   37 1    
    74   37   38 1    
    75   37   39 1    
    76   37  160 1    
    77   38  161 1    
    78   38  162 1    
    79   38  163 1    
    80   39   40 am   BACKBONE|DICT|INTERRES
    81   39  164 1    
    82   40   41 2    
    83   40   42 1    
    84   42   43 1    
    85   42   44 1    
    86   42  165 1    
    87   43  166 1    
    88   43  167 1    
    89   43  168 1    
    90   44   45 am   BACKBONE|DICT|INTERRES
    91   44  169 1    
    92   45   46 2    
    93   45   47 1    
    94   47   48 1    
    95   47   49 1    
    96   47  170 1    
    97   48  171 1    
    98   48  172 1    
    99   48  173 1    
   100   49   50 am   BACKBONE|DICT|INTERRES
   101   49  174 1    
   102   50   51 2    
   103   50   52 1    
   104   52   53 1    
   105   52   54 1    
   106   52  175 1    
   107   53  176 1    
   108   53  177 1    
   109   53  178 1    
   110   54   55 am   BACKBONE|DICT|INTERRES
   111   54  179 1    
   112   55   56 2    
   113   55   57 1    
   114   57   58 1    
   115   57   59 1    
   116   57  180 1    
   117   58  181 1    
   118   58  182 1    
   119   58  183 1    
   120   59   60 am   BACKBONE|DICT|INTERRES
   121   59  184 1    
   122   60   61 2    
   123   60   62 1    
   124   62   63 1    
   125   62   64 1    
   126   62  185 1    
   127   63  186 1    
   128   63  187 1    
   129   63  188 1    
   130   64   65 am   BACKBONE|DICT|INTERRES
   131   64  189 1    
   132   65   66 2    
   133   67   68 2    
   134   67   69 am   BACKBONE|DICT|INTERRES
   135   69   70 1    
   136   69  190 1    
   137   70   71 1    
   138   70   72 1    
   139   70  191 1    
   140   71  192 1    
   141   71  193 1    
   142   71  194 1    
   143   72   73 2    
   144   72   74 am   BACKBONE|DICT|INTERRES
   145   74   75 1    
   146   74  195 1    
   147   75   76 1    
   148   75   77 1    
   149   75  196 1    
   150   76  197 1    
   151   76  198 1    
   152   76  199 1    
   153   77   78 2    
   154   77   79 am   BACKBONE|DICT|INTERRES
   155   79   80 1    
   156   79  200 1    
   157   80   81 1    
   158   80   82 1    
   159   80  201 1    
   160   81  202 1    
   161   81  203 1    
   162   81  204 1    
   163   82   83 2    
   164   82   84 am   BACKBONE|DICT|INTERRES
   165   84   85 1    
   166   84  205 1    
   167   85   86 1    
   168   85   87 1    
   169   85  206 1    
   170   86  207 1    
   171   86  208 1    
   172   86  209 1    
   173   87   88 2    
   174   87   89 am   BACKBONE|DICT|INTERRES
   175   89   90 1    
   176   89  210 1    
   177   90   91 1    
   178   90   92 1    
   179   90  211 1    
   180   91  212 1    
   181   91  213 1    
   182   91  214 1    
   183   92   93 2    
   184   92   94 am   BACKBONE|DICT|INTERRES
   185   94   95 1    
   186   94  215 1    
   187   95   96 1    
   188   95   97 1    
   189   95  216 1    
   190   96  217 1    
   191   96  218 1    
   192   96  219 1    
   193   97   98 2    
   194   97   99 am   BACKBONE|DICT|INTERRES
   195   99  100 1    
   196   99  220 1    
   197  100  101 1    
   198  100  102 1    
   199  100  221 1    
   200  101  222 1    
   201  101  223 1    
   202  101  224 1    
   203  102  103 2    
   204  102  104 am   BACKBONE|DICT|INTERRES
   205  104  105 1    
   206  104  225 1    
   207  105  106 1    
   208  105  107 1    
   209  105  226 1    
   210  106  227 1    
   211  106  228 1    
   212  106  229 1    
   213  107  108 2    
   214  107  109 am   BACKBONE|DICT|INTERRES
   215  109  110 1    
   216  109  230 1    
   217  110  111 1    
   218  110  112 1    
   219  110  231 1    
   220  111  232 1    
   221  111  233 1    
   222  111  234 1    
   223  112  113 2    
   224  112  114 am   BACKBONE|DICT|INTERRES
   225  114  115 1    
   226  114  235 1    
   227  115  116 1    
   228  115  117 1    
   229  115  236 1    
   230  116  237 1    
   231  116  238 1    
   232  116  239 1    
   233  117  118 2    
   234  117  119 am   BACKBONE|DICT|INTERRES
   235  119  120 1    
   236  119  240 1    
   237  120  121 1    
   238  120  124 1    
   239  120  241 1    
   240  121  122 am   BACKBONE|DICT|INTERRES
   241  121  123 2    
   242  122  242 1    
   243  122  243 1    
   244  124  125 1    
   245  124  244 1    
   246  124  245 1    
   247  125  126 1    
   248  126  246 1    
   249  126  247 1    
@<TRIPOS>SUBSTRUCTURE
     1 UNK         1 GROUP             0       ****    0 ROOT    
