@<TRIPOS>MOLECULE
3R540
247   249    1
SMALL
USER_CHARGES


@<TRIPOS>ATOM
      1 CA         -0.5208  -14.0773  -42.1954 C.3       0 UNK        -0.1800 
      2 C          -0.4908  -12.9810  -43.2460 C.2       0 UNK         0.5000 
      3 O          -0.2854  -11.8148  -42.9116 O.2       0 UNK        -0.5000 
      4 N          -0.6894  -13.3519  -44.5168 N.am      1 UNK        -0.5000 
      5 CA         -0.7369  -12.4377  -45.6654 C.3       1 UNK         0.1400 
      6 C6         -1.3604  -13.1133  -46.9102 C.3       23 UNK        -0.0398 
      7 S7         -0.4827  -14.6110  -47.4763 S.3       23 UNK        -0.2404 
      8 C8         -1.5257  -15.0382  -48.9111 C.3       23 UNK        -0.0205 
      9 C9         -1.0457  -16.2048  -49.7758 C.ar      23 UNK        -0.0193 
     10 C10        -1.7456  -16.4594  -50.9595 C.ar      23 UNK        -0.1150 
     11 C11        -1.3484  -17.4814  -51.8233 C.ar      23 UNK        -0.0193 
     12 C12        -0.2358  -18.2591  -51.4982 C.ar      23 UNK        -0.1150 
     13 C13         0.4740  -18.0272  -50.3190 C.ar      23 UNK        -0.0193 
     14 C14         0.0603  -17.0075  -49.4548 C.ar      23 UNK        -0.1150 
     15 C15         1.7168  -18.8524  -50.0206 C.3       23 UNK        -0.0205 
     16 S16         1.3106  -20.5355  -49.4612 S.3       23 UNK        -0.2404 
     17 C17         0.9647  -20.2415  -47.6973 C.3       23 UNK        -0.0398 
     18 CA         -0.2637  -21.0185  -47.1707 C.3       11 UNK         0.1400 
     19 N          -0.2443  -21.1029  -45.7069 N.am      11 UNK        -0.5000 
     20 C          -1.0973  -21.8176  -44.9603 C.2       10 UNK         0.5000 
     21 O          -1.9914  -22.5205  -45.4265 O.2       10 UNK        -0.5000 
     22 CA         -0.9604  -21.6915  -43.4330 C.3       10 UNK         0.1400 
     23 CB          0.1938  -22.5610  -42.9129 C.3       10 UNK        -0.1800 
     24 N          -0.7745  -20.3074  -42.9976 N.am      10 UNK        -0.5000 
     25 C          -1.6760  -19.3299  -43.1697 C.2       9 UNK         0.5000 
     26 O          -2.7834  -19.5016  -43.6777 O.2       9 UNK        -0.5000 
     27 CA         -1.2489  -17.9110  -42.7540 C.3       9 UNK         0.1400 
     28 CB         -1.3328  -17.7388  -41.2294 C.3       9 UNK        -0.1800 
     29 N           0.0971  -17.5724  -43.2192 N.am      9 UNK        -0.5000 
     30 C           0.4708  -17.5346  -44.5070 C.2       8 UNK         0.5000 
     31 O          -0.2934  -17.7288  -45.4509 O.2       8 UNK        -0.5000 
     32 CA          1.9638  -17.3002  -44.7839 C.3       8 UNK         0.1400 
     33 CB          2.3125  -15.8068  -44.7050 C.3       8 UNK        -0.1800 
     34 N           2.8100  -18.0636  -43.8660 N.am      8 UNK        -0.5000 
     35 C           2.9106  -19.4012  -43.8736 C.2       7 UNK         0.5000 
     36 O           2.3239  -20.1253  -44.6764 O.2       7 UNK        -0.5000 
     37 CA          3.7750  -20.0396  -42.7719 C.3       7 UNK         0.1400 
     38 CB          5.2627  -19.9863  -43.1496 C.3       7 UNK        -0.1800 
     39 N           3.5802  -19.4007  -41.4709 N.am      7 UNK        -0.5000 
     40 C           2.4349  -19.4292  -40.7743 C.2       6 UNK         0.5000 
     41 O           1.4339  -20.0495  -41.1296 O.2       6 UNK        -0.5000 
     42 CA          2.3859  -18.5765  -39.4926 C.3       6 UNK         0.1400 
     43 CB          2.8774  -19.3873  -38.2846 C.3       6 UNK        -0.1800 
     44 N           3.1658  -17.3399  -39.6004 N.am      6 UNK        -0.5000 
     45 C           2.9017  -16.3534  -40.4668 C.2       5 UNK         0.5000 
     46 O           1.9670  -16.3827  -41.2708 O.2       5 UNK        -0.5000 
     47 CA          3.8972  -15.1832  -40.4904 C.3       5 UNK         0.1400 
     48 CB          4.9359  -15.3921  -41.6031 C.3       5 UNK        -0.1800 
     49 N           3.2319  -13.9012  -40.7017 N.am      5 UNK        -0.5000 
     50 C           2.5085  -13.2548  -39.7752 C.2       4 UNK         0.5000 
     51 O           2.2904  -13.7092  -38.6504 O.2       4 UNK        -0.5000 
     52 CA          1.9576  -11.8611  -40.1631 C.3       4 UNK         0.1400 
     53 CB          1.7233  -10.9449  -38.9435 C.3       4 UNK        -0.1800 
     54 N           2.7708  -11.1844  -41.1824 N.am      4 UNK        -0.5000 
     55 C           4.0668  -10.8458  -41.0875 C.2       3 UNK         0.5000 
     56 O           4.7105  -10.9144  -40.0391 O.2       3 UNK        -0.5000 
     57 CA          4.7808  -10.3757  -42.3773 C.3       3 UNK         0.1400 
     58 CB          6.2056  -10.9602  -42.4760 C.3       3 UNK        -0.1800 
     59 N           4.0628  -10.6207  -43.6388 N.am      3 UNK        -0.5000 
     60 C           3.6451  -11.7947  -44.1339 C.2       2 UNK         0.5000 
     61 O           3.6792  -12.8620  -43.5164 O.2       2 UNK        -0.5000 
     62 CA          3.0615  -11.7642  -45.5506 C.3       2 UNK         0.1400 
     63 CB          3.9156  -12.5928  -46.5231 C.3       2 UNK        -0.1800 
     64 N           1.7194  -12.3226  -45.4842 N.am      2 UNK        -0.5000 
     65 C           0.6156  -11.7600  -45.9893 C.2       1 UNK         0.5000 
     66 O           0.6243  -10.7333  -46.6706 O.2       1 UNK        -0.5000 
     67 C          -1.5905  -20.4342  -47.7013 C.2       11 UNK         0.5000 
     68 O          -2.1790  -21.0010  -48.6249 O.2       11 UNK        -0.5000 
     69 N          -2.0586  -19.3488  -47.0687 N.am      12 UNK        -0.5000 
     70 CA         -3.3373  -18.7022  -47.3524 C.3       12 UNK         0.1400 
     71 CB         -3.4340  -17.3921  -46.5556 C.3       12 UNK        -0.1800 
     72 C          -4.5383  -19.6149  -47.0451 C.2       12 UNK         0.5000 
     73 O          -5.4398  -19.7251  -47.8757 O.2       12 UNK        -0.5000 
     74 N          -4.5170  -20.2726  -45.8760 N.am      13 UNK        -0.5000 
     75 CA         -5.5511  -21.2059  -45.4212 C.3       13 UNK         0.1400 
     76 CB         -5.2982  -21.5795  -43.9529 C.3       13 UNK        -0.1800 
     77 C          -5.6509  -22.4712  -46.2925 C.2       13 UNK         0.5000 
     78 O          -6.7588  -22.9288  -46.5749 O.2       13 UNK        -0.5000 
     79 N          -4.4968  -22.9963  -46.7247 N.am      14 UNK        -0.5000 
     80 CA         -4.3870  -24.1276  -47.6471 C.3       14 UNK         0.1400 
     81 CB         -2.9548  -24.6829  -47.5877 C.3       14 UNK        -0.1800 
     82 C          -4.7515  -23.7704  -49.1010 C.2       14 UNK         0.5000 
     83 O          -4.9799  -24.6830  -49.8940 O.2       14 UNK        -0.5000 
     84 N          -4.7752  -22.4672  -49.4218 N.am      15 UNK        -0.5000 
     85 CA         -4.9541  -21.8749  -50.7499 C.3       15 UNK         0.1400 
     86 CB         -6.3739  -22.1416  -51.2902 C.3       15 UNK        -0.1800 
     87 C          -3.8375  -22.3109  -51.7188 C.2       15 UNK         0.5000 
     88 O          -4.1147  -22.7181  -52.8474 O.2       15 UNK        -0.5000 
     89 N          -2.5895  -22.2395  -51.2335 N.am      16 UNK        -0.5000 
     90 CA         -1.3239  -22.6156  -51.8744 C.3       16 UNK         0.1400 
     91 CB         -1.0890  -21.8209  -53.1734 C.3       16 UNK        -0.1800 
     92 C          -1.1455  -24.1286  -52.1168 C.2       16 UNK         0.5000 
     93 O          -0.0792  -24.6619  -51.8074 O.2       16 UNK        -0.5000 
     94 N          -2.1677  -24.7947  -52.6608 N.am      17 UNK        -0.5000 
     95 CA         -2.1902  -26.2116  -53.0091 C.3       17 UNK         0.1400 
     96 CB         -1.4197  -26.4353  -54.3258 C.3       17 UNK        -0.1800 
     97 C          -3.6469  -26.6874  -53.1294 C.2       17 UNK         0.5000 
     98 O          -4.5707  -25.8741  -53.0674 O.2       17 UNK        -0.5000 
     99 N          -3.8291  -28.0010  -53.3282 N.am      18 UNK        -0.5000 
    100 CA        -5.1330  -28.6563  -53.4972 C.3       18 UNK         0.1400 
    101 CB        -4.9246  -30.1772  -53.5635 C.3       18 UNK        -0.1800 
    102 C         -5.9319  -28.1668  -54.7243 C.2       18 UNK         0.5000 
    103 O         -7.1630  -28.2025  -54.7007 O.2       18 UNK        -0.5000 
    104 N         -5.2213  -27.6972  -55.7548 N.am      19 UNK        -0.5000 
    105 CA        -5.7624  -26.9875  -56.9046 C.3       19 UNK         0.1400 
    106 CB        -6.0743  -27.9760  -58.0408 C.3       19 UNK        -0.1800 
    107 C         -4.7153  -25.9491  -57.3241 C.2       19 UNK         0.5000 
    108 O         -3.5548  -26.3134  -57.5287 O.2       19 UNK        -0.5000 
    109 N         -5.1323  -24.6851  -57.4285 N.am      20 UNK        -0.5000 
    110 CA        -4.3098  -23.5334  -57.7852 C.3       20 UNK         0.1400 
    111 CB        -3.3188  -23.2025  -56.6484 C.3       20 UNK        -0.1800 
    112 C         -5.2374  -22.3374  -58.0367 C.2       20 UNK         0.5000 
    113 O         -6.3632  -22.3187  -57.5294 O.2       20 UNK        -0.5000 
    114 N         -4.7272  -21.3242  -58.7510 N.am      21 UNK        -0.5000 
    115 CA        -5.3990  -20.0365  -58.9869 C.3       21 UNK         0.1400 
    116 CB        -4.5796  -19.2245  -60.0017 C.3       21 UNK        -0.1800 
    117 C         -5.6326  -19.2167  -57.6979 C.2       21 UNK         0.5000 
    118 O         -6.4994  -18.3425  -57.6735 O.2       21 UNK        -0.5000 
    119 N         -4.8688  -19.5444  -56.6492 N.am      22 UNK        -0.5000 
    120 CA        -5.0494  -19.1096  -55.2582 C.3       22 UNK         0.1400 
    121 C         -6.3875  -19.5880  -54.6087 C.2       22 UNK         0.5000 
    122 N         -7.0448  -20.6272  -55.1145 N.am      22 UNK        -0.7600 
    123 O         -6.8549  -18.9897  -53.6444 O.2       22 UNK        -0.5000 
    124 C124       -3.8163  -19.5569  -54.4329 C.3       23 UNK        -0.0398 
    125 S125       -3.6010  -18.7191  -52.8247 S.3       23 UNK        -0.2404 
    126 C126       -2.1019  -17.7309  -53.1188 C.3       23 UNK        -0.0205 
    127 H127       -0.9771  -14.9848  -42.5864 H         1 UNK         0.0600 
    128 H128       -1.0945  -13.7575  -41.3257 H         1 UNK         0.0600 
    129 H129        0.4918  -14.3117  -41.8729 H         1 UNK         0.0600 
    130 H130       -0.8436  -14.3255  -44.7380 H         1 UNK         0.3000 
    131 H131       -1.4089  -11.6238  -45.3843 H         1 UNK         0.0600 
    132 H132       -1.4192  -12.4035  -47.7375 H         1 UNK         0.0800 
    133 H133       -2.3917  -13.3912  -46.6880 H         1 UNK         0.0800 
    134 H134       -2.5364  -15.2528  -48.5629 H         1 UNK         0.0800 
    135 H135       -1.6010  -14.1545  -49.5466 H         1 UNK         0.0800 
    136 H136       -2.6018  -15.8517  -51.2178 H         1 UNK         0.1150 
    137 H137        0.0904  -19.0419  -52.1676 H         1 UNK         0.1150 
    138 H138        0.6190  -16.8352  -48.5469 H         1 UNK         0.1150 
    139 H139        2.3190  -18.9253  -50.9275 H         1 UNK         0.0800 
    140 H140        2.3484  -18.3565  -49.2817 H         1 UNK         0.0800 
    141 H141        0.8623  -19.1741  -47.4970 H         1 UNK         0.0800 
    142 H142        1.8596  -20.5609  -47.1636 H         1 UNK         0.0800 
    143 H143       -0.1950  -22.0454  -47.5363 H         1 UNK         0.0600 
    144 H144        0.4913  -20.5834  -45.2376 H         1 UNK         0.3000 
    145 H145       -1.8868  -22.0579  -42.9863 H         1 UNK         0.0600 
    146 H146        0.2381  -22.5448  -41.8238 H         1 UNK         0.0600 
    147 H147        0.0682  -23.6005  -43.2180 H         1 UNK         0.0600 
    148 H148        1.1581  -22.2209  -43.2909 H         1 UNK         0.0600 
    149 H149        0.0967  -20.0945  -42.5198 H         1 UNK         0.3000 
    150 H150       -1.9439  -17.2071  -43.2162 H         1 UNK         0.0600 
    151 H151       -2.3526  -17.8983  -40.8774 H         1 UNK         0.0600 
    152 H152       -1.0347  -16.7371  -40.9211 H         1 UNK         0.0600 
    153 H153       -0.6934  -18.4492  -40.7066 H         1 UNK         0.0600 
    154 H154        0.7888  -17.3578  -42.5066 H         1 UNK         0.3000 
    155 H155        2.1731  -17.6410  -45.8001 H         1 UNK         0.0600 
    156 H156        3.3701  -15.6380  -44.9069 H         1 UNK         0.0600 
    157 H157        2.0877  -15.3822  -43.7266 H         1 UNK         0.0600 
    158 H158        1.7480  -15.2421  -45.4467 H         1 UNK         0.0600 
    159 H159        3.2740  -17.5437  -43.1370 H         1 UNK         0.3000 
    160 H160        3.4815  -21.0878  -42.6827 H         1 UNK         0.0600 
    161 H161        5.6246  -18.9602  -43.2265 H         1 UNK         0.0600 
    162 H162        5.4378  -20.4694  -44.1119 H         1 UNK         0.0600 
    163 H163        5.8753  -20.5042  -42.4114 H         1 UNK         0.0600 
    164 H164        4.3551  -18.8718  -41.0998 H         1 UNK         0.3000 
    165 H165        1.3441  -18.3006  -39.3179 H         1 UNK         0.0600 
    166 H166        2.7717  -18.8202  -37.3595 H         1 UNK         0.0600 
    167 H167        2.2985  -20.3048  -38.1696 H         1 UNK         0.0600 
    168 H168        3.9255  -19.6710  -38.3877 H         1 UNK         0.0600 
    169 H169        3.9549  -17.2496  -38.9766 H         1 UNK         0.3000 
    170 H170        4.4210  -15.1431  -39.5330 H         1 UNK         0.0600 
    171 H171        5.4791  -16.3279  -41.4660 H         1 UNK         0.0600 
    172 H172        4.4705  -15.4217  -42.5887 H         1 UNK         0.0600 
    173 H173        5.6714  -14.5874  -41.6093 H         1 UNK         0.0600 
    174 H174        3.3471  -13.4820  -41.6192 H         1 UNK         0.3000 
    175 H175        0.9847  -12.0422  -40.6173 H         1 UNK         0.0600 
    176 H176        2.6385  -10.7818  -38.3742 H         1 UNK         0.0600 
    177 H177        1.3398   -9.9718  -39.2499 H         1 UNK         0.0600 
    178 H178        0.9906  -11.3805  -38.2633 H         1 UNK         0.0600 
    179 H179        2.3349  -11.0948  -42.0896 H         1 UNK         0.3000 
    180 H180        4.8730   -9.2925  -42.2870 H         1 UNK         0.0600 
    181 H181        6.7181  -10.6030  -43.3692 H         1 UNK         0.0600 
    182 H182        6.1912  -12.0503  -42.5113 H         1 UNK         0.0600 
    183 H183        6.8145  -10.6687  -41.6194 H         1 UNK         0.0600 
    184 H184        3.9359   -9.7992  -44.2140 H         1 UNK         0.3000 
    185 H185        3.0347  -10.7308  -45.9027 H         1 UNK         0.0600 
    186 H186        3.4947  -12.5738  -47.5285 H         1 UNK         0.0600 
    187 H187        4.9298  -12.1965  -46.5854 H         1 UNK         0.0600 
    188 H188        3.9883  -13.6353  -46.2122 H         1 UNK         0.0600 
    189 H189        1.6207  -13.1352  -44.8924 H         1 UNK         0.3000 
    190 H190       -1.4889  -18.9188  -46.3444 H         1 UNK         0.3000 
    191 H191       -3.3553  -18.4589  -48.4171 H         1 UNK         0.0600 
    192 H192       -4.3278  -16.8320  -46.8318 H         1 UNK         0.0600 
    193 H193       -2.5731  -16.7525  -46.7436 H         1 UNK         0.0600 
    194 H194       -3.4763  -17.5727  -45.4814 H         1 UNK         0.0600 
    195 H195       -3.7547  -20.0936  -45.2272 H         1 UNK         0.3000 
    196 H196       -6.5116  -20.6897  -45.4783 H         1 UNK         0.0600 
    197 H197       -4.3301  -22.0642  -43.8228 H         1 UNK         0.0600 
    198 H198       -5.3189  -20.6972  -43.3130 H         1 UNK         0.0600 
    199 H199       -6.0624  -22.2655  -43.5857 H         1 UNK         0.0600 
    200 H200       -3.6209  -22.6051  -46.3857 H         1 UNK         0.3000 
    201 H201       -5.0724  -24.9110  -47.3174 H         1 UNK         0.0600 
    202 H202       -2.2232  -23.9359  -47.8990 H         1 UNK         0.0600 
    203 H203       -2.8403  -25.5475  -48.2428 H         1 UNK         0.0600 
    204 H204       -2.6976  -25.0043  -46.5783 H         1 UNK         0.0600 
    205 H205       -4.5540  -21.8076  -48.6873 H         1 UNK         0.3000 
    206 H206       -4.8469  -20.7966  -50.6220 H         1 UNK         0.0600 
    207 H207       -7.1334  -21.8146  -50.5803 H         1 UNK         0.0600 
    208 H208       -6.5416  -21.5972  -52.2197 H         1 UNK         0.0600 
    209 H209       -6.5387  -23.1990  -51.4990 H         1 UNK         0.0600 
    210 H210       -2.4877  -21.8839  -50.2848 H         1 UNK         0.3000 
    211 H211       -0.5493  -22.3169  -51.1668 H         1 UNK         0.0600 
    212 H212       -0.0725  -21.9692  -53.5393 H         1 UNK         0.0600 
    213 H213       -1.2266  -20.7533  -53.0125 H         1 UNK         0.0600 
    214 H214       -1.7678  -22.1282  -53.9693 H         1 UNK         0.0600 
    215 H215       -3.0385  -24.2948  -52.8390 H         1 UNK         0.3000 
    216 H216       -1.7183  -26.7812  -52.2060 H         1 UNK         0.0600 
    217 H217       -1.8824  -25.8984  -55.1543 H         1 UNK         0.0600 
    218 H218       -1.3890  -27.4911  -54.5962 H         1 UNK         0.0600 
    219 H219       -0.3864  -26.0979  -54.2464 H         1 UNK         0.0600 
    220 H220       -3.0202  -28.6043  -53.3692 H         1 UNK         0.3000 
    221 H221       -5.7310  -28.4319  -52.6115 H         1 UNK         0.0600 
    222 H222       -4.4446  -30.5505  -52.6587 H         1 UNK         0.0600 
    223 H223       -4.3059  -30.4614  -54.4156 H         1 UNK         0.0600 
    224 H224       -5.8779  -30.6982  -53.6621 H         1 UNK         0.0600 
    225 H225       -4.2124  -27.6849  -55.6875 H         1 UNK         0.3000 
    226 H226       -6.6810  -26.4693  -56.6197 H         1 UNK         0.0600 
    227 H227       -5.1851  -28.5261  -58.3513 H         1 UNK         0.0600 
    228 H228       -6.8272  -28.7026  -57.7350 H         1 UNK         0.0600 
    229 H229       -6.4617  -27.4533  -58.9160 H         1 UNK         0.0600 
    230 H230       -6.1019  -24.4485  -57.2531 H         1 UNK         0.3000 
    231 H231       -3.7642  -23.7553  -58.7045 H         1 UNK         0.0600 
    232 H232       -3.8355  -23.0329  -55.7024 H         1 UNK         0.0600 
    233 H233       -2.7403  -22.3059  -56.8728 H         1 UNK         0.0600 
    234 H234       -2.6017  -24.0077  -56.4939 H         1 UNK         0.0600 
    235 H235       -3.7963  -21.4160  -59.1328 H         1 UNK         0.3000 
    236 H236       -6.3789  -20.2431  -59.4225 H         1 UNK         0.0600 
    237 H237       -4.4743  -19.7615  -60.9446 H         1 UNK         0.0600 
    238 H238       -5.0648  -18.2731  -60.2242 H         1 UNK         0.0600 
    239 H239       -3.5797  -19.0030  -59.6263 H         1 UNK         0.0600 
    240 H240       -4.1826  -20.2680  -56.7953 H         1 UNK         0.3000 
    241 H241       -5.0754  -18.0185  -55.2696 H         1 UNK         0.0600 
    242 H242       -7.9126  -20.9093  -54.6884 H         1 UNK         0.3800 
    243 H243       -6.7061  -21.1296  -55.9270 H         1 UNK         0.3800 
    244 H244       -2.9117  -19.4037  -55.0217 H         1 UNK         0.0800 
    245 H245       -3.8562  -20.6310  -54.2600 H         1 UNK         0.0800 
    246 H246       -1.4421  -18.2363  -53.8250 H         1 UNK         0.0800 
    247 H247       -2.3792  -16.7830  -53.5824 H         1 UNK         0.0800 
@<TRIPOS>BOND
     1    1    2 1    
     2    1  127 1    
     3    1  128 1    
     4    1  129 1    
     5    2    3 2    
     6    2    4 am   BACKBONE|DICT|INTERRES
     7    4    5 1    
     8    4  130 1    
     9    5    6 1    
    10    5   65 1    
    11    5  131 1    
    12    6    7 1    
    13    6  132 1    
    14    6  133 1    
    15    7    8 1    
    16    8    9 1    
    17    8  134 1    
    18    8  135 1    
    19    9   10 ar   
    20    9   14 ar   
    21   10   11 ar   
    22   10  136 1    
    23   11   12 ar   
    24   11  126 1    
    25   12   13 ar   
    26   12  137 1    
    27   13   14 ar   
    28   13   15 1    
    29   14  138 1    
    30   15   16 1    
    31   15  139 1    
    32   15  140 1    
    33   16   17 1    
    34   17   18 1    
    35   17  141 1    
    36   17  142 1    
    37   18   19 1    
    38   18   67 1    
    39   18  143 1    
    40   19   20 am   BACKBONE|DICT|INTERRES
    41   19  144 1    
    42   20   21 2    
    43   20   22 1    
    44   22   23 1    
    45   22   24 1    
    46   22  145 1    
    47   23  146 1    
    48   23  147 1    
    49   23  148 1    
    50   24   25 am   BACKBONE|DICT|INTERRES
    51   24  149 1    
    52   25   26 2    
    53   25   27 1    
    54   27   28 1    
    55   27   29 1    
    56   27  150 1    
    57   28  151 1    
    58   28  152 1    
    59   28  153 1    
    60   29   30 am   BACKBONE|DICT|INTERRES
    61   29  154 1    
    62   30   31 2    
    63   30   32 1    
    64   32   33 1    
    65   32   34 1    
    66   32  155 1    
    67   33  156 1    
    68   33  157 1    
    69   33  158 1    
    70   34   35 am   BACKBONE|DICT|INTERRES
    71   34  159 1    
    72   35   36 2    
    73   35   37 1    
    74   37   38 1    
    75   37   39 1    
    76   37  160 1    
    77   38  161 1    
    78   38  162 1    
    79   38  163 1    
    80   39   40 am   BACKBONE|DICT|INTERRES
    81   39  164 1    
    82   40   41 2    
    83   40   42 1    
    84   42   43 1    
    85   42   44 1    
    86   42  165 1    
    87   43  166 1    
    88   43  167 1    
    89   43  168 1    
    90   44   45 am   BACKBONE|DICT|INTERRES
    91   44  169 1    
    92   45   46 2    
    93   45   47 1    
    94   47   48 1    
    95   47   49 1    
    96   47  170 1    
    97   48  171 1    
    98   48  172 1    
    99   48  173 1    
   100   49   50 am   BACKBONE|DICT|INTERRES
   101   49  174 1    
   102   50   51 2    
   103   50   52 1    
   104   52   53 1    
   105   52   54 1    
   106   52  175 1    
   107   53  176 1    
   108   53  177 1    
   109   53  178 1    
   110   54   55 am   BACKBONE|DICT|INTERRES
   111   54  179 1    
   112   55   56 2    
   113   55   57 1    
   114   57   58 1    
   115   57   59 1    
   116   57  180 1    
   117   58  181 1    
   118   58  182 1    
   119   58  183 1    
   120   59   60 am   BACKBONE|DICT|INTERRES
   121   59  184 1    
   122   60   61 2    
   123   60   62 1    
   124   62   63 1    
   125   62   64 1    
   126   62  185 1    
   127   63  186 1    
   128   63  187 1    
   129   63  188 1    
   130   64   65 am   BACKBONE|DICT|INTERRES
   131   64  189 1    
   132   65   66 2    
   133   67   68 2    
   134   67   69 am   BACKBONE|DICT|INTERRES
   135   69   70 1    
   136   69  190 1    
   137   70   71 1    
   138   70   72 1    
   139   70  191 1    
   140   71  192 1    
   141   71  193 1    
   142   71  194 1    
   143   72   73 2    
   144   72   74 am   BACKBONE|DICT|INTERRES
   145   74   75 1    
   146   74  195 1    
   147   75   76 1    
   148   75   77 1    
   149   75  196 1    
   150   76  197 1    
   151   76  198 1    
   152   76  199 1    
   153   77   78 2    
   154   77   79 am   BACKBONE|DICT|INTERRES
   155   79   80 1    
   156   79  200 1    
   157   80   81 1    
   158   80   82 1    
   159   80  201 1    
   160   81  202 1    
   161   81  203 1    
   162   81  204 1    
   163   82   83 2    
   164   82   84 am   BACKBONE|DICT|INTERRES
   165   84   85 1    
   166   84  205 1    
   167   85   86 1    
   168   85   87 1    
   169   85  206 1    
   170   86  207 1    
   171   86  208 1    
   172   86  209 1    
   173   87   88 2    
   174   87   89 am   BACKBONE|DICT|INTERRES
   175   89   90 1    
   176   89  210 1    
   177   90   91 1    
   178   90   92 1    
   179   90  211 1    
   180   91  212 1    
   181   91  213 1    
   182   91  214 1    
   183   92   93 2    
   184   92   94 am   BACKBONE|DICT|INTERRES
   185   94   95 1    
   186   94  215 1    
   187   95   96 1    
   188   95   97 1    
   189   95  216 1    
   190   96  217 1    
   191   96  218 1    
   192   96  219 1    
   193   97   98 2    
   194   97   99 am   BACKBONE|DICT|INTERRES
   195   99  100 1    
   196   99  220 1    
   197  100  101 1    
   198  100  102 1    
   199  100  221 1    
   200  101  222 1    
   201  101  223 1    
   202  101  224 1    
   203  102  103 2    
   204  102  104 am   BACKBONE|DICT|INTERRES
   205  104  105 1    
   206  104  225 1    
   207  105  106 1    
   208  105  107 1    
   209  105  226 1    
   210  106  227 1    
   211  106  228 1    
   212  106  229 1    
   213  107  108 2    
   214  107  109 am   BACKBONE|DICT|INTERRES
   215  109  110 1    
   216  109  230 1    
   217  110  111 1    
   218  110  112 1    
   219  110  231 1    
   220  111  232 1    
   221  111  233 1    
   222  111  234 1    
   223  112  113 2    
   224  112  114 am   BACKBONE|DICT|INTERRES
   225  114  115 1    
   226  114  235 1    
   227  115  116 1    
   228  115  117 1    
   229  115  236 1    
   230  116  237 1    
   231  116  238 1    
   232  116  239 1    
   233  117  118 2    
   234  117  119 am   BACKBONE|DICT|INTERRES
   235  119  120 1    
   236  119  240 1    
   237  120  121 1    
   238  120  124 1    
   239  120  241 1    
   240  121  122 am   BACKBONE|DICT|INTERRES
   241  121  123 2    
   242  122  242 1    
   243  122  243 1    
   244  124  125 1    
   245  124  244 1    
   246  124  245 1    
   247  125  126 1    
   248  126  246 1    
   249  126  247 1    
@<TRIPOS>SUBSTRUCTURE
     1 UNK         1 GROUP             0       ****    0 ROOT    
