@<TRIPOS>MOLECULE
3R540
247   249    1
SMALL
USER_CHARGES


@<TRIPOS>ATOM
      1 CA          4.5387  -10.5295  -52.0990 C.3       0 UNK        -0.1800 
      2 C           4.5985  -11.4300  -50.8737 C.2       0 UNK         0.5000 
      3 O           5.6778  -11.6432  -50.3191 O.2       0 UNK        -0.5000 
      4 N           3.4454  -11.9542  -50.4403 N.am      1 UNK        -0.5000 
      5 CA          3.2900  -12.8502  -49.2869 C.3       1 UNK         0.1400 
      6 C6          2.0476  -13.7706  -49.4263 C.3       23 UNK        -0.0398 
      7 S7          2.0999  -14.7558  -50.9657 S.3       23 UNK        -0.2404 
      8 C8          2.8560  -16.3221  -50.4010 C.3       23 UNK        -0.0205 
      9 C9          1.9100  -17.5197  -50.2757 C.ar      23 UNK        -0.0193 
     10 C10         0.5142  -17.4080  -50.3540 C.ar      23 UNK        -0.1150 
     11 C11        -0.3013  -18.5387  -50.2498 C.ar      23 UNK        -0.0193 
     12 C12         0.2837  -19.7909  -50.0479 C.ar      23 UNK        -0.1150 
     13 C13         1.6718  -19.9234  -49.9710 C.ar      23 UNK        -0.0193 
     14 C14         2.4751  -18.7857  -50.0857 C.ar      23 UNK        -0.1150 
     15 C15         2.2984  -21.2997  -49.7852 C.3       23 UNK        -0.0205 
     16 S16         3.1438  -21.4972  -48.1800 S.3       23 UNK        -0.2404 
     17 C17         1.8251  -21.1064  -46.9804 C.3       23 UNK        -0.0398 
     18 CA          1.0932  -22.3413  -46.4036 C.3       11 UNK         0.1400 
     19 N           0.3198  -21.9809  -45.2147 N.am      11 UNK        -0.5000 
     20 C          -0.3362  -22.8317  -44.4153 C.2       10 UNK         0.5000 
     21 O          -0.3137  -24.0553  -44.5488 O.2       10 UNK        -0.5000 
     22 CA         -1.2051  -22.1988  -43.3116 C.3       10 UNK         0.1400 
     23 CB         -0.3506  -21.7844  -42.1046 C.3       10 UNK        -0.1800 
     24 N          -1.9674  -21.0451  -43.7959 N.am      10 UNK        -0.5000 
     25 C          -2.9381  -21.1213  -44.7183 C.2       9 UNK         0.5000 
     26 O          -3.3241  -22.1787  -45.2156 O.2       9 UNK        -0.5000 
     27 CA         -3.5539  -19.7956  -45.1998 C.3       9 UNK         0.1400 
     28 CB         -4.6199  -19.2985  -44.2131 C.3       9 UNK        -0.1800 
     29 N          -2.5558  -18.7489  -45.4218 N.am      9 UNK        -0.5000 
     30 C          -1.5801  -18.8177  -46.3384 C.2       8 UNK         0.5000 
     31 O          -1.4447  -19.7616  -47.1128 O.2       8 UNK        -0.5000 
     32 CA         -0.5434  -17.6795  -46.3524 C.3       8 UNK         0.1400 
     33 CB         -1.0904  -16.4395  -47.0730 C.3       8 UNK        -0.1800 
     34 N          -0.1001  -17.3126  -45.0074 N.am      8 UNK        -0.5000 
     35 C           0.5127  -18.1464  -44.1548 C.2       7 UNK         0.5000 
     36 O           0.8091  -19.3079  -44.4270 O.2       7 UNK        -0.5000 
     37 CA          0.8053  -17.6109  -42.7463 C.3       7 UNK         0.1400 
     38 CB          2.0932  -16.7830  -42.7417 C.3       7 UNK        -0.1800 
     39 N          -0.2989  -16.8024  -42.2377 N.am      7 UNK        -0.5000 
     40 C          -1.4722  -17.3072  -41.8347 C.2       6 UNK         0.5000 
     41 O          -1.7317  -18.5114  -41.8168 O.2       6 UNK        -0.5000 
     42 CA         -2.5467  -16.2844  -41.4238 C.3       6 UNK         0.1400 
     43 CB         -2.2964  -15.7721  -39.9974 C.3       6 UNK        -0.1800 
     44 N          -2.6212  -15.1473  -42.3443 N.am      6 UNK        -0.5000 
     45 C          -3.0040  -15.2448  -43.6244 C.2       5 UNK         0.5000 
     46 O          -3.3346  -16.3017  -44.1590 O.2       5 UNK        -0.5000 
     47 CA         -2.9999  -13.9544  -44.4607 C.3       5 UNK         0.1400 
     48 CB         -4.3297  -13.2049  -44.2895 C.3       5 UNK        -0.1800 
     49 N          -1.8923  -13.0365  -44.1846 N.am      5 UNK        -0.5000 
     50 C          -0.5839  -13.3218  -44.2510 C.2       4 UNK         0.5000 
     51 O          -0.1342  -14.4580  -44.4206 O.2       4 UNK        -0.5000 
     52 CA          0.3532  -12.1024  -44.1618 C.3       4 UNK         0.1400 
     53 CB          0.0998  -11.2470  -42.9004 C.3       4 UNK        -0.1800 
     54 N           1.7722  -12.4342  -44.3171 N.am      4 UNK        -0.5000 
     55 C           2.6091  -12.9843  -43.4229 C.2       3 UNK         0.5000 
     56 O           2.2698  -13.3572  -42.2994 O.2       3 UNK        -0.5000 
     57 CA          4.0959  -13.1149  -43.8347 C.3       3 UNK         0.1400 
     58 CB          4.4966  -14.5847  -44.0286 C.3       3 UNK        -0.1800 
     59 N           4.4390  -12.3783  -45.0531 N.am      3 UNK        -0.5000 
     60 C           4.4881  -11.0443  -45.1669 C.2       2 UNK         0.5000 
     61 O           4.3584  -10.2755  -44.2135 O.2       2 UNK        -0.5000 
     62 CA          4.6851  -10.4650  -46.5830 C.3       2 UNK         0.1400 
     63 CB          6.1018   -9.8902  -46.7368 C.3       2 UNK        -0.1800 
     64 N           4.4403  -11.4023  -47.6861 N.am      2 UNK        -0.5000 
     65 C           3.2921  -12.0308  -47.9762 C.2       1 UNK         0.5000 
     66 O           2.2811  -11.9609  -47.2743 O.2       1 UNK        -0.5000 
     67 C           0.2094  -23.0378  -47.4584 C.2       11 UNK         0.5000 
     68 O           0.5812  -24.1021  -47.9516 O.2       11 UNK        -0.5000 
     69 N          -0.9618  -22.4543  -47.7510 N.am      12 UNK        -0.5000 
     70 CA         -1.9617  -23.0052  -48.6636 C.3       12 UNK         0.1400 
     71 CB         -3.1088  -22.0045  -48.8490 C.3       12 UNK        -0.1800 
     72 C          -2.4975  -24.3678  -48.1993 C.2       12 UNK         0.5000 
     73 O          -2.5711  -25.2876  -49.0110 O.2       12 UNK        -0.5000 
     74 N          -2.8061  -24.4947  -46.9009 N.am      13 UNK        -0.5000 
     75 CA         -3.2410  -25.7436  -46.2743 C.3       13 UNK         0.1400 
     76 CB         -3.6505  -25.4797  -44.8177 C.3       13 UNK        -0.1800 
     77 C          -2.1797  -26.8570  -46.3555 C.2       13 UNK         0.5000 
     78 O          -2.5258  -27.9971  -46.6661 O.2       13 UNK        -0.5000 
     79 N          -0.9081  -26.5025  -46.1207 N.am      14 UNK        -0.5000 
     80 CA          0.2416  -27.4005  -46.2511 C.3       14 UNK         0.1400 
     81 CB          1.4859  -26.7306  -45.6485 C.3       14 UNK        -0.1800 
     82 C           0.5023  -27.8336  -47.7074 C.2       14 UNK         0.5000 
     83 O           0.8229  -28.9982  -47.9474 O.2       14 UNK        -0.5000 
     84 N           0.3380  -26.8982  -48.6522 N.am      15 UNK        -0.5000 
     85 CA          0.4699  -27.1232  -50.0938 C.3       15 UNK         0.1400 
     86 CB          0.6529  -25.7634  -50.7881 C.3       15 UNK        -0.1800 
     87 C          -0.7203  -27.8811  -50.7186 C.2       15 UNK         0.5000 
     88 O          -0.5970  -28.3563  -51.8482 O.2       15 UNK        -0.5000 
     89 N          -1.8457  -27.9550  -49.9924 N.am      16 UNK        -0.5000 
     90 CA         -3.1595  -28.4503  -50.4175 C.3       16 UNK         0.1400 
     91 CB         -3.1141  -29.9579  -50.7432 C.3       16 UNK        -0.1800 
     92 C          -3.7657  -27.5909  -51.5496 C.2       16 UNK         0.5000 
     93 O          -4.3577  -28.1217  -52.4917 O.2       16 UNK        -0.5000 
     94 N          -3.5938  -26.2708  -51.4278 N.am      17 UNK        -0.5000 
     95 CA         -4.0953  -25.2429  -52.3328 C.3       17 UNK         0.1400 
     96 CB         -2.9278  -24.3044  -52.6828 C.3       17 UNK        -0.1800 
     97 C          -5.2242  -24.4500  -51.6537 C.2       17 UNK         0.5000 
     98 O          -5.3640  -24.4862  -50.4286 O.2       17 UNK        -0.5000 
     99 N          -5.9985  -23.7178  -52.4616 N.am      18 UNK        -0.5000 
    100 CA        -6.9962  -22.7639  -51.9854 C.3       18 UNK         0.1400 
    101 CB        -8.0510  -22.5407  -53.0811 C.3       18 UNK        -0.1800 
    102 C         -6.3045  -21.4418  -51.6194 C.2       18 UNK         0.5000 
    103 O         -5.6758  -20.8320  -52.4869 O.2       18 UNK        -0.5000 
    104 N         -6.4545  -21.0021  -50.3627 N.am      19 UNK        -0.5000 
    105 CA        -5.8665  -19.7621  -49.8407 C.3       19 UNK         0.1400 
    106 CB        -6.1534  -19.6570  -48.3355 C.3       19 UNK        -0.1800 
    107 C         -6.3506  -18.4973  -50.5763 C.2       19 UNK         0.5000 
    108 O         -5.5852  -17.5467  -50.7337 O.2       19 UNK        -0.5000 
    109 N         -7.6023  -18.5307  -51.0521 N.am      20 UNK        -0.5000 
    110 CA        -8.2270  -17.4731  -51.8447 C.3       20 UNK         0.1400 
    111 CB        -9.7378  -17.7425  -51.9221 C.3       20 UNK        -0.1800 
    112 C         -7.6352  -17.3229  -53.2609 C.2       20 UNK         0.5000 
    113 O         -7.7737  -16.2501  -53.8499 O.2       20 UNK        -0.5000 
    114 N         -7.0036  -18.3817  -53.7911 N.am      21 UNK        -0.5000 
    115 CA        -6.3688  -18.3691  -55.1085 C.3       21 UNK         0.1400 
    116 CB        -6.2791  -19.7995  -55.6641 C.3       21 UNK        -0.1800 
    117 C         -4.9836  -17.7049  -55.0589 C.2       21 UNK         0.5000 
    118 O         -4.6832  -16.8702  -55.9137 O.2       21 UNK        -0.5000 
    119 N         -4.1710  -18.0805  -54.0628 N.am      22 UNK        -0.5000 
    120 CA        -2.8340  -17.5105  -53.8308 C.3       22 UNK         0.1400 
    121 C         -2.8369  -16.1484  -53.0810 C.2       22 UNK         0.5000 
    122 N         -3.8294  -15.8404  -52.2556 N.am      22 UNK        -0.7600 
    123 O         -1.9271  -15.3455  -53.2675 O.2       22 UNK        -0.5000 
    124 C124       -1.8582  -18.5283  -53.1863 C.3       23 UNK        -0.0398 
    125 S125       -2.5179  -19.3848  -51.7152 S.3       23 UNK        -0.2404 
    126 C126       -1.8152  -18.4055  -50.3499 C.3       23 UNK        -0.0205 
    127 H127        4.9024   -9.5327  -51.8498 H         1 UNK         0.0600 
    128 H128        3.5228  -10.4353  -52.4835 H         1 UNK         0.0600 
    129 H129        5.1664  -10.9345  -52.8927 H         1 UNK         0.0600 
    130 H130        2.5908  -11.7327  -50.9311 H         1 UNK         0.3000 
    131 H131        4.1625  -13.5061  -49.2428 H         1 UNK         0.0600 
    132 H132        1.9591  -14.4412  -48.5695 H         1 UNK         0.0800 
    133 H133        1.1322  -13.1766  -49.4394 H         1 UNK         0.0800 
    134 H134        3.6369  -16.5779  -51.1186 H         1 UNK         0.0800 
    135 H135        3.3633  -16.1692  -49.4478 H         1 UNK         0.0800 
    136 H136        0.0484  -16.4452  -50.5025 H         1 UNK         0.1150 
    137 H137       -0.3480  -20.6632  -49.9612 H         1 UNK         0.1150 
    138 H138        3.5497  -18.8899  -50.0275 H         1 UNK         0.1150 
    139 H139        1.5487  -22.0843  -49.8952 H         1 UNK         0.0800 
    140 H140        3.0236  -21.4663  -50.5828 H         1 UNK         0.0800 
    141 H141        1.1191  -20.3908  -47.3990 H         1 UNK         0.0800 
    142 H142        2.3203  -20.5751  -46.1672 H         1 UNK         0.0800 
    143 H143        1.8470  -23.0622  -46.0803 H         1 UNK         0.0600 
    144 H144        0.2843  -20.9886  -44.9923 H         1 UNK         0.3000 
    145 H145       -1.9183  -22.9549  -42.9769 H         1 UNK         0.0600 
    146 H146        0.1987  -22.6377  -41.7050 H         1 UNK         0.0600 
    147 H147        0.3791  -21.0186  -42.3677 H         1 UNK         0.0600 
    148 H148       -0.9713  -21.3903  -41.2997 H         1 UNK         0.0600 
    149 H149       -1.7187  -20.1388  -43.4191 H         1 UNK         0.3000 
    150 H150       -4.0430  -19.9906  -46.1553 H         1 UNK         0.0600 
    151 H151       -5.3729  -20.0661  -44.0300 H         1 UNK         0.0600 
    152 H152       -5.1378  -18.4223  -44.6036 H         1 UNK         0.0600 
    153 H153       -4.1827  -19.0275  -43.2513 H         1 UNK         0.0600 
    154 H154       -2.6392  -17.9133  -44.8483 H         1 UNK         0.3000 
    155 H155        0.3306  -18.0315  -46.9045 H         1 UNK         0.0600 
    156 H156       -0.3495  -15.6403  -47.1046 H         1 UNK         0.0600 
    157 H157       -1.3609  -16.6718  -48.1020 H         1 UNK         0.0600 
    158 H158       -1.9830  -16.0539  -46.5837 H         1 UNK         0.0600 
    159 H159       -0.2635  -16.3522  -44.7168 H         1 UNK         0.3000 
    160 H160        0.9470  -18.4649  -42.0805 H         1 UNK         0.0600 
    161 H161        2.0069  -15.9246  -43.4067 H         1 UNK         0.0600 
    162 H162        2.9427  -17.3784  -43.0787 H         1 UNK         0.0600 
    163 H163        2.3261  -16.4133  -41.7430 H         1 UNK         0.0600 
    164 H164       -0.1870  -15.7993  -42.2852 H         1 UNK         0.3000 
    165 H165       -3.5122  -16.7948  -41.4380 H         1 UNK         0.0600 
    166 H166       -3.0996  -15.1121  -39.6693 H         1 UNK         0.0600 
    167 H167       -2.2477  -16.6001  -39.2889 H         1 UNK         0.0600 
    168 H168       -1.3578  -15.2213  -39.9241 H         1 UNK         0.0600 
    169 H169       -2.3556  -14.2421  -41.9853 H         1 UNK         0.3000 
    170 H170       -2.9173  -14.2459  -45.5085 H         1 UNK         0.0600 
    171 H171       -5.1770  -13.8560  -44.5096 H         1 UNK         0.0600 
    172 H172       -4.4557  -12.8354  -43.2710 H         1 UNK         0.0600 
    173 H173       -4.3939  -12.3530  -44.9667 H         1 UNK         0.0600 
    174 H174       -2.1573  -12.0743  -44.0329 H         1 UNK         0.3000 
    175 H175        0.1186  -11.4815  -45.0277 H         1 UNK         0.0600 
    176 H176        0.1593  -11.8391  -41.9867 H         1 UNK         0.0600 
    177 H177        0.8244  -10.4363  -42.8220 H         1 UNK         0.0600 
    178 H178       -0.8886  -10.7877  -42.9233 H         1 UNK         0.0600 
    179 H179        2.1452  -12.2315  -45.2384 H         1 UNK         0.3000 
    180 H180        4.6930  -12.7071  -43.0164 H         1 UNK         0.0600 
    181 H181        3.8946  -15.0688  -44.7987 H         1 UNK         0.0600 
    182 H182        4.3707  -15.1450  -43.1022 H         1 UNK         0.0600 
    183 H183        5.5447  -14.6750  -44.3145 H         1 UNK         0.0600 
    184 H184        4.5659  -12.9261  -45.8907 H         1 UNK         0.3000 
    185 H185        3.9715   -9.6458  -46.6908 H         1 UNK         0.0600 
    186 H186        6.3147   -9.1545  -45.9599 H         1 UNK         0.0600 
    187 H187        6.8603  -10.6708  -46.6674 H         1 UNK         0.0600 
    188 H188        6.2225   -9.3891  -47.6975 H         1 UNK         0.0600 
    189 H189        5.1907  -11.4959  -48.3636 H         1 UNK         0.3000 
    190 H190       -1.1794  -21.5490  -47.3382 H         1 UNK         0.3000 
    191 H191       -1.4770  -23.1475  -49.6311 H         1 UNK         0.0600 
    192 H192       -2.7387  -21.0507  -49.2182 H         1 UNK         0.0600 
    193 H193       -3.6377  -21.8178  -47.9149 H         1 UNK         0.0600 
    194 H194       -3.8359  -22.3720  -49.5732 H         1 UNK         0.0600 
    195 H195       -2.7596  -23.6751  -46.3016 H         1 UNK         0.3000 
    196 H196       -4.1239  -26.0904  -46.8153 H         1 UNK         0.0600 
    197 H197       -3.9971  -26.3953  -44.3370 H         1 UNK         0.0600 
    198 H198       -4.4634  -24.7555  -44.7627 H         1 UNK         0.0600 
    199 H199       -2.8190  -25.0932  -44.2282 H         1 UNK         0.0600 
    200 H200       -0.7117  -25.5498  -45.8283 H         1 UNK         0.3000 
    201 H201        0.0295  -28.3013  -45.6714 H         1 UNK         0.0600 
    202 H202        1.3328  -26.4909  -44.5961 H         1 UNK         0.0600 
    203 H203        1.7379  -25.8054  -46.1673 H         1 UNK         0.0600 
    204 H204        2.3530  -27.3892  -45.7102 H         1 UNK         0.0600 
    205 H205        0.1447  -25.9432  -48.3616 H         1 UNK         0.3000 
    206 H206        1.3674  -27.7198  -50.2693 H         1 UNK         0.0600 
    207 H207        1.5253  -25.2361  -50.4016 H         1 UNK         0.0600 
    208 H208        0.7967  -25.8860  -51.8623 H         1 UNK         0.0600 
    209 H209       -0.2167  -25.1211  -50.6451 H         1 UNK         0.0600 
    210 H210       -1.8388  -27.4771  -49.1004 H         1 UNK         0.3000 
    211 H211       -3.8181  -28.3222  -49.5572 H         1 UNK         0.0600 
    212 H212       -2.5299  -30.1650  -51.6399 H         1 UNK         0.0600 
    213 H213       -4.1180  -30.3491  -50.9119 H         1 UNK         0.0600 
    214 H214       -2.6794  -30.5250  -49.9201 H         1 UNK         0.0600 
    215 H215       -3.1761  -25.9212  -50.5657 H         1 UNK         0.3000 
    216 H216       -4.4824  -25.6912  -53.2499 H         1 UNK         0.0600 
    217 H217       -2.1090  -24.8525  -53.1495 H         1 UNK         0.0600 
    218 H218       -2.5326  -23.8067  -51.7964 H         1 UNK         0.0600 
    219 H219       -3.2398  -23.5276  -53.3821 H         1 UNK         0.0600 
    220 H220       -5.7988  -23.6967  -53.4511 H         1 UNK         0.3000 
    221 H221       -7.5014  -23.1682  -51.1055 H         1 UNK         0.0600 
    222 H222       -7.6063  -22.1596  -54.0011 H         1 UNK         0.0600 
    223 H223       -8.5703  -23.4686  -53.3211 H         1 UNK         0.0600 
    224 H224       -8.8042  -21.8209  -52.7579 H         1 UNK         0.0600 
    225 H225       -6.9794  -21.5625  -49.7068 H         1 UNK         0.3000 
    226 H226       -4.7868  -19.8262  -49.9739 H         1 UNK         0.0600 
    227 H227       -5.7820  -20.5307  -47.8004 H         1 UNK         0.0600 
    228 H228       -5.6651  -18.7808  -47.9064 H         1 UNK         0.0600 
    229 H229       -7.2217  -19.5706  -48.1338 H         1 UNK         0.0600 
    230 H230       -8.1577  -19.3550  -50.8777 H         1 UNK         0.3000 
    231 H231       -8.0745  -16.5250  -51.3246 H         1 UNK         0.0600 
    232 H232      -10.2474  -16.9560  -52.4805 H         1 UNK         0.0600 
    233 H233      -10.1850  -17.7744  -50.9284 H         1 UNK         0.0600 
    234 H234       -9.9525  -18.6895  -52.4190 H         1 UNK         0.0600 
    235 H235       -6.8719  -19.2155  -53.2322 H         1 UNK         0.3000 
    236 H236       -6.9933  -17.7920  -55.7943 H         1 UNK         0.0600 
    237 H237       -7.2627  -20.2670  -55.7098 H         1 UNK         0.0600 
    238 H238       -5.8743  -19.7954  -56.6768 H         1 UNK         0.0600 
    239 H239       -5.6319  -20.4348  -55.0599 H         1 UNK         0.0600 
    240 H240       -4.4838  -18.7737  -53.3956 H         1 UNK         0.3000 
    241 H241       -2.4084  -17.2860  -54.8111 H         1 UNK         0.0600 
    242 H242       -4.5310  -16.5250  -51.9906 H         1 UNK         0.3800 
    243 H243       -3.8193  -14.9461  -51.7935 H         1 UNK         0.3800 
    244 H244       -1.6267  -19.3020  -53.9192 H         1 UNK         0.0800 
    245 H245       -0.8996  -18.0616  -52.9536 H         1 UNK         0.0800 
    246 H246       -2.1105  -17.3627  -50.4677 H         1 UNK         0.0800 
    247 H247       -2.2640  -18.7390  -49.4152 H         1 UNK         0.0800 
@<TRIPOS>BOND
     1    1    2 1    
     2    1  127 1    
     3    1  128 1    
     4    1  129 1    
     5    2    3 2    
     6    2    4 am   BACKBONE|DICT|INTERRES
     7    4    5 1    
     8    4  130 1    
     9    5    6 1    
    10    5   65 1    
    11    5  131 1    
    12    6    7 1    
    13    6  132 1    
    14    6  133 1    
    15    7    8 1    
    16    8    9 1    
    17    8  134 1    
    18    8  135 1    
    19    9   10 ar   
    20    9   14 ar   
    21   10   11 ar   
    22   10  136 1    
    23   11   12 ar   
    24   11  126 1    
    25   12   13 ar   
    26   12  137 1    
    27   13   14 ar   
    28   13   15 1    
    29   14  138 1    
    30   15   16 1    
    31   15  139 1    
    32   15  140 1    
    33   16   17 1    
    34   17   18 1    
    35   17  141 1    
    36   17  142 1    
    37   18   19 1    
    38   18   67 1    
    39   18  143 1    
    40   19   20 am   BACKBONE|DICT|INTERRES
    41   19  144 1    
    42   20   21 2    
    43   20   22 1    
    44   22   23 1    
    45   22   24 1    
    46   22  145 1    
    47   23  146 1    
    48   23  147 1    
    49   23  148 1    
    50   24   25 am   BACKBONE|DICT|INTERRES
    51   24  149 1    
    52   25   26 2    
    53   25   27 1    
    54   27   28 1    
    55   27   29 1    
    56   27  150 1    
    57   28  151 1    
    58   28  152 1    
    59   28  153 1    
    60   29   30 am   BACKBONE|DICT|INTERRES
    61   29  154 1    
    62   30   31 2    
    63   30   32 1    
    64   32   33 1    
    65   32   34 1    
    66   32  155 1    
    67   33  156 1    
    68   33  157 1    
    69   33  158 1    
    70   34   35 am   BACKBONE|DICT|INTERRES
    71   34  159 1    
    72   35   36 2    
    73   35   37 1    
    74   37   38 1    
    75   37   39 1    
    76   37  160 1    
    77   38  161 1    
    78   38  162 1    
    79   38  163 1    
    80   39   40 am   BACKBONE|DICT|INTERRES
    81   39  164 1    
    82   40   41 2    
    83   40   42 1    
    84   42   43 1    
    85   42   44 1    
    86   42  165 1    
    87   43  166 1    
    88   43  167 1    
    89   43  168 1    
    90   44   45 am   BACKBONE|DICT|INTERRES
    91   44  169 1    
    92   45   46 2    
    93   45   47 1    
    94   47   48 1    
    95   47   49 1    
    96   47  170 1    
    97   48  171 1    
    98   48  172 1    
    99   48  173 1    
   100   49   50 am   BACKBONE|DICT|INTERRES
   101   49  174 1    
   102   50   51 2    
   103   50   52 1    
   104   52   53 1    
   105   52   54 1    
   106   52  175 1    
   107   53  176 1    
   108   53  177 1    
   109   53  178 1    
   110   54   55 am   BACKBONE|DICT|INTERRES
   111   54  179 1    
   112   55   56 2    
   113   55   57 1    
   114   57   58 1    
   115   57   59 1    
   116   57  180 1    
   117   58  181 1    
   118   58  182 1    
   119   58  183 1    
   120   59   60 am   BACKBONE|DICT|INTERRES
   121   59  184 1    
   122   60   61 2    
   123   60   62 1    
   124   62   63 1    
   125   62   64 1    
   126   62  185 1    
   127   63  186 1    
   128   63  187 1    
   129   63  188 1    
   130   64   65 am   BACKBONE|DICT|INTERRES
   131   64  189 1    
   132   65   66 2    
   133   67   68 2    
   134   67   69 am   BACKBONE|DICT|INTERRES
   135   69   70 1    
   136   69  190 1    
   137   70   71 1    
   138   70   72 1    
   139   70  191 1    
   140   71  192 1    
   141   71  193 1    
   142   71  194 1    
   143   72   73 2    
   144   72   74 am   BACKBONE|DICT|INTERRES
   145   74   75 1    
   146   74  195 1    
   147   75   76 1    
   148   75   77 1    
   149   75  196 1    
   150   76  197 1    
   151   76  198 1    
   152   76  199 1    
   153   77   78 2    
   154   77   79 am   BACKBONE|DICT|INTERRES
   155   79   80 1    
   156   79  200 1    
   157   80   81 1    
   158   80   82 1    
   159   80  201 1    
   160   81  202 1    
   161   81  203 1    
   162   81  204 1    
   163   82   83 2    
   164   82   84 am   BACKBONE|DICT|INTERRES
   165   84   85 1    
   166   84  205 1    
   167   85   86 1    
   168   85   87 1    
   169   85  206 1    
   170   86  207 1    
   171   86  208 1    
   172   86  209 1    
   173   87   88 2    
   174   87   89 am   BACKBONE|DICT|INTERRES
   175   89   90 1    
   176   89  210 1    
   177   90   91 1    
   178   90   92 1    
   179   90  211 1    
   180   91  212 1    
   181   91  213 1    
   182   91  214 1    
   183   92   93 2    
   184   92   94 am   BACKBONE|DICT|INTERRES
   185   94   95 1    
   186   94  215 1    
   187   95   96 1    
   188   95   97 1    
   189   95  216 1    
   190   96  217 1    
   191   96  218 1    
   192   96  219 1    
   193   97   98 2    
   194   97   99 am   BACKBONE|DICT|INTERRES
   195   99  100 1    
   196   99  220 1    
   197  100  101 1    
   198  100  102 1    
   199  100  221 1    
   200  101  222 1    
   201  101  223 1    
   202  101  224 1    
   203  102  103 2    
   204  102  104 am   BACKBONE|DICT|INTERRES
   205  104  105 1    
   206  104  225 1    
   207  105  106 1    
   208  105  107 1    
   209  105  226 1    
   210  106  227 1    
   211  106  228 1    
   212  106  229 1    
   213  107  108 2    
   214  107  109 am   BACKBONE|DICT|INTERRES
   215  109  110 1    
   216  109  230 1    
   217  110  111 1    
   218  110  112 1    
   219  110  231 1    
   220  111  232 1    
   221  111  233 1    
   222  111  234 1    
   223  112  113 2    
   224  112  114 am   BACKBONE|DICT|INTERRES
   225  114  115 1    
   226  114  235 1    
   227  115  116 1    
   228  115  117 1    
   229  115  236 1    
   230  116  237 1    
   231  116  238 1    
   232  116  239 1    
   233  117  118 2    
   234  117  119 am   BACKBONE|DICT|INTERRES
   235  119  120 1    
   236  119  240 1    
   237  120  121 1    
   238  120  124 1    
   239  120  241 1    
   240  121  122 am   BACKBONE|DICT|INTERRES
   241  121  123 2    
   242  122  242 1    
   243  122  243 1    
   244  124  125 1    
   245  124  244 1    
   246  124  245 1    
   247  125  126 1    
   248  126  246 1    
   249  126  247 1    
@<TRIPOS>SUBSTRUCTURE
     1 UNK         1 GROUP             0       ****    0 ROOT    
