@<TRIPOS>MOLECULE
3R540
247   249    1
SMALL
USER_CHARGES


@<TRIPOS>ATOM
      1 CA         -1.3715  -10.1001  -44.1861 C.3       0 UNK        -0.1800 
      2 C          -0.7826  -10.1057  -45.5890 C.2       0 UNK         0.5000 
      3 O          -0.2925   -9.0763  -46.0545 O.2       0 UNK        -0.5000 
      4 N          -0.8367  -11.2573  -46.2720 N.am      1 UNK        -0.5000 
      5 CA         -0.3581  -11.4367  -47.6496 C.3       1 UNK         0.1400 
      6 C6         -0.8126  -12.7829  -48.2556 C.3       23 UNK        -0.0398 
      7 S7         -2.6245  -12.9984  -48.2861 S.3       23 UNK        -0.2404 
      8 C8         -2.8356  -14.0375  -49.7686 C.3       23 UNK        -0.0205 
      9 C9         -2.1080  -15.3684  -49.6407 C.ar      23 UNK        -0.0193 
     10 C10        -0.8490  -15.5396  -50.2235 C.ar      23 UNK        -0.1150 
     11 C11        -0.1669  -16.7519  -50.0998 C.ar      23 UNK        -0.0193 
     12 C12        -0.7601  -17.8034  -49.3966 C.ar      23 UNK        -0.1150 
     13 C13        -2.0220  -17.6484  -48.8160 C.ar      23 UNK        -0.0193 
     14 C14        -2.6905  -16.4274  -48.9386 C.ar      23 UNK        -0.1150 
     15 C15        -2.6441  -18.7913  -48.0325 C.3       23 UNK        -0.0205 
     16 S16        -3.3607  -20.0520  -49.1244 S.3       23 UNK        -0.2404 
     17 C17        -3.7707  -21.3525  -47.9160 C.3       23 UNK        -0.0398 
     18 CA         -2.7468  -22.5110  -47.9428 C.3       11 UNK         0.1400 
     19 N          -1.4029  -22.1042  -47.5252 N.am      11 UNK        -0.5000 
     20 C          -0.2946  -22.8255  -47.7415 C.2       10 UNK         0.5000 
     21 O          -0.2805  -23.8964  -48.3482 O.2       10 UNK        -0.5000 
     22 CA          1.0074  -22.2789  -47.1307 C.3       10 UNK         0.1400 
     23 CB          1.6249  -21.2007  -48.0331 C.3       10 UNK        -0.1800 
     24 N           0.8018  -21.7359  -45.7868 N.am      10 UNK        -0.5000 
     25 C           0.5032  -22.4871  -44.7158 C.2       9 UNK         0.5000 
     26 O           0.3875  -23.7115  -44.7539 O.2       9 UNK        -0.5000 
     27 CA          0.2494  -21.7534  -43.3851 C.3       9 UNK         0.1400 
     28 CB          1.5627  -21.5862  -42.6069 C.3       9 UNK        -0.1800 
     29 N          -0.3844  -20.4447  -43.5430 N.am      9 UNK        -0.5000 
     30 C          -1.5638  -20.2167  -44.1369 C.2       8 UNK         0.5000 
     31 O          -2.2734  -21.1002  -44.6191 O.2       8 UNK        -0.5000 
     32 CA         -2.0042  -18.7470  -44.2534 C.3       8 UNK         0.1400 
     33 CB         -2.8864  -18.3578  -43.0583 C.3       8 UNK        -0.1800 
     34 N          -0.9077  -17.7801  -44.3678 N.am      8 UNK        -0.5000 
     35 C           0.0777  -17.7731  -45.2795 C.2       7 UNK         0.5000 
     36 O           0.2631  -18.6866  -46.0845 O.2       7 UNK        -0.5000 
     37 CA          1.0473  -16.5697  -45.2646 C.3       7 UNK         0.1400 
     38 CB          1.2288  -15.9748  -46.6755 C.3       7 UNK        -0.1800 
     39 N           0.7047  -15.5331  -44.2757 N.am      7 UNK        -0.5000 
     40 C          -0.3323  -14.6792  -44.2881 C.2       6 UNK         0.5000 
     41 O          -1.1437  -14.5814  -45.2061 O.2       6 UNK        -0.5000 
     42 CA         -0.5201  -13.8088  -43.0324 C.3       6 UNK         0.1400 
     43 CB         -1.5139  -14.4756  -42.0686 C.3       6 UNK        -0.1800 
     44 N           0.7304  -13.5397  -42.3203 N.am      6 UNK        -0.5000 
     45 C           1.6613  -12.6798  -42.7490 C.2       5 UNK         0.5000 
     46 O           1.5622  -12.0381  -43.7970 O.2       5 UNK        -0.5000 
     47 CA          2.9143  -12.5410  -41.8706 C.3       5 UNK         0.1400 
     48 CB          4.0492  -13.4423  -42.3796 C.3       5 UNK        -0.1800 
     49 N           3.3743  -11.1566  -41.8710 N.am      5 UNK        -0.5000 
     50 C           3.1210  -10.2708  -40.8989 C.2       4 UNK         0.5000 
     51 O           2.5199  -10.5479  -39.8598 O.2       4 UNK        -0.5000 
     52 CA          3.6221   -8.8293  -41.1131 C.3       4 UNK         0.1400 
     53 CB          4.9819   -8.6248  -40.4276 C.3       4 UNK        -0.1800 
     54 N           3.7439   -8.4679  -42.5249 N.am      4 UNK        -0.5000 
     55 C           2.7109   -8.2674  -43.3527 C.2       3 UNK         0.5000 
     56 O           1.5328   -8.3103  -42.9971 O.2       3 UNK        -0.5000 
     57 CA          3.0464   -7.9693  -44.8259 C.3       3 UNK         0.1400 
     58 CB          4.3991   -7.2491  -45.0231 C.3       3 UNK        -0.1800 
     59 N           2.9705   -9.1720  -45.6571 N.am      3 UNK        -0.5000 
     60 C           3.6835  -10.3038  -45.5477 C.2       2 UNK         0.5000 
     61 O           4.5377  -10.5005  -44.6803 O.2       2 UNK        -0.5000 
     62 CA          3.3579  -11.3929  -46.5872 C.3       2 UNK         0.1400 
     63 CB          3.9773  -12.7656  -46.2699 C.3       2 UNK        -0.1800 
     64 N           1.9097  -11.5411  -46.6902 N.am      2 UNK        -0.5000 
     65 C           1.1750  -11.3008  -47.7827 C.2       1 UNK         0.5000 
     66 O           1.6555  -10.9703  -48.8674 O.2       1 UNK        -0.5000 
     67 C          -3.2445  -23.6954  -47.0976 C.2       11 UNK         0.5000 
     68 O          -3.8183  -24.6273  -47.6578 O.2       11 UNK        -0.5000 
     69 N          -2.9861  -23.6600  -45.7816 N.am      12 UNK        -0.5000 
     70 CA         -3.3296  -24.7228  -44.8361 C.3       12 UNK         0.1400 
     71 CB         -3.0279  -24.2603  -43.4035 C.3       12 UNK        -0.1800 
     72 C          -2.6157  -26.0506  -45.1474 C.2       12 UNK         0.5000 
     73 O          -3.2658  -27.0958  -45.1557 O.2       12 UNK        -0.5000 
     74 N          -1.3117  -25.9837  -45.4551 N.am      13 UNK        -0.5000 
     75 CA         -0.4945  -27.1266  -45.8751 C.3       13 UNK         0.1400 
     76 CB          0.9775  -26.6964  -45.9611 C.3       13 UNK        -0.1800 
     77 C          -0.9541  -27.7414  -47.2115 C.2       13 UNK         0.5000 
     78 O          -0.8759  -28.9580  -47.3831 O.2       13 UNK        -0.5000 
     79 N          -1.4544  -26.8917  -48.1169 N.am      14 UNK        -0.5000 
     80 CA         -2.0369  -27.2742  -49.4027 C.3       14 UNK         0.1400 
     81 CB         -1.8866  -26.0868  -50.3658 C.3       14 UNK        -0.1800 
     82 C          -3.5176  -27.6983  -49.3057 C.2       14 UNK         0.5000 
     83 O          -4.1076  -28.0448  -50.3324 O.2       14 UNK        -0.5000 
     84 N          -4.1148  -27.5995  -48.1065 N.am      15 UNK        -0.5000 
     85 CA         -5.5313  -27.8198  -47.7807 C.3       15 UNK         0.1400 
     86 CB         -5.8783  -29.3167  -47.9119 C.3       15 UNK        -0.1800 
     87 C          -6.5011  -26.9201  -48.5826 C.2       15 UNK         0.5000 
     88 O          -7.6652  -27.2810  -48.7630 O.2       15 UNK        -0.5000 
     89 N          -5.9840  -25.7881  -49.0870 N.am      16 UNK        -0.5000 
     90 CA         -6.5808  -24.8674  -50.0609 C.3       16 UNK         0.1400 
     91 CB         -7.7189  -24.0618  -49.4031 C.3       16 UNK        -0.1800 
     92 C          -7.0135  -25.5471  -51.3837 C.2       16 UNK         0.5000 
     93 O          -7.8975  -25.0311  -52.0705 O.2       16 UNK        -0.5000 
     94 N          -6.4040  -26.6968  -51.7076 N.am      17 UNK        -0.5000 
     95 CA         -6.7799  -27.5610  -52.8247 C.3       17 UNK         0.1400 
     96 CB         -7.3383  -28.8810  -52.2688 C.3       17 UNK        -0.1800 
     97 C          -5.5895  -27.8274  -53.7546 C.2       17 UNK         0.5000 
     98 O          -5.7537  -27.7712  -54.9739 O.2       17 UNK        -0.5000 
     99 N          -4.4103  -28.1007  -53.1776 N.am      18 UNK        -0.5000 
    100 CA        -3.1776  -28.3705  -53.9235 C.3       18 UNK         0.1400 
    101 CB        -2.2023  -29.1430  -53.0219 C.3       18 UNK        -0.1800 
    102 C         -2.5145  -27.0946  -54.4796 C.2       18 UNK         0.5000 
    103 O         -1.6737  -27.1923  -55.3745 O.2       18 UNK        -0.5000 
    104 N         -2.8997  -25.9289  -53.9494 N.am      19 UNK        -0.5000 
    105 CA        -2.4352  -24.6091  -54.3505 C.3       19 UNK         0.1400 
    106 CB        -1.0834  -24.2969  -53.6831 C.3       19 UNK        -0.1800 
    107 C         -3.4948  -23.5751  -53.9497 C.2       19 UNK         0.5000 
    108 O         -4.2489  -23.8027  -52.9985 O.2       19 UNK        -0.5000 
    109 N         -3.5120  -22.4562  -54.6791 N.am      20 UNK        -0.5000 
    110 CA        -4.3183  -21.2719  -54.3904 C.3       20 UNK         0.1400 
    111 CB        -4.7087  -20.6207  -55.7296 C.3       20 UNK        -0.1800 
    112 C         -3.5321  -20.2850  -53.5047 C.2       20 UNK         0.5000 
    113 O         -2.3626  -20.5242  -53.1912 O.2       20 UNK        -0.5000 
    114 N         -4.1732  -19.1632  -53.1530 N.am      21 UNK        -0.5000 
    115 CA        -3.6285  -18.0630  -52.3480 C.3       21 UNK         0.1400 
    116 CB        -4.8082  -17.2472  -51.7880 C.3       21 UNK        -0.1800 
    117 C         -2.5975  -17.1881  -53.1000 C.2       21 UNK         0.5000 
    118 O         -2.7116  -15.9615  -53.1069 O.2       21 UNK        -0.5000 
    119 N         -1.6157  -17.8438  -53.7299 N.am      22 UNK        -0.5000 
    120 CA        -0.4518  -17.2675  -54.4261 C.3       22 UNK         0.1400 
    121 C         -0.7795  -16.3527  -55.6480 C.2       22 UNK         0.5000 
    122 N         -1.9729  -16.4221  -56.2248 N.am      22 UNK        -0.7600 
    123 O          0.0693  -15.5944  -56.1101 O.2       22 UNK        -0.5000 
    124 C124        0.5685  -16.6293  -53.4425 C.3       23 UNK        -0.0398 
    125 S125        1.2222  -17.8500  -52.2479 S.3       23 UNK        -0.2404 
    126 C126        1.2265  -16.9134  -50.6879 C.3       23 UNK        -0.0205 
    127 H127       -2.1032  -10.8974  -44.0560 H         1 UNK         0.0600 
    128 H128       -1.8711   -9.1515  -43.9897 H         1 UNK         0.0600 
    129 H129       -0.5804  -10.2273  -43.4470 H         1 UNK         0.0600 
    130 H130       -1.2589  -12.0755  -45.8543 H         1 UNK         0.3000 
    131 H131       -0.7967  -10.6373  -48.2508 H         1 UNK         0.0600 
    132 H132       -0.3809  -13.6171  -47.7028 H         1 UNK         0.0800 
    133 H133       -0.4415  -12.8641  -49.2783 H         1 UNK         0.0800 
    134 H134       -3.8999  -14.2172  -49.9257 H         1 UNK         0.0800 
    135 H135       -2.4878  -13.4946  -50.6489 H         1 UNK         0.0800 
    136 H136       -0.3950  -14.7240  -50.7675 H         1 UNK         0.1150 
    137 H137       -0.2367  -18.7428  -49.2960 H         1 UNK         0.1150 
    138 H138       -3.6623  -16.2963  -48.4839 H         1 UNK         0.1150 
    139 H139       -1.8817  -19.2520  -47.4067 H         1 UNK         0.0800 
    140 H140       -3.4195  -18.4159  -47.3635 H         1 UNK         0.0800 
    141 H141       -4.7662  -21.7210  -48.1713 H         1 UNK         0.0800 
    142 H142       -3.8545  -20.9239  -46.9157 H         1 UNK         0.0800 
    143 H143       -2.6787  -22.8657  -48.9740 H         1 UNK         0.0600 
    144 H144       -1.3314  -21.2629  -46.9730 H         1 UNK         0.3000 
    145 H145        1.7150  -23.1078  -47.0595 H         1 UNK         0.0600 
    146 H146        2.5824  -20.8586  -47.6403 H         1 UNK         0.0600 
    147 H147        1.8028  -21.5861  -49.0378 H         1 UNK         0.0600 
    148 H148        0.9732  -20.3325  -48.1252 H         1 UNK         0.0600 
    149 H149        0.8239  -20.7266  -45.6939 H         1 UNK         0.3000 
    150 H150       -0.4222  -22.3724  -42.7882 H         1 UNK         0.0600 
    151 H151        2.0502  -22.5498  -42.4523 H         1 UNK         0.0600 
    152 H152        1.3863  -21.1516  -41.6228 H         1 UNK         0.0600 
    153 H153        2.2661  -20.9436  -43.1380 H         1 UNK         0.0600 
    154 H154        0.1288  -19.6493  -43.1935 H         1 UNK         0.3000 
    155 H155       -2.6089  -18.6612  -45.1555 H         1 UNK         0.0600 
    156 H156       -2.3279  -18.3795  -42.1217 H         1 UNK         0.0600 
    157 H157       -3.7294  -19.0425  -42.9544 H         1 UNK         0.0600 
    158 H158       -3.2980  -17.3557  -43.1810 H         1 UNK         0.0600 
    159 H159       -0.9571  -16.9863  -43.7487 H         1 UNK         0.3000 
    160 H160        2.0141  -16.9663  -44.9520 H         1 UNK         0.0600 
    161 H161        0.2695  -15.7452  -47.1389 H         1 UNK         0.0600 
    162 H162        1.7353  -16.6832  -47.3319 H         1 UNK         0.0600 
    163 H163        1.8254  -15.0630  -46.6546 H         1 UNK         0.0600 
    164 H164        1.3006  -15.5112  -43.4605 H         1 UNK         0.3000 
    165 H165       -0.9481  -12.8584  -43.3528 H         1 UNK         0.0600 
    166 H166       -2.4656  -14.6751  -42.5634 H         1 UNK         0.0600 
    167 H167       -1.1359  -15.4255  -41.6884 H         1 UNK         0.0600 
    168 H168       -1.7243  -13.8324  -41.2138 H         1 UNK         0.0600 
    169 H169        0.8701  -14.0264  -41.4462 H         1 UNK         0.3000 
    170 H170        2.6640  -12.8588  -40.8563 H         1 UNK         0.0600 
    171 H171        3.7126  -14.4712  -42.5121 H         1 UNK         0.0600 
    172 H172        4.4455  -13.0952  -43.3330 H         1 UNK         0.0600 
    173 H173        4.8766  -13.4605  -41.6702 H         1 UNK         0.0600 
    174 H174        3.8084  -10.8332  -42.7292 H         1 UNK         0.3000 
    175 H175        2.8999   -8.1554  -40.6474 H         1 UNK         0.0600 
    176 H176        5.7516   -9.2638  -40.8624 H         1 UNK         0.0600 
    177 H177        5.3154   -7.5904  -40.5126 H         1 UNK         0.0600 
    178 H178        4.9223   -8.8596  -39.3640 H         1 UNK         0.0600 
    179 H179        4.6764   -8.4532  -42.9124 H         1 UNK         0.3000 
    180 H180        2.2651   -7.2985  -45.1869 H         1 UNK         0.0600 
    181 H181        4.5230   -6.9367  -46.0601 H         1 UNK         0.0600 
    182 H182        5.2516   -7.8789  -44.7679 H         1 UNK         0.0600 
    183 H183        4.4562   -6.3500  -44.4082 H         1 UNK         0.0600 
    184 H184        2.2339   -9.1590  -46.3498 H         1 UNK         0.3000 
    185 H185        3.7839  -11.0468  -47.5308 H         1 UNK         0.0600 
    186 H186        3.8465  -13.4507  -47.1074 H         1 UNK         0.0600 
    187 H187        5.0485  -12.6888  -46.0801 H         1 UNK         0.0600 
    188 H188        3.5114  -13.2235  -45.3986 H         1 UNK         0.0600 
    189 H189        1.4417  -11.7495  -45.8125 H         1 UNK         0.3000 
    190 H190       -2.5512  -22.8281  -45.3917 H         1 UNK         0.3000 
    191 H191       -4.4046  -24.8971  -44.9159 H         1 UNK         0.0600 
    192 H192       -3.3516  -25.0071  -42.6776 H         1 UNK         0.0600 
    193 H193       -3.5476  -23.3309  -43.1694 H         1 UNK         0.0600 
    194 H194       -1.9619  -24.0969  -43.2502 H         1 UNK         0.0600 
    195 H195       -0.8319  -25.0909  -45.3785 H         1 UNK         0.3000 
    196 H196       -0.5807  -27.8996  -45.1088 H         1 UNK         0.0600 
    197 H197        1.1177  -25.8879  -46.6799 H         1 UNK         0.0600 
    198 H198        1.3436  -26.3511  -44.9941 H         1 UNK         0.0600 
    199 H199        1.6123  -27.5275  -46.2707 H         1 UNK         0.0600 
    200 H200       -1.4500  -25.9020  -47.9044 H         1 UNK         0.3000 
    201 H201       -1.4806  -28.1206  -49.8093 H         1 UNK         0.0600 
    202 H202       -0.8392  -25.8125  -50.4930 H         1 UNK         0.0600 
    203 H203       -2.4214  -25.2061  -50.0091 H         1 UNK         0.0600 
    204 H204       -2.2793  -26.3269  -51.3515 H         1 UNK         0.0600 
    205 H205       -3.5512  -27.2715  -47.3320 H         1 UNK         0.3000 
    206 H206       -5.6509  -27.5379  -46.7338 H         1 UNK         0.0600 
    207 H207       -5.1857  -29.9328  -47.3385 H         1 UNK         0.0600 
    208 H208       -6.8808  -29.5226  -47.5354 H         1 UNK         0.0600 
    209 H209       -5.8438  -29.6498  -48.9498 H         1 UNK         0.0600 
    210 H210       -5.0455  -25.5426  -48.7810 H         1 UNK         0.3000 
    211 H211       -5.7916  -24.1644  -50.3320 H         1 UNK         0.0600 
    212 H212       -8.0793  -23.2754  -50.0671 H         1 UNK         0.0600 
    213 H213       -7.3797  -23.5792  -48.4865 H         1 UNK         0.0600 
    214 H214       -8.5696  -24.6966  -49.1537 H         1 UNK         0.0600 
    215 H215       -5.6795  -27.0489  -51.0912 H         1 UNK         0.3000 
    216 H216       -7.5602  -27.0927  -53.4282 H         1 UNK         0.0600 
    217 H217       -6.6073  -29.3978  -51.6454 H         1 UNK         0.0600 
    218 H218       -7.6231  -29.5576  -53.0755 H         1 UNK         0.0600 
    219 H219       -8.2264  -28.7049  -51.6613 H         1 UNK         0.0600 
    220 H220       -4.3434  -28.1433  -52.1634 H         1 UNK         0.3000 
    221 H221       -3.4200  -29.0090  -54.7757 H         1 UNK         0.0600 
    222 H222       -2.6555  -30.0592  -52.6430 H         1 UNK         0.0600 
    223 H223       -1.8846  -28.5482  -52.1672 H         1 UNK         0.0600 
    224 H224       -1.3049  -29.4279  -53.5724 H         1 UNK         0.0600 
    225 H225       -3.6338  -25.9182  -53.2532 H         1 UNK         0.3000 
    226 H226       -2.3211  -24.5868  -55.4364 H         1 UNK         0.0600 
    227 H227       -1.1656  -24.2882  -52.5959 H         1 UNK         0.0600 
    228 H228       -0.3241  -25.0295  -53.9566 H         1 UNK         0.0600 
    229 H229       -0.7143  -23.3171  -53.9889 H         1 UNK         0.0600 
    230 H230       -2.8182  -22.3439  -55.4039 H         1 UNK         0.3000 
    231 H231       -5.2281  -21.5601  -53.8594 H         1 UNK         0.0600 
    232 H232       -3.8347  -20.2544  -56.2700 H         1 UNK         0.0600 
    233 H233       -5.3822  -19.7759  -55.5827 H         1 UNK         0.0600 
    234 H234       -5.2261  -21.3310  -56.3751 H         1 UNK         0.0600 
    235 H235       -5.1196  -19.0324  -53.4789 H         1 UNK         0.3000 
    236 H236       -3.0904  -18.4917  -51.5026 H         1 UNK         0.0600 
    237 H237       -5.4550  -17.8680  -51.1677 H         1 UNK         0.0600 
    238 H238       -4.4613  -16.4245  -51.1637 H         1 UNK         0.0600 
    239 H239       -5.4144  -16.8177  -52.5862 H         1 UNK         0.0600 
    240 H240       -1.6230  -18.8570  -53.6492 H         1 UNK         0.3000 
    241 H241        0.0483  -18.1233  -54.8807 H         1 UNK         0.0600 
    242 H242       -2.1756  -15.8375  -57.0204 H         1 UNK         0.3800 
    243 H243       -2.6832  -17.0325  -55.8547 H         1 UNK         0.3800 
    244 H244        0.1126  -15.7888  -52.9196 H         1 UNK         0.0800 
    245 H245        1.4259  -16.2226  -53.9808 H         1 UNK         0.0800 
    246 H246        1.8562  -17.4389  -49.9684 H         1 UNK         0.0800 
    247 H247        1.6967  -15.9415  -50.8460 H         1 UNK         0.0800 
@<TRIPOS>BOND
     1    1    2 1    
     2    1  127 1    
     3    1  128 1    
     4    1  129 1    
     5    2    3 2    
     6    2    4 am   BACKBONE|DICT|INTERRES
     7    4    5 1    
     8    4  130 1    
     9    5    6 1    
    10    5   65 1    
    11    5  131 1    
    12    6    7 1    
    13    6  132 1    
    14    6  133 1    
    15    7    8 1    
    16    8    9 1    
    17    8  134 1    
    18    8  135 1    
    19    9   10 ar   
    20    9   14 ar   
    21   10   11 ar   
    22   10  136 1    
    23   11   12 ar   
    24   11  126 1    
    25   12   13 ar   
    26   12  137 1    
    27   13   14 ar   
    28   13   15 1    
    29   14  138 1    
    30   15   16 1    
    31   15  139 1    
    32   15  140 1    
    33   16   17 1    
    34   17   18 1    
    35   17  141 1    
    36   17  142 1    
    37   18   19 1    
    38   18   67 1    
    39   18  143 1    
    40   19   20 am   BACKBONE|DICT|INTERRES
    41   19  144 1    
    42   20   21 2    
    43   20   22 1    
    44   22   23 1    
    45   22   24 1    
    46   22  145 1    
    47   23  146 1    
    48   23  147 1    
    49   23  148 1    
    50   24   25 am   BACKBONE|DICT|INTERRES
    51   24  149 1    
    52   25   26 2    
    53   25   27 1    
    54   27   28 1    
    55   27   29 1    
    56   27  150 1    
    57   28  151 1    
    58   28  152 1    
    59   28  153 1    
    60   29   30 am   BACKBONE|DICT|INTERRES
    61   29  154 1    
    62   30   31 2    
    63   30   32 1    
    64   32   33 1    
    65   32   34 1    
    66   32  155 1    
    67   33  156 1    
    68   33  157 1    
    69   33  158 1    
    70   34   35 am   BACKBONE|DICT|INTERRES
    71   34  159 1    
    72   35   36 2    
    73   35   37 1    
    74   37   38 1    
    75   37   39 1    
    76   37  160 1    
    77   38  161 1    
    78   38  162 1    
    79   38  163 1    
    80   39   40 am   BACKBONE|DICT|INTERRES
    81   39  164 1    
    82   40   41 2    
    83   40   42 1    
    84   42   43 1    
    85   42   44 1    
    86   42  165 1    
    87   43  166 1    
    88   43  167 1    
    89   43  168 1    
    90   44   45 am   BACKBONE|DICT|INTERRES
    91   44  169 1    
    92   45   46 2    
    93   45   47 1    
    94   47   48 1    
    95   47   49 1    
    96   47  170 1    
    97   48  171 1    
    98   48  172 1    
    99   48  173 1    
   100   49   50 am   BACKBONE|DICT|INTERRES
   101   49  174 1    
   102   50   51 2    
   103   50   52 1    
   104   52   53 1    
   105   52   54 1    
   106   52  175 1    
   107   53  176 1    
   108   53  177 1    
   109   53  178 1    
   110   54   55 am   BACKBONE|DICT|INTERRES
   111   54  179 1    
   112   55   56 2    
   113   55   57 1    
   114   57   58 1    
   115   57   59 1    
   116   57  180 1    
   117   58  181 1    
   118   58  182 1    
   119   58  183 1    
   120   59   60 am   BACKBONE|DICT|INTERRES
   121   59  184 1    
   122   60   61 2    
   123   60   62 1    
   124   62   63 1    
   125   62   64 1    
   126   62  185 1    
   127   63  186 1    
   128   63  187 1    
   129   63  188 1    
   130   64   65 am   BACKBONE|DICT|INTERRES
   131   64  189 1    
   132   65   66 2    
   133   67   68 2    
   134   67   69 am   BACKBONE|DICT|INTERRES
   135   69   70 1    
   136   69  190 1    
   137   70   71 1    
   138   70   72 1    
   139   70  191 1    
   140   71  192 1    
   141   71  193 1    
   142   71  194 1    
   143   72   73 2    
   144   72   74 am   BACKBONE|DICT|INTERRES
   145   74   75 1    
   146   74  195 1    
   147   75   76 1    
   148   75   77 1    
   149   75  196 1    
   150   76  197 1    
   151   76  198 1    
   152   76  199 1    
   153   77   78 2    
   154   77   79 am   BACKBONE|DICT|INTERRES
   155   79   80 1    
   156   79  200 1    
   157   80   81 1    
   158   80   82 1    
   159   80  201 1    
   160   81  202 1    
   161   81  203 1    
   162   81  204 1    
   163   82   83 2    
   164   82   84 am   BACKBONE|DICT|INTERRES
   165   84   85 1    
   166   84  205 1    
   167   85   86 1    
   168   85   87 1    
   169   85  206 1    
   170   86  207 1    
   171   86  208 1    
   172   86  209 1    
   173   87   88 2    
   174   87   89 am   BACKBONE|DICT|INTERRES
   175   89   90 1    
   176   89  210 1    
   177   90   91 1    
   178   90   92 1    
   179   90  211 1    
   180   91  212 1    
   181   91  213 1    
   182   91  214 1    
   183   92   93 2    
   184   92   94 am   BACKBONE|DICT|INTERRES
   185   94   95 1    
   186   94  215 1    
   187   95   96 1    
   188   95   97 1    
   189   95  216 1    
   190   96  217 1    
   191   96  218 1    
   192   96  219 1    
   193   97   98 2    
   194   97   99 am   BACKBONE|DICT|INTERRES
   195   99  100 1    
   196   99  220 1    
   197  100  101 1    
   198  100  102 1    
   199  100  221 1    
   200  101  222 1    
   201  101  223 1    
   202  101  224 1    
   203  102  103 2    
   204  102  104 am   BACKBONE|DICT|INTERRES
   205  104  105 1    
   206  104  225 1    
   207  105  106 1    
   208  105  107 1    
   209  105  226 1    
   210  106  227 1    
   211  106  228 1    
   212  106  229 1    
   213  107  108 2    
   214  107  109 am   BACKBONE|DICT|INTERRES
   215  109  110 1    
   216  109  230 1    
   217  110  111 1    
   218  110  112 1    
   219  110  231 1    
   220  111  232 1    
   221  111  233 1    
   222  111  234 1    
   223  112  113 2    
   224  112  114 am   BACKBONE|DICT|INTERRES
   225  114  115 1    
   226  114  235 1    
   227  115  116 1    
   228  115  117 1    
   229  115  236 1    
   230  116  237 1    
   231  116  238 1    
   232  116  239 1    
   233  117  118 2    
   234  117  119 am   BACKBONE|DICT|INTERRES
   235  119  120 1    
   236  119  240 1    
   237  120  121 1    
   238  120  124 1    
   239  120  241 1    
   240  121  122 am   BACKBONE|DICT|INTERRES
   241  121  123 2    
   242  122  242 1    
   243  122  243 1    
   244  124  125 1    
   245  124  244 1    
   246  124  245 1    
   247  125  126 1    
   248  126  246 1    
   249  126  247 1    
@<TRIPOS>SUBSTRUCTURE
     1 UNK         1 GROUP             0       ****    0 ROOT    
