@<TRIPOS>MOLECULE
3R540
247   249    1
SMALL
USER_CHARGES


@<TRIPOS>ATOM
      1 CA         -6.2630  -10.9039  -48.3231 C.3       0 UNK        -0.1800 
      2 C          -4.9080  -11.5624  -48.5391 C.2       0 UNK         0.5000 
      3 O          -4.2632  -11.3203  -49.5590 O.2       0 UNK        -0.5000 
      4 N          -4.4682  -12.3863  -47.5794 N.am      1 UNK        -0.5000 
      5 CA         -3.2040  -13.1331  -47.6302 C.3       1 UNK         0.1400 
      6 C6         -3.2124  -14.3677  -46.6926 C.3       23 UNK        -0.0398 
      7 S7         -4.5493  -15.5709  -47.0085 S.3       23 UNK        -0.2404 
      8 C8         -4.2703  -16.0880  -48.7384 C.3       23 UNK        -0.0205 
      9 C9         -2.8094  -16.3704  -49.0747 C.ar      23 UNK        -0.0193 
     10 C10        -2.1861  -15.6666  -50.1105 C.ar      23 UNK        -0.1150 
     11 C11        -0.8372  -15.8730  -50.4117 C.ar      23 UNK        -0.0193 
     12 C12        -0.1151  -16.8105  -49.6645 C.ar      23 UNK        -0.1150 
     13 C13        -0.7270  -17.5359  -48.6379 C.ar      23 UNK        -0.0193 
     14 C14        -2.0769  -17.3164  -48.3508 C.ar      23 UNK        -0.1150 
     15 C15         0.0907  -18.5237  -47.8197 C.3       23 UNK        -0.0205 
     16 S16        -0.0830  -20.2243  -48.4392 S.3       23 UNK        -0.2404 
     17 C17        -1.5789  -20.8203  -47.5767 C.3       23 UNK        -0.0398 
     18 CA         -1.3752  -22.2509  -47.0268 C.3       11 UNK         0.1400 
     19 N          -0.3160  -22.3318  -46.0150 N.am      11 UNK        -0.5000 
     20 C           0.3162  -23.4702  -45.7002 C.2       10 UNK         0.5000 
     21 O           0.0463  -24.5603  -46.2028 O.2       10 UNK        -0.5000 
     22 CA          1.3971  -23.3820  -44.6104 C.3       10 UNK         0.1400 
     23 CB          2.6950  -22.7870  -45.1773 C.3       10 UNK        -0.1800 
     24 N           0.9824  -22.6100  -43.4374 N.am      10 UNK        -0.5000 
     25 C          -0.0495  -22.9126  -42.6358 C.2       9 UNK         0.5000 
     26 O          -0.8416  -23.8243  -42.8743 O.2       9 UNK        -0.5000 
     27 CA         -0.2446  -22.0405  -41.3757 C.3       9 UNK         0.1400 
     28 CB         -0.8268  -22.8380  -40.1907 C.3       9 UNK        -0.1800 
     29 N           0.9567  -21.2940  -40.9751 N.am      9 UNK        -0.5000 
     30 C           2.1339  -21.7875  -40.5533 C.2       8 UNK         0.5000 
     31 O           2.3507  -22.9891  -40.3956 O.2       8 UNK        -0.5000 
     32 CA          3.2831  -20.7842  -40.3104 C.3       8 UNK         0.1400 
     33 CB          4.4772  -21.1017  -41.2269 C.3       8 UNK        -0.1800 
     34 N           2.8858  -19.3938  -40.5426 N.am      8 UNK        -0.5000 
     35 C           2.3499  -18.5785  -39.6250 C.2       7 UNK         0.5000 
     36 O           2.1891  -18.8855  -38.4436 O.2       7 UNK        -0.5000 
     37 CA          1.8803  -17.1980  -40.1280 C.3       7 UNK         0.1400 
     38 CB          2.9987  -16.1562  -39.9760 C.3       7 UNK        -0.1800 
     39 N           1.4214  -17.2070  -41.5219 N.am      7 UNK        -0.5000 
     40 C           0.3708  -17.8934  -41.9884 C.2       6 UNK         0.5000 
     41 O          -0.3182  -18.6248  -41.2766 O.2       6 UNK        -0.5000 
     42 CA          0.0527  -17.7614  -43.4945 C.3       6 UNK         0.1400 
     43 CB         -1.2653  -18.4671  -43.8722 C.3       6 UNK        -0.1800 
     44 N          -0.0162  -16.3714  -43.9502 N.am      6 UNK        -0.5000 
     45 C           1.0250  -15.5591  -44.1736 C.2       5 UNK         0.5000 
     46 O           2.1961  -15.8574  -43.9241 O.2       5 UNK        -0.5000 
     47 CA          0.6851  -14.1655  -44.7352 C.3       5 UNK         0.1400 
     48 CB          0.6414  -13.1270  -43.6043 C.3       5 UNK        -0.1800 
     49 N           1.6015  -13.6960  -45.7780 N.am      5 UNK        -0.5000 
     50 C           1.9160  -14.3570  -46.9019 C.2       4 UNK         0.5000 
     51 O           1.5526  -15.5058  -47.1531 O.2       4 UNK        -0.5000 
     52 CA          2.7083  -13.5555  -47.9461 C.3       4 UNK         0.1400 
     53 CB          3.1293  -14.4045  -49.1642 C.3       4 UNK        -0.1800 
     54 N           1.8879  -12.4229  -48.3713 N.am      4 UNK        -0.5000 
     55 C           2.3382  -11.3209  -48.9848 C.2       3 UNK         0.5000 
     56 O           3.5247  -11.1289  -49.2549 O.2       3 UNK        -0.5000 
     57 CA          1.2996  -10.2421  -49.3642 C.3       3 UNK         0.1400 
     58 CB          0.8255  -10.4471  -50.8115 C.3       3 UNK        -0.1800 
     59 N           0.1289  -10.2090  -48.4857 N.am      3 UNK        -0.5000 
     60 C           0.1512   -9.8940  -47.1840 C.2       2 UNK         0.5000 
     61 O           1.1595   -9.4949  -46.6002 O.2       2 UNK        -0.5000 
     62 CA         -1.1580  -10.0680  -46.3826 C.3       2 UNK         0.1400 
     63 CB         -1.8331   -8.7044  -46.1684 C.3       2 UNK        -0.1800 
     64 N          -2.1567  -11.0010  -46.9250 N.am      2 UNK        -0.5000 
     65 C          -1.9627  -12.2676  -47.3238 C.2       1 UNK         0.5000 
     66 O          -0.8509  -12.7776  -47.4388 O.2       1 UNK        -0.5000 
     67 C          -2.6998  -22.8732  -46.5396 C.2       11 UNK         0.5000 
     68 O          -3.4626  -23.3786  -47.3643 O.2       11 UNK        -0.5000 
     69 N          -2.9311  -22.8740  -45.2184 N.am      12 UNK        -0.5000 
     70 CA         -4.0578  -23.5601  -44.5852 C.3       12 UNK         0.1400 
     71 CB         -4.2492  -23.0433  -43.1510 C.3       12 UNK        -0.1800 
     72 C          -3.8694  -25.0871  -44.6122 C.2       12 UNK         0.5000 
     73 O          -4.8025  -25.8058  -44.9698 O.2       12 UNK        -0.5000 
     74 N          -2.6501  -25.5517  -44.3005 N.am      13 UNK        -0.5000 
     75 CA         -2.2367  -26.9555  -44.3895 C.3       13 UNK         0.1400 
     76 CB         -0.8351  -27.1138  -43.7813 C.3       13 UNK        -0.1800 
     77 C          -2.2760  -27.5038  -45.8302 C.2       13 UNK         0.5000 
     78 O          -2.6243  -28.6676  -46.0298 O.2       13 UNK        -0.5000 
     79 N          -1.9735  -26.6396  -46.8086 N.am      14 UNK        -0.5000 
     80 CA         -2.0998  -26.8995  -48.2447 C.3       14 UNK         0.1400 
     81 CB         -1.2113  -25.9044  -49.0098 C.3       14 UNK        -0.1800 
     82 C          -3.5523  -26.8338  -48.7668 C.2       14 UNK         0.5000 
     83 O          -3.7547  -26.9898  -49.9709 O.2       14 UNK        -0.5000 
     84 N          -4.5326  -26.5739  -47.8867 N.am      15 UNK        -0.5000 
     85 CA         -5.9705  -26.4770  -48.1654 C.3       15 UNK         0.1400 
     86 CB         -6.5423  -27.8594  -48.5429 C.3       15 UNK        -0.1800 
     87 C          -6.3121  -25.3794  -49.1951 C.2       15 UNK         0.5000 
     88 O          -7.1835  -25.5733  -50.0442 O.2       15 UNK        -0.5000 
     89 N          -5.5908  -24.2527  -49.1055 N.am      16 UNK        -0.5000 
     90 CA         -5.6629  -23.0638  -49.9580 C.3       16 UNK         0.1400 
     91 CB         -7.0663  -22.4244  -49.9250 C.3       16 UNK        -0.1800 
     92 C          -5.1442  -23.2639  -51.3973 C.2       16 UNK         0.5000 
     93 O          -5.2393  -22.3292  -52.1929 O.2       16 UNK        -0.5000 
     94 N          -4.5465  -24.4230  -51.7165 N.am      17 UNK        -0.5000 
     95 CA         -3.9242  -24.6787  -53.0210 C.3       17 UNK         0.1400 
     96 CB         -3.5568  -26.1642  -53.1444 C.3       17 UNK        -0.1800 
     97 C          -2.6879  -23.7909  -53.2540 C.2       17 UNK         0.5000 
     98 O          -2.5019  -23.2681  -54.3531 O.2       17 UNK        -0.5000 
     99 N          -1.8970  -23.5906  -52.1905 N.am      18 UNK        -0.5000 
    100 CA        -0.7548  -22.6786  -52.1783 C.3       18 UNK         0.1400 
    101 CB         0.1078  -22.9548  -50.9409 C.3       18 UNK        -0.1800 
    102 C         -1.1852  -21.2015  -52.2376 C.2       18 UNK         0.5000 
    103 O         -0.5148  -20.4111  -52.8979 O.2       18 UNK        -0.5000 
    104 N         -2.3182  -20.8622  -51.6026 N.am      19 UNK        -0.5000 
    105 CA        -2.9255  -19.5297  -51.6669 C.3       19 UNK         0.1400 
    106 CB        -4.0654  -19.4083  -50.6453 C.3       19 UNK        -0.1800 
    107 C         -3.4341  -19.1922  -53.0792 C.2       19 UNK         0.5000 
    108 O         -3.2253  -18.0737  -53.5474 O.2       19 UNK        -0.5000 
    109 N         -4.0555  -20.1754  -53.7459 N.am      20 UNK        -0.5000 
    110 CA        -4.5167  -20.0800  -55.1314 C.3       20 UNK         0.1400 
    111 CB        -5.3670  -21.3127  -55.4734 C.3       20 UNK        -0.1800 
    112 C         -3.3627  -19.9111  -56.1384 C.2       20 UNK         0.5000 
    113 O         -3.5146  -19.1702  -57.1103 O.2       20 UNK        -0.5000 
    114 N         -2.2281  -20.5774  -55.8795 N.am      21 UNK        -0.5000 
    115 CA        -0.9892  -20.4242  -56.6444 C.3       21 UNK         0.1400 
    116 CB        -0.0318  -21.5768  -56.3040 C.3       21 UNK        -0.1800 
    117 C         -0.3173  -19.0576  -56.4026 C.2       21 UNK         0.5000 
    118 O          0.1552  -18.4351  -57.3545 O.2       21 UNK        -0.5000 
    119 N         -0.2950  -18.6214  -55.1372 N.am      22 UNK        -0.5000 
    120 CA         0.1997  -17.3149  -54.6815 C.3       22 UNK         0.1400 
    121 C         -0.6268  -16.1196  -55.2376 C.2       22 UNK         0.5000 
    122 N         -1.9493  -16.1459  -55.1356 N.am      22 UNK        -0.7600 
    123 O         -0.0662  -15.1698  -55.7780 O.2       22 UNK        -0.5000 
    124 C124        0.2911  -17.2993  -53.1353 C.3       23 UNK        -0.0398 
    125 S125        1.1675  -15.8662  -52.4244 S.3       23 UNK        -0.2404 
    126 C126       -0.1867  -15.0381  -51.5176 C.3       23 UNK        -0.0205 
    127 H127       -6.7156  -11.2075  -47.3788 H         1 UNK         0.0600 
    128 H128       -6.9443  -11.1758  -49.1292 H         1 UNK         0.0600 
    129 H129       -6.1565   -9.8192  -48.3164 H         1 UNK         0.0600 
    130 H130       -5.0453  -12.5574  -46.7678 H         1 UNK         0.3000 
    131 H131       -3.0694  -13.4853  -48.6526 H         1 UNK         0.0600 
    132 H132       -3.2998  -14.0479  -45.6528 H         1 UNK         0.0800 
    133 H133       -2.2654  -14.9073  -46.7558 H         1 UNK         0.0800 
    134 H134       -4.6748  -15.3174  -49.3966 H         1 UNK         0.0800 
    135 H135       -4.8597  -16.9854  -48.9246 H         1 UNK         0.0800 
    136 H136       -2.7492  -14.9362  -50.6745 H         1 UNK         0.1150 
    137 H137        0.9345  -16.9681  -49.8653 H         1 UNK         0.1150 
    138 H138       -2.5532  -17.8614  -47.5487 H         1 UNK         0.1150 
    139 H139        1.1457  -18.2489  -47.8648 H         1 UNK         0.0800 
    140 H140       -0.1790  -18.4655  -46.7668 H         1 UNK         0.0800 
    141 H141       -2.3975  -20.8042  -48.2960 H         1 UNK         0.0800 
    142 H142       -1.8570  -20.1364  -46.7741 H         1 UNK         0.0800 
    143 H143       -1.0578  -22.8687  -47.8662 H         1 UNK         0.0600 
    144 H144       -0.0306  -21.4713  -45.5731 H         1 UNK         0.3000 
    145 H145        1.6078  -24.3999  -44.2757 H         1 UNK         0.0600 
    146 H146        3.4964  -22.8139  -44.4386 H         1 UNK         0.0600 
    147 H147        3.0366  -23.3522  -46.0456 H         1 UNK         0.0600 
    148 H148        2.5628  -21.7510  -45.4919 H         1 UNK         0.0600 
    149 H149        1.5803  -21.8448  -43.1666 H         1 UNK         0.3000 
    150 H150       -0.9851  -21.2890  -41.6520 H         1 UNK         0.0600 
    151 H151       -1.8040  -23.2531  -40.4399 H         1 UNK         0.0600 
    152 H152       -0.9607  -22.2018  -39.3159 H         1 UNK         0.0600 
    153 H153       -0.1841  -23.6713  -39.9061 H         1 UNK         0.0600 
    154 H154        0.8543  -20.2865  -41.0218 H         1 UNK         0.3000 
    155 H155        3.6075  -20.9041  -39.2746 H         1 UNK         0.0600 
    156 H156        4.2092  -21.0245  -42.2813 H         1 UNK         0.0600 
    157 H157        4.8473  -22.1134  -41.0558 H         1 UNK         0.0600 
    158 H158        5.3079  -20.4206  -41.0411 H         1 UNK         0.0600 
    159 H159        2.9921  -19.0439  -41.4837 H         1 UNK         0.3000 
    160 H160        1.0392  -16.8908  -39.5031 H         1 UNK         0.0600 
    161 H161        3.8585  -16.3949  -40.6034 H         1 UNK         0.0600 
    162 H162        3.3482  -16.1048  -38.9439 H         1 UNK         0.0600 
    163 H163        2.6496  -15.1605  -40.2504 H         1 UNK         0.0600 
    164 H164        1.9387  -16.6370  -42.1857 H         1 UNK         0.3000 
    165 H165        0.8611  -18.2565  -44.0365 H         1 UNK         0.0600 
    166 H166       -1.5055  -18.3387  -44.9263 H         1 UNK         0.0600 
    167 H167       -1.2061  -19.5392  -43.6811 H         1 UNK         0.0600 
    168 H168       -2.1067  -18.0775  -43.2974 H         1 UNK         0.0600 
    169 H169       -0.9453  -16.0218  -44.1322 H         1 UNK         0.3000 
    170 H170       -0.3061  -14.2157  -45.1888 H         1 UNK         0.0600 
    171 H171        1.6202  -12.9994  -43.1400 H         1 UNK         0.0600 
    172 H172        0.3147  -12.1546  -43.9726 H         1 UNK         0.0600 
    173 H173       -0.0564  -13.4278  -42.8217 H         1 UNK         0.0600 
    174 H174        1.9481  -12.7546  -45.6710 H         1 UNK         0.3000 
    175 H175        3.6084  -13.1816  -47.4541 H         1 UNK         0.0600 
    176 H176        2.2617  -14.7712  -49.7121 H         1 UNK         0.0600 
    177 H177        3.7455  -13.8339  -49.8586 H         1 UNK         0.0600 
    178 H178        3.7125  -15.2719  -48.8532 H         1 UNK         0.0600 
    179 H179        0.8979  -12.4969  -48.1419 H         1 UNK         0.3000 
    180 H180        1.7952   -9.2712  -49.2999 H         1 UNK         0.0600 
    181 H181        0.1552   -9.6467  -51.1250 H         1 UNK         0.0600 
    182 H182        0.2981  -11.3945  -50.9309 H         1 UNK         0.0600 
    183 H183        1.6696  -10.4523  -51.5025 H         1 UNK         0.0600 
    184 H184       -0.7405  -10.5427  -48.8751 H         1 UNK         0.3000 
    185 H185       -0.8701  -10.4572  -45.4045 H         1 UNK         0.0600 
    186 H186       -2.6802   -8.7842  -45.4868 H         1 UNK         0.0600 
    187 H187       -1.1380   -7.9841  -45.7343 H         1 UNK         0.0600 
    188 H188       -2.1953   -8.2858  -47.1082 H         1 UNK         0.0600 
    189 H189       -3.1130  -10.6794  -46.8954 H         1 UNK         0.3000 
    190 H190       -2.2309  -22.4883  -44.6033 H         1 UNK         0.3000 
    191 H191       -4.9634  -23.3250  -45.1489 H         1 UNK         0.0600 
    192 H192       -5.1173  -23.5103  -42.6843 H         1 UNK         0.0600 
    193 H193       -4.4150  -21.9659  -43.1393 H         1 UNK         0.0600 
    194 H194       -3.3873  -23.2563  -42.5196 H         1 UNK         0.0600 
    195 H195       -1.9489  -24.8966  -43.9633 H         1 UNK         0.3000 
    196 H196       -2.9353  -27.5454  -43.7927 H         1 UNK         0.0600 
    197 H197       -0.0917  -26.5298  -44.3242 H         1 UNK         0.0600 
    198 H198       -0.8185  -26.7889  -42.7408 H         1 UNK         0.0600 
    199 H199       -0.5149  -28.1561  -43.8030 H         1 UNK         0.0600 
    200 H200       -1.6074  -25.7310  -46.5456 H         1 UNK         0.3000 
    201 H201       -1.7304  -27.9069  -48.4459 H         1 UNK         0.0600 
    202 H202       -1.5789  -24.8843  -48.9079 H         1 UNK         0.0600 
    203 H203       -1.1845  -26.1384  -50.0748 H         1 UNK         0.0600 
    204 H204       -0.1829  -25.9303  -48.6492 H         1 UNK         0.0600 
    205 H205       -4.2775  -26.4224  -46.9180 H         1 UNK         0.3000 
    206 H206       -6.4425  -26.1705  -47.2311 H         1 UNK         0.0600 
    207 H207       -6.2962  -28.6061  -47.7879 H         1 UNK         0.0600 
    208 H208       -7.6295  -27.8252  -48.6214 H         1 UNK         0.0600 
    209 H209       -6.1562  -28.2104  -49.5004 H         1 UNK         0.0600 
    210 H210       -4.8782  -24.1990  -48.3811 H         1 UNK         0.3000 
    211 H211       -4.9777  -22.3481  -49.5021 H         1 UNK         0.0600 
    212 H212       -7.0639  -21.4497  -50.4141 H         1 UNK         0.0600 
    213 H213       -7.4054  -22.2698  -48.9007 H         1 UNK         0.0600 
    214 H214       -7.8069  -23.0391  -50.4366 H         1 UNK         0.0600 
    215 H215       -4.5007  -25.1676  -51.0310 H         1 UNK         0.3000 
    216 H216       -4.6561  -24.4444  -53.7969 H         1 UNK         0.0600 
    217 H217       -2.7908  -26.4530  -52.4241 H         1 UNK         0.0600 
    218 H218       -3.1699  -26.3871  -54.1395 H         1 UNK         0.0600 
    219 H219       -4.4265  -26.8014  -52.9822 H         1 UNK         0.0600 
    220 H220       -2.1199  -24.0647  -51.3289 H         1 UNK         0.3000 
    221 H221       -0.1471  -22.8806  -53.0630 H         1 UNK         0.0600 
    222 H222        0.4931  -23.9745  -50.9458 H         1 UNK         0.0600 
    223 H223       -0.4597  -22.8146  -50.0237 H         1 UNK         0.0600 
    224 H224        0.9654  -22.2817  -50.9027 H         1 UNK         0.0600 
    225 H225       -2.8333  -21.5779  -51.1165 H         1 UNK         0.3000 
    226 H226       -2.1608  -18.7966  -51.4014 H         1 UNK         0.0600 
    227 H227       -4.8354  -20.1627  -50.7950 H         1 UNK         0.0600 
    228 H228       -3.6987  -19.4937  -49.6245 H         1 UNK         0.0600 
    229 H229       -4.5511  -18.4364  -50.7323 H         1 UNK         0.0600 
    230 H230       -4.2552  -21.0451  -53.2604 H         1 UNK         0.3000 
    231 H231       -5.1540  -19.1967  -55.2085 H         1 UNK         0.0600 
    232 H232       -4.7905  -22.2347  -55.3967 H         1 UNK         0.0600 
    233 H233       -5.7535  -21.2503  -56.4914 H         1 UNK         0.0600 
    234 H234       -6.2234  -21.3984  -54.8042 H         1 UNK         0.0600 
    235 H235       -2.2089  -21.2175  -55.0950 H         1 UNK         0.3000 
    236 H236       -1.2340  -20.4932  -57.7064 H         1 UNK         0.0600 
    237 H237       -0.4877  -22.5438  -56.5179 H         1 UNK         0.0600 
    238 H238        0.8832  -21.5098  -56.8935 H         1 UNK         0.0600 
    239 H239        0.2545  -21.5686  -55.2523 H         1 UNK         0.0600 
    240 H240       -0.6473  -19.2359  -54.4096 H         1 UNK         0.3000 
    241 H241        1.2143  -17.2119  -55.0710 H         1 UNK         0.0600 
    242 H242       -2.4911  -15.3818  -55.5048 H         1 UNK         0.3800 
    243 H243       -2.4197  -16.9053  -54.6446 H         1 UNK         0.3800 
    244 H244        0.8341  -18.1814  -52.7948 H         1 UNK         0.0800 
    245 H245       -0.7049  -17.3821  -52.7011 H         1 UNK         0.0800 
    246 H246        0.2042  -14.1237  -51.0696 H         1 UNK         0.0800 
    247 H247       -0.9398  -14.7285  -52.2442 H         1 UNK         0.0800 
@<TRIPOS>BOND
     1    1    2 1    
     2    1  127 1    
     3    1  128 1    
     4    1  129 1    
     5    2    3 2    
     6    2    4 am   BACKBONE|DICT|INTERRES
     7    4    5 1    
     8    4  130 1    
     9    5    6 1    
    10    5   65 1    
    11    5  131 1    
    12    6    7 1    
    13    6  132 1    
    14    6  133 1    
    15    7    8 1    
    16    8    9 1    
    17    8  134 1    
    18    8  135 1    
    19    9   10 ar   
    20    9   14 ar   
    21   10   11 ar   
    22   10  136 1    
    23   11   12 ar   
    24   11  126 1    
    25   12   13 ar   
    26   12  137 1    
    27   13   14 ar   
    28   13   15 1    
    29   14  138 1    
    30   15   16 1    
    31   15  139 1    
    32   15  140 1    
    33   16   17 1    
    34   17   18 1    
    35   17  141 1    
    36   17  142 1    
    37   18   19 1    
    38   18   67 1    
    39   18  143 1    
    40   19   20 am   BACKBONE|DICT|INTERRES
    41   19  144 1    
    42   20   21 2    
    43   20   22 1    
    44   22   23 1    
    45   22   24 1    
    46   22  145 1    
    47   23  146 1    
    48   23  147 1    
    49   23  148 1    
    50   24   25 am   BACKBONE|DICT|INTERRES
    51   24  149 1    
    52   25   26 2    
    53   25   27 1    
    54   27   28 1    
    55   27   29 1    
    56   27  150 1    
    57   28  151 1    
    58   28  152 1    
    59   28  153 1    
    60   29   30 am   BACKBONE|DICT|INTERRES
    61   29  154 1    
    62   30   31 2    
    63   30   32 1    
    64   32   33 1    
    65   32   34 1    
    66   32  155 1    
    67   33  156 1    
    68   33  157 1    
    69   33  158 1    
    70   34   35 am   BACKBONE|DICT|INTERRES
    71   34  159 1    
    72   35   36 2    
    73   35   37 1    
    74   37   38 1    
    75   37   39 1    
    76   37  160 1    
    77   38  161 1    
    78   38  162 1    
    79   38  163 1    
    80   39   40 am   BACKBONE|DICT|INTERRES
    81   39  164 1    
    82   40   41 2    
    83   40   42 1    
    84   42   43 1    
    85   42   44 1    
    86   42  165 1    
    87   43  166 1    
    88   43  167 1    
    89   43  168 1    
    90   44   45 am   BACKBONE|DICT|INTERRES
    91   44  169 1    
    92   45   46 2    
    93   45   47 1    
    94   47   48 1    
    95   47   49 1    
    96   47  170 1    
    97   48  171 1    
    98   48  172 1    
    99   48  173 1    
   100   49   50 am   BACKBONE|DICT|INTERRES
   101   49  174 1    
   102   50   51 2    
   103   50   52 1    
   104   52   53 1    
   105   52   54 1    
   106   52  175 1    
   107   53  176 1    
   108   53  177 1    
   109   53  178 1    
   110   54   55 am   BACKBONE|DICT|INTERRES
   111   54  179 1    
   112   55   56 2    
   113   55   57 1    
   114   57   58 1    
   115   57   59 1    
   116   57  180 1    
   117   58  181 1    
   118   58  182 1    
   119   58  183 1    
   120   59   60 am   BACKBONE|DICT|INTERRES
   121   59  184 1    
   122   60   61 2    
   123   60   62 1    
   124   62   63 1    
   125   62   64 1    
   126   62  185 1    
   127   63  186 1    
   128   63  187 1    
   129   63  188 1    
   130   64   65 am   BACKBONE|DICT|INTERRES
   131   64  189 1    
   132   65   66 2    
   133   67   68 2    
   134   67   69 am   BACKBONE|DICT|INTERRES
   135   69   70 1    
   136   69  190 1    
   137   70   71 1    
   138   70   72 1    
   139   70  191 1    
   140   71  192 1    
   141   71  193 1    
   142   71  194 1    
   143   72   73 2    
   144   72   74 am   BACKBONE|DICT|INTERRES
   145   74   75 1    
   146   74  195 1    
   147   75   76 1    
   148   75   77 1    
   149   75  196 1    
   150   76  197 1    
   151   76  198 1    
   152   76  199 1    
   153   77   78 2    
   154   77   79 am   BACKBONE|DICT|INTERRES
   155   79   80 1    
   156   79  200 1    
   157   80   81 1    
   158   80   82 1    
   159   80  201 1    
   160   81  202 1    
   161   81  203 1    
   162   81  204 1    
   163   82   83 2    
   164   82   84 am   BACKBONE|DICT|INTERRES
   165   84   85 1    
   166   84  205 1    
   167   85   86 1    
   168   85   87 1    
   169   85  206 1    
   170   86  207 1    
   171   86  208 1    
   172   86  209 1    
   173   87   88 2    
   174   87   89 am   BACKBONE|DICT|INTERRES
   175   89   90 1    
   176   89  210 1    
   177   90   91 1    
   178   90   92 1    
   179   90  211 1    
   180   91  212 1    
   181   91  213 1    
   182   91  214 1    
   183   92   93 2    
   184   92   94 am   BACKBONE|DICT|INTERRES
   185   94   95 1    
   186   94  215 1    
   187   95   96 1    
   188   95   97 1    
   189   95  216 1    
   190   96  217 1    
   191   96  218 1    
   192   96  219 1    
   193   97   98 2    
   194   97   99 am   BACKBONE|DICT|INTERRES
   195   99  100 1    
   196   99  220 1    
   197  100  101 1    
   198  100  102 1    
   199  100  221 1    
   200  101  222 1    
   201  101  223 1    
   202  101  224 1    
   203  102  103 2    
   204  102  104 am   BACKBONE|DICT|INTERRES
   205  104  105 1    
   206  104  225 1    
   207  105  106 1    
   208  105  107 1    
   209  105  226 1    
   210  106  227 1    
   211  106  228 1    
   212  106  229 1    
   213  107  108 2    
   214  107  109 am   BACKBONE|DICT|INTERRES
   215  109  110 1    
   216  109  230 1    
   217  110  111 1    
   218  110  112 1    
   219  110  231 1    
   220  111  232 1    
   221  111  233 1    
   222  111  234 1    
   223  112  113 2    
   224  112  114 am   BACKBONE|DICT|INTERRES
   225  114  115 1    
   226  114  235 1    
   227  115  116 1    
   228  115  117 1    
   229  115  236 1    
   230  116  237 1    
   231  116  238 1    
   232  116  239 1    
   233  117  118 2    
   234  117  119 am   BACKBONE|DICT|INTERRES
   235  119  120 1    
   236  119  240 1    
   237  120  121 1    
   238  120  124 1    
   239  120  241 1    
   240  121  122 am   BACKBONE|DICT|INTERRES
   241  121  123 2    
   242  122  242 1    
   243  122  243 1    
   244  124  125 1    
   245  124  244 1    
   246  124  245 1    
   247  125  126 1    
   248  126  246 1    
   249  126  247 1    
@<TRIPOS>SUBSTRUCTURE
     1 UNK         1 GROUP             0       ****    0 ROOT    
