@<TRIPOS>MOLECULE
3R540
247   249    1
SMALL
USER_CHARGES


@<TRIPOS>ATOM
      1 CA         -1.4812  -12.0941  -51.8503 C.3       0 UNK        -0.1800 
      2 C           0.0044  -12.1791  -52.1710 C.2       0 UNK         0.5000 
      3 O           0.5962  -11.1832  -52.5867 O.2       0 UNK        -0.5000 
      4 N           0.6011  -13.3662  -51.9981 N.am      1 UNK        -0.5000 
      5 CA          1.9899  -13.6747  -52.3681 C.3       1 UNK         0.1400 
      6 C6          2.3124  -15.1972  -52.3693 C.3       23 UNK        -0.0398 
      7 S7          0.9975  -16.2251  -53.1235 S.3       23 UNK        -0.2404 
      8 C8          0.9869  -17.7516  -52.1053 C.3       23 UNK        -0.0205 
      9 C9          0.9223  -17.5586  -50.5876 C.ar      23 UNK        -0.0193 
     10 C10         0.3400  -16.4281  -50.0037 C.ar      23 UNK        -0.1150 
     11 C11         0.4097  -16.2204  -48.6226 C.ar      23 UNK        -0.0193 
     12 C12         0.9885  -17.2006  -47.8153 C.ar      23 UNK        -0.1150 
     13 C13         1.5220  -18.3653  -48.3677 C.ar      23 UNK        -0.0193 
     14 C14         1.4987  -18.5272  -49.7588 C.ar      23 UNK        -0.1150 
     15 C15         2.1753  -19.3831  -47.4338 C.3       23 UNK        -0.0205 
     16 S16         2.0891  -21.1142  -47.9965 S.3       23 UNK        -0.2404 
     17 C17         0.2911  -21.4035  -48.0677 C.3       23 UNK        -0.0398 
     18 CA         -0.0952  -22.7031  -47.3248 C.3       11 UNK         0.1400 
     19 N          -0.1083  -22.5464  -45.8664 N.am      11 UNK        -0.5000 
     20 C          -0.2300  -23.5650  -45.0022 C.2       10 UNK         0.5000 
     21 O          -0.2853  -24.7479  -45.3375 O.2       10 UNK        -0.5000 
     22 CA         -0.3847  -23.1975  -43.5189 C.3       10 UNK         0.1400 
     23 CB          0.9737  -22.8680  -42.8811 C.3       10 UNK        -0.1800 
     24 N          -1.3133  -22.0812  -43.3416 N.am      10 UNK        -0.5000 
     25 C          -2.6394  -22.1805  -43.5175 C.2       9 UNK         0.5000 
     26 O          -3.2083  -23.2280  -43.8230 O.2       9 UNK        -0.5000 
     27 CA         -3.4725  -20.8958  -43.3543 C.3       9 UNK         0.1400 
     28 CB         -3.9047  -20.7195  -41.8912 C.3       9 UNK        -0.1800 
     29 N          -2.7763  -19.6888  -43.7978 N.am      9 UNK        -0.5000 
     30 C          -2.3995  -19.4405  -45.0597 C.2       8 UNK         0.5000 
     31 O          -2.5965  -20.2076  -46.0015 O.2       8 UNK        -0.5000 
     32 CA         -1.6245  -18.1311  -45.2941 C.3       8 UNK         0.1400 
     33 CB         -2.6065  -16.9580  -45.4175 C.3       8 UNK        -0.1800 
     34 N          -0.6448  -17.8168  -44.2482 N.am      8 UNK        -0.5000 
     35 C           0.3058  -18.6411  -43.7868 C.2       7 UNK         0.5000 
     36 O           0.4750  -19.7914  -44.1952 O.2       7 UNK        -0.5000 
     37 CA          1.1899  -18.0620  -42.6713 C.3       7 UNK         0.1400 
     38 CB          2.0938  -19.1158  -41.9961 C.3       7 UNK        -0.1800 
     39 N           1.9536  -16.9036  -43.1420 N.am      7 UNK        -0.5000 
     40 C           2.9733  -16.8845  -44.0156 C.2       6 UNK         0.5000 
     41 O           3.4159  -17.8901  -44.5707 O.2       6 UNK        -0.5000 
     42 CA          3.6239  -15.5167  -44.3283 C.3       6 UNK         0.1400 
     43 CB          3.7071  -15.2734  -45.8432 C.3       6 UNK        -0.1800 
     44 N           2.9420  -14.3785  -43.7068 N.am      6 UNK        -0.5000 
     45 C           3.0442  -14.0194  -42.4183 C.2       5 UNK         0.5000 
     46 O           3.7967  -14.5771  -41.6192 O.2       5 UNK        -0.5000 
     47 CA          2.1324  -12.8770  -41.9176 C.3       5 UNK         0.1400 
     48 CB          2.9332  -11.5724  -41.7868 C.3       5 UNK        -0.1800 
     49 N           0.9593  -12.6234  -42.7582 N.am      5 UNK        -0.5000 
     50 C          -0.0160  -13.4980  -43.0433 C.2       4 UNK         0.5000 
     51 O          -0.0806  -14.6335  -42.5678 O.2       4 UNK        -0.5000 
     52 CA         -1.0605  -13.0540  -44.0896 C.3       4 UNK         0.1400 
     53 CB         -2.3254  -12.5287  -43.3957 C.3       4 UNK        -0.1800 
     54 N          -0.6003  -12.0574  -45.0703 N.am      4 UNK        -0.5000 
     55 C           0.4741  -12.1799  -45.8637 C.2       3 UNK         0.5000 
     56 O           1.2830  -13.1014  -45.7511 O.2       3 UNK        -0.5000 
     57 CA          0.6413  -11.1106  -46.9657 C.3       3 UNK         0.1400 
     58 CB          1.0083   -9.7374  -46.3672 C.3       3 UNK        -0.1800 
     59 N           1.5786  -11.5038  -48.0324 N.am      3 UNK        -0.5000 
     60 C           2.9088  -11.6776  -47.9458 C.2       2 UNK         0.5000 
     61 O           3.5699  -11.4159  -46.9398 O.2       2 UNK        -0.5000 
     62 CA          3.6354  -12.2259  -49.1928 C.3       2 UNK         0.1400 
     63 CB          4.7131  -13.2688  -48.8295 C.3       2 UNK        -0.1800 
     64 N           2.7259  -12.7985  -50.1913 N.am      2 UNK        -0.5000 
     65 C           3.0144  -12.9187  -51.4958 C.2       1 UNK         0.5000 
     66 O           4.0407  -12.4771  -52.0152 O.2       1 UNK        -0.5000 
     67 C          -1.4308  -23.2642  -47.8468 C.2       11 UNK         0.5000 
     68 O          -1.4138  -24.1839  -48.6648 O.2       11 UNK        -0.5000 
     69 N          -2.5573  -22.7460  -47.3358 N.am      12 UNK        -0.5000 
     70 CA         -3.9017  -23.2289  -47.6487 C.3       12 UNK         0.1400 
     71 CB         -4.9503  -22.3418  -46.9626 C.3       12 UNK        -0.1800 
     72 C          -4.1063  -24.7061  -47.2696 C.2       12 UNK         0.5000 
     73 O          -4.6294  -25.4659  -48.0835 O.2       12 UNK        -0.5000 
     74 N          -3.6590  -25.0961  -46.0684 N.am      13 UNK        -0.5000 
     75 CA         -3.7051  -26.4753  -45.5842 C.3       13 UNK         0.1400 
     76 CB         -3.3235  -26.5141  -44.0966 C.3       13 UNK        -0.1800 
     77 C          -2.8132  -27.4270  -46.4020 C.2       13 UNK         0.5000 
     78 O          -3.2648  -28.5128  -46.7673 O.2       13 UNK        -0.5000 
     79 N          -1.5739  -27.0015  -46.6839 N.am      14 UNK        -0.5000 
     80 CA         -0.5774  -27.7827  -47.4174 C.3       14 UNK         0.1400 
     81 CB          0.7939  -27.0992  -47.3039 C.3       14 UNK        -0.1800 
     82 C          -0.9429  -28.0091  -48.8946 C.2       14 UNK         0.5000 
     83 O          -0.7791  -29.1222  -49.3959 O.2       14 UNK        -0.5000 
     84 N          -1.4236  -26.9544  -49.5646 N.am      15 UNK        -0.5000 
     85 CA         -1.7332  -26.9618  -50.9953 C.3       15 UNK         0.1400 
     86 CB         -1.4659  -25.5584  -51.5545 C.3       15 UNK        -0.1800 
     87 C          -3.1758  -27.3956  -51.3139 C.2       15 UNK         0.5000 
     88 O          -3.5191  -27.4765  -52.4930 O.2       15 UNK        -0.5000 
     89 N          -4.0023  -27.6282  -50.2827 N.am      16 UNK        -0.5000 
     90 CA         -5.4377  -27.9297  -50.3572 C.3       16 UNK         0.1400 
     91 CB         -5.6857  -29.3038  -51.0138 C.3       16 UNK        -0.1800 
     92 C          -6.2199  -26.7789  -51.0255 C.2       16 UNK         0.5000 
     93 O          -6.9198  -26.9797  -52.0189 O.2       16 UNK        -0.5000 
     94 N          -6.0272  -25.5770  -50.4675 N.am      17 UNK        -0.5000 
     95 CA         -6.5838  -24.2723  -50.8395 C.3       17 UNK         0.1400 
     96 CB         -8.1247  -24.2952  -50.8466 C.3       17 UNK        -0.1800 
     97 C          -6.0161  -23.6553  -52.1342 C.2       17 UNK         0.5000 
     98 O          -6.3076  -22.4914  -52.4083 O.2       17 UNK        -0.5000 
     99 N          -5.1903  -24.3894  -52.8937 N.am      18 UNK        -0.5000 
    100 CA        -4.6296  -23.9361  -54.1727 C.3       18 UNK         0.1400 
    101 CB        -3.9934  -25.1286  -54.9011 C.3       18 UNK        -0.1800 
    102 C         -3.6227  -22.7732  -54.0478 C.2       18 UNK         0.5000 
    103 O         -3.4474  -22.0250  -55.0099 O.2       18 UNK        -0.5000 
    104 N         -2.9958  -22.6340  -52.8720 N.am      19 UNK        -0.5000 
    105 CA        -2.0374  -21.5745  -52.5459 C.3       19 UNK         0.1400 
    106 CB        -0.7712  -22.2079  -51.9457 C.3       19 UNK        -0.1800 
    107 C         -2.6294  -20.5211  -51.5902 C.2       19 UNK         0.5000 
    108 O         -1.8863  -19.6668  -51.1088 O.2       19 UNK        -0.5000 
    109 N         -3.9446  -20.5629  -51.3290 N.am      20 UNK        -0.5000 
    110 CA        -4.6519  -19.6538  -50.4188 C.3       20 UNK         0.1400 
    111 CB        -5.9379  -20.3400  -49.9262 C.3       20 UNK        -0.1800 
    112 C         -4.9343  -18.2650  -51.0388 C.2       20 UNK         0.5000 
    113 O         -6.0175  -17.7108  -50.8427 O.2       20 UNK        -0.5000 
    114 N         -3.9558  -17.7099  -51.7667 N.am      21 UNK        -0.5000 
    115 CA        -4.0273  -16.4201  -52.4627 C.3       21 UNK         0.1400 
    116 CB        -2.7426  -16.2268  -53.2793 C.3       21 UNK        -0.1800 
    117 C         -4.2400  -15.2231  -51.5172 C.2       21 UNK         0.5000 
    118 O         -4.8708  -14.2395  -51.9052 O.2       21 UNK        -0.5000 
    119 N         -3.7275  -15.3507  -50.2891 N.am      22 UNK        -0.5000 
    120 CA        -3.9420  -14.4167  -49.1761 C.3       22 UNK         0.1400 
    121 C         -5.3177  -14.5800  -48.4602 C.2       22 UNK         0.5000 
    122 N         -6.1668  -15.5354  -48.8224 N.am      22 UNK        -0.7600 
    123 O         -5.6298  -13.8105  -47.5560 O.2       22 UNK        -0.5000 
    124 C124       -2.7730  -14.4928  -48.1647 C.3       23 UNK        -0.0398 
    125 S125       -1.2090  -13.8917  -48.8740 S.3       23 UNK        -0.2404 
    126 C126        0.0122  -14.9005  -47.9763 C.3       23 UNK        -0.0205 
    127 H127       -2.0148  -11.6003  -52.6623 H         1 UNK         0.0600 
    128 H128       -1.6379  -11.5185  -50.9382 H         1 UNK         0.0600 
    129 H129       -1.9218  -13.0819  -51.7140 H         1 UNK         0.0600 
    130 H130        0.0519  -14.1504  -51.6814 H         1 UNK         0.3000 
    131 H131        2.1218  -13.3199  -53.3927 H         1 UNK         0.0600 
    132 H132        3.2344  -15.3767  -52.9248 H         1 UNK         0.0800 
    133 H133        2.5146  -15.5483  -51.3574 H         1 UNK         0.0800 
    134 H134        0.1362  -18.3619  -52.4097 H         1 UNK         0.0800 
    135 H135        1.8803  -18.3233  -52.3610 H         1 UNK         0.0800 
    136 H136       -0.1078  -15.6796  -50.6351 H         1 UNK         0.1150 
    137 H137        1.0589  -17.0404  -46.7483 H         1 UNK         0.1150 
    138 H138        1.9478  -19.4026  -50.2052 H         1 UNK         0.1150 
    139 H139        3.2235  -19.1099  -47.3077 H         1 UNK         0.0800 
    140 H140        1.7257  -19.3257  -46.4428 H         1 UNK         0.0800 
    141 H141       -0.2547  -20.5493  -47.6630 H         1 UNK         0.0800 
    142 H142        0.0268  -21.4543  -49.1252 H         1 UNK         0.0800 
    143 H143        0.6564  -23.4608  -47.5588 H         1 UNK         0.0600 
    144 H144       -0.0593  -21.6032  -45.5014 H         1 UNK         0.3000 
    145 H145       -0.7945  -24.0666  -42.9994 H         1 UNK         0.0600 
    146 H146        0.8627  -22.5991  -41.8306 H         1 UNK         0.0600 
    147 H147        1.6400  -23.7301  -42.9275 H         1 UNK         0.0600 
    148 H148        1.4762  -22.0442  -43.3876 H         1 UNK         0.0600 
    149 H149       -0.9020  -21.1703  -43.1868 H         1 UNK         0.3000 
    150 H150       -4.3717  -21.0045  -43.9634 H         1 UNK         0.0600 
    151 H151       -4.4485  -21.5963  -41.5368 H         1 UNK         0.0600 
    152 H152       -4.5659  -19.8605  -41.7755 H         1 UNK         0.0600 
    153 H153       -3.0476  -20.5762  -41.2320 H         1 UNK         0.0600 
    154 H154       -2.5607  -19.0030  -43.0896 H         1 UNK         0.3000 
    155 H155       -1.0848  -18.2367  -46.2360 H         1 UNK         0.0600 
    156 H156       -2.0837  -16.0296  -45.6389 H         1 UNK         0.0600 
    157 H157       -3.1712  -16.8060  -44.4968 H         1 UNK         0.0600 
    158 H158       -3.3276  -17.1341  -46.2169 H         1 UNK         0.0600 
    159 H159       -0.6999  -16.8907  -43.8474 H         1 UNK         0.3000 
    160 H160        0.5129  -17.6845  -41.9034 H         1 UNK         0.0600 
    161 H161        2.7665  -19.5991  -42.7049 H         1 UNK         0.0600 
    162 H162        1.4929  -19.9018  -41.5375 H         1 UNK         0.0600 
    163 H163        2.7003  -18.6686  -41.2086 H         1 UNK         0.0600 
    164 H164        1.6303  -16.0099  -42.7921 H         1 UNK         0.3000 
    165 H165        4.6445  -15.5571  -43.9427 H         1 UNK         0.0600 
    166 H166        2.7205  -15.2709  -46.3052 H         1 UNK         0.0600 
    167 H167        4.1778  -14.3136  -46.0561 H         1 UNK         0.0600 
    168 H168        4.2991  -16.0441  -46.3381 H         1 UNK         0.0600 
    169 H169        2.3092  -13.8612  -44.3128 H         1 UNK         0.3000 
    170 H170        1.7722  -13.1612  -40.9269 H         1 UNK         0.0600 
    171 H171        3.8019  -11.7086  -41.1413 H         1 UNK         0.0600 
    172 H172        3.2951  -11.2258  -42.7559 H         1 UNK         0.0600 
    173 H173        2.3274  -10.7784  -41.3497 H         1 UNK         0.0600 
    174 H174        0.9316  -11.7291  -43.2250 H         1 UNK         0.3000 
    175 H175       -1.3339  -13.9467  -44.6542 H         1 UNK         0.0600 
    176 H176       -2.1300  -11.6033  -42.8526 H         1 UNK         0.0600 
    177 H177       -3.1202  -12.3356  -44.1164 H         1 UNK         0.0600 
    178 H178       -2.7102  -13.2556  -42.6789 H         1 UNK         0.0600 
    179 H179       -1.2111  -11.2651  -45.2081 H         1 UNK         0.3000 
    180 H180       -0.3290  -11.0121  -47.4551 H         1 UNK         0.0600 
    181 H181        1.9156   -9.7818  -45.7643 H         1 UNK         0.0600 
    182 H182        0.2121   -9.3653  -45.7217 H         1 UNK         0.0600 
    183 H183        1.1614   -8.9943  -47.1497 H         1 UNK         0.0600 
    184 H184        1.1429  -11.7012  -48.9201 H         1 UNK         0.3000 
    185 H185        4.1355  -11.3613  -49.6340 H         1 UNK         0.0600 
    186 H186        5.3320  -13.5155  -49.6920 H         1 UNK         0.0600 
    187 H187        5.3857  -12.9033  -48.0528 H         1 UNK         0.0600 
    188 H188        4.2621  -14.1943  -48.4719 H         1 UNK         0.0600 
    189 H189        1.8703  -13.2081  -49.8465 H         1 UNK         0.3000 
    190 H190       -2.4960  -21.9521  -46.7028 H         1 UNK         0.3000 
    191 H191       -4.0350  -23.1403  -48.7288 H         1 UNK         0.0600 
    192 H192       -4.8279  -21.2951  -47.2405 H         1 UNK         0.0600 
    193 H193       -5.9600  -22.6401  -47.2476 H         1 UNK         0.0600 
    194 H194       -4.8846  -22.4070  -45.8770 H         1 UNK         0.0600 
    195 H195       -3.2786  -24.4030  -45.4314 H         1 UNK         0.3000 
    196 H196       -4.7350  -26.8266  -45.6764 H         1 UNK         0.0600 
    197 H197       -3.3502  -27.5342  -43.7115 H         1 UNK         0.0600 
    198 H198       -4.0162  -25.9225  -43.4978 H         1 UNK         0.0600 
    199 H199       -2.3194  -26.1238  -43.9273 H         1 UNK         0.0600 
    200 H200       -1.2653  -26.1045  -46.3183 H         1 UNK         0.3000 
    201 H201       -0.5049  -28.7628  -46.9412 H         1 UNK         0.0600 
    202 H202        1.1120  -27.0255  -46.2639 H         1 UNK         0.0600 
    203 H203        0.7759  -26.0910  -47.7200 H         1 UNK         0.0600 
    204 H204        1.5594  -27.6631  -47.8385 H         1 UNK         0.0600 
    205 H205       -1.5055  -26.0580  -49.0902 H         1 UNK         0.3000 
    206 H206       -1.0640  -27.6567  -51.5069 H         1 UNK         0.0600 
    207 H207       -0.4621  -25.2176  -51.3003 H         1 UNK         0.0600 
    208 H208       -1.5446  -25.5430  -52.6412 H         1 UNK         0.0600 
    209 H209       -2.1785  -24.8351  -51.1586 H         1 UNK         0.0600 
    210 H210       -3.6309  -27.4986  -49.3511 H         1 UNK         0.3000 
    211 H211       -5.7934  -27.9895  -49.3273 H         1 UNK         0.0600 
    212 H212       -5.3917  -29.3166  -52.0636 H         1 UNK         0.0600 
    213 H213       -6.7425  -29.5692  -50.9694 H         1 UNK         0.0600 
    214 H214       -5.1315  -30.0898  -50.5010 H         1 UNK         0.0600 
    215 H215       -5.4298  -25.5574  -49.6402 H         1 UNK         0.3000 
    216 H216       -6.2801  -23.6005  -50.0367 H         1 UNK         0.0600 
    217 H217       -8.5182  -24.6946  -49.9119 H         1 UNK         0.0600 
    218 H218       -8.5202  -24.8980  -51.6644 H         1 UNK         0.0600 
    219 H219       -8.5282  -23.2886  -50.9632 H         1 UNK         0.0600 
    220 H220       -5.0067  -25.3475  -52.6276 H         1 UNK         0.3000 
    221 H221       -5.4590  -23.5768  -54.7856 H         1 UNK         0.0600 
    222 H222       -3.1375  -25.5250  -54.3563 H         1 UNK         0.0600 
    223 H223       -4.7100  -25.9395  -55.0341 H         1 UNK         0.0600 
    224 H224       -3.6430  -24.8386  -55.8925 H         1 UNK         0.0600 
    225 H225       -3.2126  -23.2898  -52.1369 H         1 UNK         0.3000 
    226 H226       -1.7410  -21.0401  -53.4505 H         1 UNK         0.0600 
    227 H227       -0.3409  -22.9454  -52.6230 H         1 UNK         0.0600 
    228 H228       -0.0031  -21.4555  -51.7612 H         1 UNK         0.0600 
    229 H229       -0.9802  -22.7009  -50.9968 H         1 UNK         0.0600 
    230 H230       -4.5188  -21.2364  -51.8200 H         1 UNK         0.3000 
    231 H231       -4.0192  -19.4858  -49.5444 H         1 UNK         0.0600 
    232 H232       -6.4036  -19.7686  -49.1223 H         1 UNK         0.0600 
    233 H233       -5.7319  -21.3353  -49.5378 H         1 UNK         0.0600 
    234 H234       -6.6727  -20.4388  -50.7258 H         1 UNK         0.0600 
    235 H235       -3.0776  -18.2146  -51.8214 H         1 UNK         0.3000 
    236 H236       -4.8749  -16.4564  -53.1499 H         1 UNK         0.0600 
    237 H237       -2.6036  -17.0323  -54.0005 H         1 UNK         0.0600 
    238 H238       -2.7668  -15.2894  -53.8366 H         1 UNK         0.0600 
    239 H239       -1.8675  -16.2010  -52.6308 H         1 UNK         0.0600 
    240 H240       -3.2209  -16.1952  -50.0714 H         1 UNK         0.3000 
    241 H241       -3.9538  -13.4049  -49.5861 H         1 UNK         0.0600 
    242 H242       -7.0502  -15.6076  -48.3435 H         1 UNK         0.3800 
    243 H243       -5.9651  -16.1744  -49.5835 H         1 UNK         0.3800 
    244 H244       -2.6425  -15.5228  -47.8369 H         1 UNK         0.0800 
    245 H245       -2.9749  -13.8987  -47.2715 H         1 UNK         0.0800 
    246 H246        0.9299  -14.3186  -47.9185 H         1 UNK         0.0800 
    247 H247       -0.3209  -15.0551  -46.9495 H         1 UNK         0.0800 
@<TRIPOS>BOND
     1    1    2 1    
     2    1  127 1    
     3    1  128 1    
     4    1  129 1    
     5    2    3 2    
     6    2    4 am   BACKBONE|DICT|INTERRES
     7    4    5 1    
     8    4  130 1    
     9    5    6 1    
    10    5   65 1    
    11    5  131 1    
    12    6    7 1    
    13    6  132 1    
    14    6  133 1    
    15    7    8 1    
    16    8    9 1    
    17    8  134 1    
    18    8  135 1    
    19    9   10 ar   
    20    9   14 ar   
    21   10   11 ar   
    22   10  136 1    
    23   11   12 ar   
    24   11  126 1    
    25   12   13 ar   
    26   12  137 1    
    27   13   14 ar   
    28   13   15 1    
    29   14  138 1    
    30   15   16 1    
    31   15  139 1    
    32   15  140 1    
    33   16   17 1    
    34   17   18 1    
    35   17  141 1    
    36   17  142 1    
    37   18   19 1    
    38   18   67 1    
    39   18  143 1    
    40   19   20 am   BACKBONE|DICT|INTERRES
    41   19  144 1    
    42   20   21 2    
    43   20   22 1    
    44   22   23 1    
    45   22   24 1    
    46   22  145 1    
    47   23  146 1    
    48   23  147 1    
    49   23  148 1    
    50   24   25 am   BACKBONE|DICT|INTERRES
    51   24  149 1    
    52   25   26 2    
    53   25   27 1    
    54   27   28 1    
    55   27   29 1    
    56   27  150 1    
    57   28  151 1    
    58   28  152 1    
    59   28  153 1    
    60   29   30 am   BACKBONE|DICT|INTERRES
    61   29  154 1    
    62   30   31 2    
    63   30   32 1    
    64   32   33 1    
    65   32   34 1    
    66   32  155 1    
    67   33  156 1    
    68   33  157 1    
    69   33  158 1    
    70   34   35 am   BACKBONE|DICT|INTERRES
    71   34  159 1    
    72   35   36 2    
    73   35   37 1    
    74   37   38 1    
    75   37   39 1    
    76   37  160 1    
    77   38  161 1    
    78   38  162 1    
    79   38  163 1    
    80   39   40 am   BACKBONE|DICT|INTERRES
    81   39  164 1    
    82   40   41 2    
    83   40   42 1    
    84   42   43 1    
    85   42   44 1    
    86   42  165 1    
    87   43  166 1    
    88   43  167 1    
    89   43  168 1    
    90   44   45 am   BACKBONE|DICT|INTERRES
    91   44  169 1    
    92   45   46 2    
    93   45   47 1    
    94   47   48 1    
    95   47   49 1    
    96   47  170 1    
    97   48  171 1    
    98   48  172 1    
    99   48  173 1    
   100   49   50 am   BACKBONE|DICT|INTERRES
   101   49  174 1    
   102   50   51 2    
   103   50   52 1    
   104   52   53 1    
   105   52   54 1    
   106   52  175 1    
   107   53  176 1    
   108   53  177 1    
   109   53  178 1    
   110   54   55 am   BACKBONE|DICT|INTERRES
   111   54  179 1    
   112   55   56 2    
   113   55   57 1    
   114   57   58 1    
   115   57   59 1    
   116   57  180 1    
   117   58  181 1    
   118   58  182 1    
   119   58  183 1    
   120   59   60 am   BACKBONE|DICT|INTERRES
   121   59  184 1    
   122   60   61 2    
   123   60   62 1    
   124   62   63 1    
   125   62   64 1    
   126   62  185 1    
   127   63  186 1    
   128   63  187 1    
   129   63  188 1    
   130   64   65 am   BACKBONE|DICT|INTERRES
   131   64  189 1    
   132   65   66 2    
   133   67   68 2    
   134   67   69 am   BACKBONE|DICT|INTERRES
   135   69   70 1    
   136   69  190 1    
   137   70   71 1    
   138   70   72 1    
   139   70  191 1    
   140   71  192 1    
   141   71  193 1    
   142   71  194 1    
   143   72   73 2    
   144   72   74 am   BACKBONE|DICT|INTERRES
   145   74   75 1    
   146   74  195 1    
   147   75   76 1    
   148   75   77 1    
   149   75  196 1    
   150   76  197 1    
   151   76  198 1    
   152   76  199 1    
   153   77   78 2    
   154   77   79 am   BACKBONE|DICT|INTERRES
   155   79   80 1    
   156   79  200 1    
   157   80   81 1    
   158   80   82 1    
   159   80  201 1    
   160   81  202 1    
   161   81  203 1    
   162   81  204 1    
   163   82   83 2    
   164   82   84 am   BACKBONE|DICT|INTERRES
   165   84   85 1    
   166   84  205 1    
   167   85   86 1    
   168   85   87 1    
   169   85  206 1    
   170   86  207 1    
   171   86  208 1    
   172   86  209 1    
   173   87   88 2    
   174   87   89 am   BACKBONE|DICT|INTERRES
   175   89   90 1    
   176   89  210 1    
   177   90   91 1    
   178   90   92 1    
   179   90  211 1    
   180   91  212 1    
   181   91  213 1    
   182   91  214 1    
   183   92   93 2    
   184   92   94 am   BACKBONE|DICT|INTERRES
   185   94   95 1    
   186   94  215 1    
   187   95   96 1    
   188   95   97 1    
   189   95  216 1    
   190   96  217 1    
   191   96  218 1    
   192   96  219 1    
   193   97   98 2    
   194   97   99 am   BACKBONE|DICT|INTERRES
   195   99  100 1    
   196   99  220 1    
   197  100  101 1    
   198  100  102 1    
   199  100  221 1    
   200  101  222 1    
   201  101  223 1    
   202  101  224 1    
   203  102  103 2    
   204  102  104 am   BACKBONE|DICT|INTERRES
   205  104  105 1    
   206  104  225 1    
   207  105  106 1    
   208  105  107 1    
   209  105  226 1    
   210  106  227 1    
   211  106  228 1    
   212  106  229 1    
   213  107  108 2    
   214  107  109 am   BACKBONE|DICT|INTERRES
   215  109  110 1    
   216  109  230 1    
   217  110  111 1    
   218  110  112 1    
   219  110  231 1    
   220  111  232 1    
   221  111  233 1    
   222  111  234 1    
   223  112  113 2    
   224  112  114 am   BACKBONE|DICT|INTERRES
   225  114  115 1    
   226  114  235 1    
   227  115  116 1    
   228  115  117 1    
   229  115  236 1    
   230  116  237 1    
   231  116  238 1    
   232  116  239 1    
   233  117  118 2    
   234  117  119 am   BACKBONE|DICT|INTERRES
   235  119  120 1    
   236  119  240 1    
   237  120  121 1    
   238  120  124 1    
   239  120  241 1    
   240  121  122 am   BACKBONE|DICT|INTERRES
   241  121  123 2    
   242  122  242 1    
   243  122  243 1    
   244  124  125 1    
   245  124  244 1    
   246  124  245 1    
   247  125  126 1    
   248  126  246 1    
   249  126  247 1    
@<TRIPOS>SUBSTRUCTURE
     1 UNK         1 GROUP             0       ****    0 ROOT    
