@<TRIPOS>MOLECULE
3R540
247   249    1
SMALL
USER_CHARGES


@<TRIPOS>ATOM
      1 CA         -3.3858  -13.1668  -47.9363 C.3       0 UNK        -0.1800 
      2 C          -2.0917  -13.0167  -47.1511 C.2       0 UNK         0.5000 
      3 O          -2.0969  -12.4334  -46.0682 O.2       0 UNK        -0.5000 
      4 N          -0.9854  -13.5559  -47.6784 N.am      1 UNK        -0.5000 
      5 CA          0.3528  -13.5192  -47.0728 C.3       1 UNK         0.1400 
      6 C6          1.4412  -14.0700  -48.0299 C.3       23 UNK        -0.0398 
      7 S7          1.0808  -15.7418  -48.6751 S.3       23 UNK        -0.2404 
      8 C8          2.5615  -16.0497  -49.6849 C.3       23 UNK        -0.0205 
      9 C9          2.5918  -17.4897  -50.1720 C.ar      23 UNK        -0.0193 
     10 C10         2.3008  -17.8017  -51.5025 C.ar      23 UNK        -0.1150 
     11 C11         2.3225  -19.1304  -51.9370 C.ar      23 UNK        -0.0193 
     12 C12         2.6226  -20.1481  -51.0263 C.ar      23 UNK        -0.1150 
     13 C13         2.9052  -19.8548  -49.6891 C.ar      23 UNK        -0.0193 
     14 C14         2.9089  -18.5164  -49.2794 C.ar      23 UNK        -0.1150 
     15 C15         3.2144  -21.0060  -48.7297 C.3       23 UNK        -0.0205 
     16 S16         2.8931  -20.6714  -46.9611 S.3       23 UNK        -0.2404 
     17 C17         1.0856  -20.4044  -46.9443 C.3       23 UNK        -0.0398 
     18 CA          0.3001  -21.6696  -46.5281 C.3       11 UNK         0.1400 
     19 N           0.7096  -22.1759  -45.2158 N.am      11 UNK        -0.5000 
     20 C           0.5266  -23.4386  -44.8030 C.2       10 UNK         0.5000 
     21 O           0.0142  -24.3143  -45.4991 O.2       10 UNK        -0.5000 
     22 CA          0.9523  -23.7769  -43.3588 C.3       10 UNK         0.1400 
     23 CB          2.3907  -24.3149  -43.3393 C.3       10 UNK        -0.1800 
     24 N           0.8583  -22.6422  -42.4389 N.am      10 UNK        -0.5000 
     25 C          -0.2542  -21.9410  -42.1781 C.2       9 UNK         0.5000 
     26 O          -1.3607  -22.2379  -42.6264 O.2       9 UNK        -0.5000 
     27 CA         -0.0950  -20.6579  -41.3368 C.3       9 UNK         0.1400 
     28 CB         -0.5313  -20.9103  -39.8865 C.3       9 UNK        -0.1800 
     29 N           1.2666  -20.1087  -41.3424 N.am      9 UNK        -0.5000 
     30 C           1.9187  -19.6715  -42.4288 C.2       8 UNK         0.5000 
     31 O           1.4367  -19.6798  -43.5648 O.2       8 UNK        -0.5000 
     32 CA          3.3826  -19.2496  -42.2085 C.3       8 UNK         0.1400 
     33 CB          4.2888  -20.4914  -42.1875 C.3       8 UNK        -0.1800 
     34 N           3.8556  -18.3510  -43.2581 N.am      8 UNK        -0.5000 
     35 C           3.5198  -17.0616  -43.3634 C.2       7 UNK         0.5000 
     36 O           2.8231  -16.4621  -42.5393 O.2       7 UNK        -0.5000 
     37 CA          4.0530  -16.3348  -44.6080 C.3       7 UNK         0.1400 
     38 CB          3.3106  -16.8103  -45.8638 C.3       7 UNK        -0.1800 
     39 N           3.8502  -14.8991  -44.4612 N.am      7 UNK        -0.5000 
     40 C           4.8086  -13.9671  -44.4092 C.2       6 UNK         0.5000 
     41 O           6.0028  -14.1905  -44.6103 O.2       6 UNK        -0.5000 
     42 CA          4.3500  -12.5430  -44.0429 C.3       6 UNK         0.1400 
     43 CB          4.0235  -11.7344  -45.3082 C.3       6 UNK        -0.1800 
     44 N           3.1686  -12.5776  -43.1827 N.am      6 UNK        -0.5000 
     45 C           3.1844  -12.8142  -41.8643 C.2       5 UNK         0.5000 
     46 O           4.2196  -12.8796  -41.1989 O.2       5 UNK        -0.5000 
     47 CA          1.8144  -13.0459  -41.1909 C.3       5 UNK         0.1400 
     48 CB          1.7996  -12.6585  -39.6976 C.3       5 UNK        -0.1800 
     49 N           0.6995  -12.4249  -41.9145 N.am      5 UNK        -0.5000 
     50 C           0.4638  -11.1174  -42.1048 C.2       4 UNK         0.5000 
     51 O           1.1604  -10.2176  -41.6343 O.2       4 UNK        -0.5000 
     52 CA         -0.7407  -10.7446  -42.9956 C.3       4 UNK         0.1400 
     53 CB         -0.2511  -10.1748  -44.3367 C.3       4 UNK        -0.1800 
     54 N          -1.6360  -11.8704  -43.2697 N.am      4 UNK        -0.5000 
     55 C          -2.4776  -12.4269  -42.3880 C.2       3 UNK         0.5000 
     56 O          -2.6587  -11.9988  -41.2480 O.2       3 UNK        -0.5000 
     57 CA         -3.1978  -13.7078  -42.8477 C.3       3 UNK         0.1400 
     58 CB         -4.4845  -13.3707  -43.6167 C.3       3 UNK        -0.1800 
     59 N          -2.3365  -14.5541  -43.6783 N.am      3 UNK        -0.5000 
     60 C          -1.3000  -15.2686  -43.2157 C.2       2 UNK         0.5000 
     61 O          -0.9809  -15.3155  -42.0284 O.2       2 UNK        -0.5000 
     62 CA         -0.4564  -16.0263  -44.2569 C.3       2 UNK         0.1400 
     63 CB         -1.0438  -17.4153  -44.5334 C.3       2 UNK        -0.1800 
     64 N          -0.3363  -15.2970  -45.5185 N.am      2 UNK        -0.5000 
     65 C           0.4106  -14.1981  -45.6866 C.2       1 UNK         0.5000 
     66 O           1.0993  -13.7025  -44.7939 O.2       1 UNK        -0.5000 
     67 C          -1.2236  -21.4244  -46.5941 C.2       11 UNK         0.5000 
     68 O          -1.8036  -21.5560  -47.6710 O.2       11 UNK        -0.5000 
     69 N          -1.8571  -21.1100  -45.4524 N.am      12 UNK        -0.5000 
     70 CA         -3.3150  -21.0047  -45.3261 C.3       12 UNK         0.1400 
     71 CB         -3.6779  -20.1436  -44.1057 C.3       12 UNK        -0.1800 
     72 C          -3.9831  -22.3880  -45.2229 C.2       12 UNK         0.5000 
     73 O          -5.1031  -22.5603  -45.7024 O.2       12 UNK        -0.5000 
     74 N          -3.2750  -23.3506  -44.6165 N.am      13 UNK        -0.5000 
     75 CA         -3.6902  -24.7465  -44.4581 C.3       13 UNK         0.1400 
     76 CB         -2.8482  -25.3825  -43.3404 C.3       13 UNK        -0.1800 
     77 C          -3.5985  -25.5835  -45.7537 C.2       13 UNK         0.5000 
     78 O          -4.0139  -26.7439  -45.7466 O.2       13 UNK        -0.5000 
     79 N          -3.0523  -25.0032  -46.8314 N.am      14 UNK        -0.5000 
     80 CA         -2.9600  -25.5939  -48.1668 C.3       14 UNK         0.1400 
     81 CB         -2.1041  -24.6696  -49.0491 C.3       14 UNK        -0.1800 
     82 C          -4.3394  -25.8330  -48.8173 C.2       14 UNK         0.5000 
     83 O          -5.3448  -25.2617  -48.3856 O.2       14 UNK        -0.5000 
     84 N          -4.3514  -26.6670  -49.8659 N.am      15 UNK        -0.5000 
     85 CA         -5.5256  -26.9737  -50.6865 C.3       15 UNK         0.1400 
     86 CB         -5.1351  -28.0367  -51.7253 C.3       15 UNK        -0.1800 
     87 C          -6.0927  -25.7291  -51.3948 C.2       15 UNK         0.5000 
     88 O          -5.3382  -24.8049  -51.7044 O.2       15 UNK        -0.5000 
     89 N          -7.4022  -25.7452  -51.6770 N.am      16 UNK        -0.5000 
     90 CA         -8.1413  -24.6360  -52.2894 C.3       16 UNK         0.1400 
     91 CB         -9.6278  -25.0088  -52.3916 C.3       16 UNK        -0.1800 
     92 C          -7.5971  -24.2023  -53.6633 C.2       16 UNK         0.5000 
     93 O          -7.5470  -23.0055  -53.9432 O.2       16 UNK        -0.5000 
     94 N          -7.1603  -25.1757  -54.4746 N.am      17 UNK        -0.5000 
     95 CA         -6.5343  -24.9432  -55.7771 C.3       17 UNK         0.1400 
     96 CB         -6.4021  -26.2780  -56.5254 C.3       17 UNK        -0.1800 
     97 C          -5.1661  -24.2468  -55.6597 C.2       17 UNK         0.5000 
     98 O          -4.8747  -23.3439  -56.4439 O.2       17 UNK        -0.5000 
     99 N          -4.3691  -24.6534  -54.6615 N.am      18 UNK        -0.5000 
    100 CA        -3.0744  -24.0518  -54.3440 C.3       18 UNK         0.1400 
    101 CB        -2.2976  -24.9601  -53.3777 C.3       18 UNK        -0.1800 
    102 C         -3.2370  -22.6361  -53.7687 C.2       18 UNK         0.5000 
    103 O         -2.5418  -21.7210  -54.2047 O.2       18 UNK        -0.5000 
    104 N         -4.1927  -22.4705  -52.8442 N.am      19 UNK        -0.5000 
    105 CA        -4.5613  -21.1878  -52.2456 C.3       19 UNK         0.1400 
    106 CB        -5.6084  -21.4195  -51.1462 C.3       19 UNK        -0.1800 
    107 C         -5.0639  -20.1650  -53.2827 C.2       19 UNK         0.5000 
    108 O         -4.7107  -18.9896  -53.1887 O.2       19 UNK        -0.5000 
    109 N         -5.8413  -20.6345  -54.2699 N.am      20 UNK        -0.5000 
    110 CA        -6.2901  -19.8476  -55.4176 C.3       20 UNK         0.1400 
    111 CB        -7.3741  -20.6170  -56.1876 C.3       20 UNK        -0.1800 
    112 C         -5.1292  -19.4542  -56.3485 C.2       20 UNK         0.5000 
    113 O         -5.0285  -18.2847  -56.7219 O.2       20 UNK        -0.5000 
    114 N         -4.2559  -20.4181  -56.6800 N.am      21 UNK        -0.5000 
    115 CA        -3.0709  -20.2179  -57.5222 C.3       21 UNK         0.1400 
    116 CB        -2.3961  -21.5698  -57.7988 C.3       21 UNK        -0.1800 
    117 C         -2.0615  -19.2141  -56.9313 C.2       21 UNK         0.5000 
    118 O         -1.4790  -18.4275  -57.6792 O.2       21 UNK        -0.5000 
    119 N         -1.9079  -19.2327  -55.6027 N.am      22 UNK        -0.5000 
    120 CA        -1.1326  -18.2532  -54.8252 C.3       22 UNK         0.1400 
    121 C         -1.8109  -16.8567  -54.6733 C.2       22 UNK         0.5000 
    122 N         -3.0264  -16.6302  -55.1579 N.am      22 UNK        -0.7600 
    123 O         -1.2080  -15.9434  -54.1164 O.2       22 UNK        -0.5000 
    124 C124       -0.7111  -18.8255  -53.4471 C.3       23 UNK        -0.0398 
    125 S125        0.4112  -20.2567  -53.6063 S.3       23 UNK        -0.2404 
    126 C126        2.0397  -19.4739  -53.3919 C.3       23 UNK        -0.0205 
    127 H127       -4.1285  -13.6929  -47.3366 H         1 UNK         0.0600 
    128 H128       -3.2366  -13.7242  -48.8614 H         1 UNK         0.0600 
    129 H129       -3.7847  -12.1848  -48.1900 H         1 UNK         0.0600 
    130 H130       -1.0427  -14.0399  -48.5637 H         1 UNK         0.3000 
    131 H131        0.5842  -12.4661  -46.8999 H         1 UNK         0.0600 
    132 H132        1.5429  -13.3972  -48.8826 H         1 UNK         0.0800 
    133 H133        2.4173  -14.0769  -47.5408 H         1 UNK         0.0800 
    134 H134        2.5747  -15.3559  -50.5269 H         1 UNK         0.0800 
    135 H135        3.4598  -15.8460  -49.1009 H         1 UNK         0.0800 
    136 H136        2.0602  -17.0109  -52.1993 H         1 UNK         0.1150 
    137 H137        2.6310  -21.1753  -51.3639 H         1 UNK         0.1150 
    138 H138        3.1391  -18.2628  -48.2574 H         1 UNK         0.1150 
    139 H139        2.6418  -21.8895  -49.0165 H         1 UNK         0.0800 
    140 H140        4.2663  -21.2705  -48.8427 H         1 UNK         0.0800 
    141 H141        0.7600  -20.0576  -47.9264 H         1 UNK         0.0800 
    142 H142        0.8834  -19.5855  -46.2541 H         1 UNK         0.0800 
    143 H143        0.5223  -22.4420  -47.2680 H         1 UNK         0.0600 
    144 H144        1.1309  -21.4982  -44.5899 H         1 UNK         0.3000 
    145 H145        0.2877  -24.5591  -42.9888 H         1 UNK         0.0600 
    146 H146        2.6809  -24.6322  -42.3376 H         1 UNK         0.0600 
    147 H147        2.4926  -25.1806  -43.9953 H         1 UNK         0.0600 
    148 H148        3.1059  -23.5627  -43.6751 H         1 UNK         0.0600 
    149 H149        1.7219  -22.3273  -42.0241 H         1 UNK         0.3000 
    150 H150       -0.7583  -19.9055  -41.7685 H         1 UNK         0.0600 
    151 H151        0.1131  -21.6389  -39.3931 H         1 UNK         0.0600 
    152 H152       -1.5517  -21.2943  -39.8467 H         1 UNK         0.0600 
    153 H153       -0.5097  -19.9904  -39.3018 H         1 UNK         0.0600 
    154 H154        1.7384  -20.0851  -40.4496 H         1 UNK         0.3000 
    155 H155        3.4604  -18.7382  -41.2466 H         1 UNK         0.0600 
    156 H156        4.2358  -21.0446  -43.1265 H         1 UNK         0.0600 
    157 H157        4.0047  -21.1754  -41.3869 H         1 UNK         0.0600 
    158 H158        5.3303  -20.2162  -42.0197 H         1 UNK         0.0600 
    159 H159        4.3881  -18.7793  -44.0009 H         1 UNK         0.3000 
    160 H160        5.1150  -16.5670  -44.7106 H         1 UNK         0.0600 
    161 H161        2.2351  -16.6517  -45.7876 H         1 UNK         0.0600 
    162 H162        3.4710  -17.8753  -46.0263 H         1 UNK         0.0600 
    163 H163        3.6681  -16.2873  -46.7496 H         1 UNK         0.0600 
    164 H164        2.9020  -14.6161  -44.2425 H         1 UNK         0.3000 
    165 H165        5.1664  -12.0454  -43.5154 H         1 UNK         0.0600 
    166 H166        4.8925  -11.6693  -45.9641 H         1 UNK         0.0600 
    167 H167        3.2132  -12.1874  -45.8801 H         1 UNK         0.0600 
    168 H168        3.7269  -10.7157  -45.0580 H         1 UNK         0.0600 
    169 H169        2.2724  -12.6141  -43.6577 H         1 UNK         0.3000 
    170 H170        1.6379  -14.1211  -41.2485 H         1 UNK         0.0600 
    171 H171        2.5178  -13.2542  -39.1332 H         1 UNK         0.0600 
    172 H172        2.0569  -11.6101  -39.5462 H         1 UNK         0.0600 
    173 H173        0.8184  -12.8320  -39.2557 H         1 UNK         0.0600 
    174 H174        0.0680  -13.0739  -42.3630 H         1 UNK         0.3000 
    175 H175       -1.3080   -9.9694  -42.4767 H         1 UNK         0.0600 
    176 H176       -1.0879   -9.8667  -44.9640 H         1 UNK         0.0600 
    177 H177        0.3809   -9.2989  -44.1849 H         1 UNK         0.0600 
    178 H178        0.3325  -10.9081  -44.8943 H         1 UNK         0.0600 
    179 H179       -1.6192  -12.2386  -44.2172 H         1 UNK         0.3000 
    180 H180       -3.4758  -14.2726  -41.9552 H         1 UNK         0.0600 
    181 H181       -4.2792  -12.8019  -44.5239 H         1 UNK         0.0600 
    182 H182       -5.1588  -12.7730  -43.0021 H         1 UNK         0.0600 
    183 H183       -5.0216  -14.2753  -43.9022 H         1 UNK         0.0600 
    184 H184       -2.5006  -14.5267  -44.6737 H         1 UNK         0.3000 
    185 H185        0.5421  -16.1606  -43.8389 H         1 UNK         0.0600 
    186 H186       -1.1419  -17.9897  -43.6113 H         1 UNK         0.0600 
    187 H187       -2.0288  -17.3474  -44.9956 H         1 UNK         0.0600 
    188 H188       -0.3993  -17.9856  -45.2003 H         1 UNK         0.0600 
    189 H189       -0.8620  -15.6458  -46.3067 H         1 UNK         0.3000 
    190 H190       -1.3249  -21.0659  -44.5945 H         1 UNK         0.3000 
    191 H191       -3.7120  -20.5092  -46.2148 H         1 UNK         0.0600 
    192 H192       -3.2947  -19.1309  -44.2066 H         1 UNK         0.0600 
    193 H193       -4.7602  -20.0647  -43.9954 H         1 UNK         0.0600 
    194 H194       -3.2875  -20.5606  -43.1778 H         1 UNK         0.0600 
    195 H195       -2.3977  -23.0915  -44.1797 H         1 UNK         0.3000 
    196 H196       -4.7352  -24.7554  -44.1419 H         1 UNK         0.0600 
    197 H197       -3.2036  -26.3866  -43.1058 H         1 UNK         0.0600 
    198 H198       -2.8985  -24.7974  -42.4217 H         1 UNK         0.0600 
    199 H199       -1.8013  -25.4668  -43.6301 H         1 UNK         0.0600 
    200 H200       -2.7437  -24.0468  -46.7429 H         1 UNK         0.3000 
    201 H201       -2.4539  -26.5565  -48.0705 H         1 UNK         0.0600 
    202 H202       -1.9186  -25.1163  -50.0263 H         1 UNK         0.0600 
    203 H203       -2.5957  -23.7104  -49.2178 H         1 UNK         0.0600 
    204 H204       -1.1330  -24.4734  -48.5935 H         1 UNK         0.0600 
    205 H205       -3.4798  -27.0730  -50.1720 H         1 UNK         0.3000 
    206 H206       -6.2964  -27.3835  -50.0306 H         1 UNK         0.0600 
    207 H207       -4.7719  -28.9448  -51.2436 H         1 UNK         0.0600 
    208 H208       -5.9901  -28.3188  -52.3410 H         1 UNK         0.0600 
    209 H209       -4.3530  -27.6763  -52.3952 H         1 UNK         0.0600 
    210 H210       -7.9492  -26.5498  -51.4065 H         1 UNK         0.3000 
    211 H211       -8.0535  -23.7784  -51.6196 H         1 UNK         0.0600 
    212 H212       -9.7808  -25.8897  -53.0163 H         1 UNK         0.0600 
    213 H213      -10.2060  -24.1927  -52.8274 H         1 UNK         0.0600 
    214 H214      -10.0516  -25.2156  -51.4087 H         1 UNK         0.0600 
    215 H215       -7.2371  -26.1331  -54.1646 H         1 UNK         0.3000 
    216 H216       -7.1902  -24.2905  -56.3573 H         1 UNK         0.0600 
    217 H217       -5.9506  -26.1310  -57.5075 H         1 UNK         0.0600 
    218 H218       -7.3770  -26.7396  -56.6830 H         1 UNK         0.0600 
    219 H219       -5.7784  -26.9875  -55.9801 H         1 UNK         0.0600 
    220 H220       -4.7151  -25.3486  -54.0172 H         1 UNK         0.3000 
    221 H221       -2.4987  -23.9735  -55.2687 H         1 UNK         0.0600 
    222 H222       -2.8201  -25.0905  -52.4302 H         1 UNK         0.0600 
    223 H223       -2.1360  -25.9478  -53.8095 H         1 UNK         0.0600 
    224 H224       -1.3170  -24.5383  -53.1537 H         1 UNK         0.0600 
    225 H225       -4.6974  -23.2913  -52.5152 H         1 UNK         0.3000 
    226 H226       -3.6644  -20.7741  -51.7799 H         1 UNK         0.0600 
    227 H227       -5.8649  -20.4839  -50.6481 H         1 UNK         0.0600 
    228 H228       -6.5288  -21.8397  -51.5516 H         1 UNK         0.0600 
    229 H229       -5.2355  -22.1044  -50.3839 H         1 UNK         0.0600 
    230 H230       -6.1480  -21.6013  -54.2344 H         1 UNK         0.3000 
    231 H231       -6.7381  -18.9269  -55.0381 H         1 UNK         0.0600 
    232 H232       -7.0072  -21.5761  -56.5539 H         1 UNK         0.0600 
    233 H233       -7.7212  -20.0462  -57.0497 H         1 UNK         0.0600 
    234 H234       -8.2414  -20.8109  -55.5563 H         1 UNK         0.0600 
    235 H235       -4.4212  -21.3649  -56.3536 H         1 UNK         0.3000 
    236 H236       -3.4142  -19.8120  -58.4759 H         1 UNK         0.0600 
    237 H237       -3.0783  -22.2560  -58.3007 H         1 UNK         0.0600 
    238 H238       -1.5255  -21.4472  -58.4441 H         1 UNK         0.0600 
    239 H239       -2.0578  -22.0464  -56.8787 H         1 UNK         0.0600 
    240 H240       -2.3617  -19.9699  -55.0706 H         1 UNK         0.3000 
    241 H241       -0.2149  -18.0558  -55.3823 H         1 UNK         0.0600 
    242 H242       -3.5507  -17.3554  -55.6327 H         1 UNK         0.3800 
    243 H243       -3.4353  -15.7162  -55.0483 H         1 UNK         0.3800 
    244 H244       -1.5930  -19.1411  -52.8872 H         1 UNK         0.0800 
    245 H245       -0.2251  -18.0651  -52.8348 H         1 UNK         0.0800 
    246 H246        2.1062  -18.5873  -54.0244 H         1 UNK         0.0800 
    247 H247        2.8077  -20.1606  -53.7505 H         1 UNK         0.0800 
@<TRIPOS>BOND
     1    1    2 1    
     2    1  127 1    
     3    1  128 1    
     4    1  129 1    
     5    2    3 2    
     6    2    4 am   BACKBONE|DICT|INTERRES
     7    4    5 1    
     8    4  130 1    
     9    5    6 1    
    10    5   65 1    
    11    5  131 1    
    12    6    7 1    
    13    6  132 1    
    14    6  133 1    
    15    7    8 1    
    16    8    9 1    
    17    8  134 1    
    18    8  135 1    
    19    9   10 ar   
    20    9   14 ar   
    21   10   11 ar   
    22   10  136 1    
    23   11   12 ar   
    24   11  126 1    
    25   12   13 ar   
    26   12  137 1    
    27   13   14 ar   
    28   13   15 1    
    29   14  138 1    
    30   15   16 1    
    31   15  139 1    
    32   15  140 1    
    33   16   17 1    
    34   17   18 1    
    35   17  141 1    
    36   17  142 1    
    37   18   19 1    
    38   18   67 1    
    39   18  143 1    
    40   19   20 am   BACKBONE|DICT|INTERRES
    41   19  144 1    
    42   20   21 2    
    43   20   22 1    
    44   22   23 1    
    45   22   24 1    
    46   22  145 1    
    47   23  146 1    
    48   23  147 1    
    49   23  148 1    
    50   24   25 am   BACKBONE|DICT|INTERRES
    51   24  149 1    
    52   25   26 2    
    53   25   27 1    
    54   27   28 1    
    55   27   29 1    
    56   27  150 1    
    57   28  151 1    
    58   28  152 1    
    59   28  153 1    
    60   29   30 am   BACKBONE|DICT|INTERRES
    61   29  154 1    
    62   30   31 2    
    63   30   32 1    
    64   32   33 1    
    65   32   34 1    
    66   32  155 1    
    67   33  156 1    
    68   33  157 1    
    69   33  158 1    
    70   34   35 am   BACKBONE|DICT|INTERRES
    71   34  159 1    
    72   35   36 2    
    73   35   37 1    
    74   37   38 1    
    75   37   39 1    
    76   37  160 1    
    77   38  161 1    
    78   38  162 1    
    79   38  163 1    
    80   39   40 am   BACKBONE|DICT|INTERRES
    81   39  164 1    
    82   40   41 2    
    83   40   42 1    
    84   42   43 1    
    85   42   44 1    
    86   42  165 1    
    87   43  166 1    
    88   43  167 1    
    89   43  168 1    
    90   44   45 am   BACKBONE|DICT|INTERRES
    91   44  169 1    
    92   45   46 2    
    93   45   47 1    
    94   47   48 1    
    95   47   49 1    
    96   47  170 1    
    97   48  171 1    
    98   48  172 1    
    99   48  173 1    
   100   49   50 am   BACKBONE|DICT|INTERRES
   101   49  174 1    
   102   50   51 2    
   103   50   52 1    
   104   52   53 1    
   105   52   54 1    
   106   52  175 1    
   107   53  176 1    
   108   53  177 1    
   109   53  178 1    
   110   54   55 am   BACKBONE|DICT|INTERRES
   111   54  179 1    
   112   55   56 2    
   113   55   57 1    
   114   57   58 1    
   115   57   59 1    
   116   57  180 1    
   117   58  181 1    
   118   58  182 1    
   119   58  183 1    
   120   59   60 am   BACKBONE|DICT|INTERRES
   121   59  184 1    
   122   60   61 2    
   123   60   62 1    
   124   62   63 1    
   125   62   64 1    
   126   62  185 1    
   127   63  186 1    
   128   63  187 1    
   129   63  188 1    
   130   64   65 am   BACKBONE|DICT|INTERRES
   131   64  189 1    
   132   65   66 2    
   133   67   68 2    
   134   67   69 am   BACKBONE|DICT|INTERRES
   135   69   70 1    
   136   69  190 1    
   137   70   71 1    
   138   70   72 1    
   139   70  191 1    
   140   71  192 1    
   141   71  193 1    
   142   71  194 1    
   143   72   73 2    
   144   72   74 am   BACKBONE|DICT|INTERRES
   145   74   75 1    
   146   74  195 1    
   147   75   76 1    
   148   75   77 1    
   149   75  196 1    
   150   76  197 1    
   151   76  198 1    
   152   76  199 1    
   153   77   78 2    
   154   77   79 am   BACKBONE|DICT|INTERRES
   155   79   80 1    
   156   79  200 1    
   157   80   81 1    
   158   80   82 1    
   159   80  201 1    
   160   81  202 1    
   161   81  203 1    
   162   81  204 1    
   163   82   83 2    
   164   82   84 am   BACKBONE|DICT|INTERRES
   165   84   85 1    
   166   84  205 1    
   167   85   86 1    
   168   85   87 1    
   169   85  206 1    
   170   86  207 1    
   171   86  208 1    
   172   86  209 1    
   173   87   88 2    
   174   87   89 am   BACKBONE|DICT|INTERRES
   175   89   90 1    
   176   89  210 1    
   177   90   91 1    
   178   90   92 1    
   179   90  211 1    
   180   91  212 1    
   181   91  213 1    
   182   91  214 1    
   183   92   93 2    
   184   92   94 am   BACKBONE|DICT|INTERRES
   185   94   95 1    
   186   94  215 1    
   187   95   96 1    
   188   95   97 1    
   189   95  216 1    
   190   96  217 1    
   191   96  218 1    
   192   96  219 1    
   193   97   98 2    
   194   97   99 am   BACKBONE|DICT|INTERRES
   195   99  100 1    
   196   99  220 1    
   197  100  101 1    
   198  100  102 1    
   199  100  221 1    
   200  101  222 1    
   201  101  223 1    
   202  101  224 1    
   203  102  103 2    
   204  102  104 am   BACKBONE|DICT|INTERRES
   205  104  105 1    
   206  104  225 1    
   207  105  106 1    
   208  105  107 1    
   209  105  226 1    
   210  106  227 1    
   211  106  228 1    
   212  106  229 1    
   213  107  108 2    
   214  107  109 am   BACKBONE|DICT|INTERRES
   215  109  110 1    
   216  109  230 1    
   217  110  111 1    
   218  110  112 1    
   219  110  231 1    
   220  111  232 1    
   221  111  233 1    
   222  111  234 1    
   223  112  113 2    
   224  112  114 am   BACKBONE|DICT|INTERRES
   225  114  115 1    
   226  114  235 1    
   227  115  116 1    
   228  115  117 1    
   229  115  236 1    
   230  116  237 1    
   231  116  238 1    
   232  116  239 1    
   233  117  118 2    
   234  117  119 am   BACKBONE|DICT|INTERRES
   235  119  120 1    
   236  119  240 1    
   237  120  121 1    
   238  120  124 1    
   239  120  241 1    
   240  121  122 am   BACKBONE|DICT|INTERRES
   241  121  123 2    
   242  122  242 1    
   243  122  243 1    
   244  124  125 1    
   245  124  244 1    
   246  124  245 1    
   247  125  126 1    
   248  126  246 1    
   249  126  247 1    
@<TRIPOS>SUBSTRUCTURE
     1 UNK         1 GROUP             0       ****    0 ROOT    
