@<TRIPOS>MOLECULE
3R540
247   249    1
SMALL
USER_CHARGES


@<TRIPOS>ATOM
      1 CA          0.5317  -15.0472  -47.9865 C.3       0 UNK        -0.1800 
      2 C           0.5353  -14.6781  -46.5112 C.2       0 UNK         0.5000 
      3 O           1.2778  -13.7849  -46.1015 O.2       0 UNK        -0.5000 
      4 N          -0.2804  -15.3691  -45.7049 N.am      1 UNK        -0.5000 
      5 CA         -0.4028  -15.1231  -44.2653 C.3       1 UNK         0.1400 
      6 C6         -0.9871  -16.3426  -43.5099 C.3       23 UNK        -0.0398 
      7 S7         -2.7302  -16.7370  -43.9027 S.3       23 UNK        -0.2404 
      8 C8         -2.6332  -18.4547  -44.4841 C.3       23 UNK        -0.0205 
      9 C9         -2.4779  -18.5430  -45.9951 C.ar      23 UNK        -0.0193 
     10 C10        -3.6108  -18.6011  -46.8119 C.ar      23 UNK        -0.1150 
     11 C11        -3.4850  -18.7316  -48.1976 C.ar      23 UNK        -0.0193 
     12 C12        -2.2111  -18.8023  -48.7662 C.ar      23 UNK        -0.1150 
     13 C13        -1.0689  -18.7511  -47.9623 C.ar      23 UNK        -0.0193 
     14 C14        -1.2097  -18.6047  -46.5770 C.ar      23 UNK        -0.1150 
     15 C15         0.3119  -18.8328  -48.5997 C.3       23 UNK        -0.0205 
     16 S16         0.8757  -20.5455  -48.8780 S.3       23 UNK        -0.2404 
     17 C17         1.0242  -21.2112  -47.1824 C.3       23 UNK        -0.0398 
     18 CA          0.3929  -22.6080  -46.9718 C.3       11 UNK         0.1400 
     19 N           0.6211  -23.0824  -45.6054 N.am      11 UNK        -0.5000 
     20 C           0.5605  -24.3682  -45.2293 C.2       10 UNK         0.5000 
     21 O           0.3589  -25.2950  -46.0124 O.2       10 UNK        -0.5000 
     22 CA          0.7022  -24.6666  -43.7217 C.3       10 UNK         0.1400 
     23 CB          2.1760  -24.8936  -43.3551 C.3       10 UNK        -0.1800 
     24 N           0.1547  -23.6058  -42.8731 N.am      10 UNK        -0.5000 
     25 C          -1.1264  -23.2130  -42.8764 C.2       9 UNK         0.5000 
     26 O          -2.0037  -23.7942  -43.5139 O.2       9 UNK        -0.5000 
     27 CA         -1.4883  -21.9327  -42.0935 C.3       9 UNK         0.1400 
     28 CB         -2.2390  -22.2908  -40.8027 C.3       9 UNK        -0.1800 
     29 N          -0.3568  -21.0568  -41.7595 N.am      9 UNK        -0.5000 
     30 C           0.4888  -20.4883  -42.6304 C.2       8 UNK         0.5000 
     31 O           0.4395  -20.6799  -43.8495 O.2       8 UNK        -0.5000 
     32 CA          1.5832  -19.5873  -42.0290 C.3       8 UNK         0.1400 
     33 CB          2.4643  -20.3666  -41.0358 C.3       8 UNK        -0.1800 
     34 N           2.4384  -19.0768  -43.0968 N.am      8 UNK        -0.5000 
     35 C           2.6557  -17.7913  -43.3845 C.2       7 UNK         0.5000 
     36 O           2.2010  -16.8449  -42.7358 O.2       7 UNK        -0.5000 
     37 CA          3.5101  -17.5316  -44.6330 C.3       7 UNK         0.1400 
     38 CB          2.7940  -18.0190  -45.9023 C.3       7 UNK        -0.1800 
     39 N           3.7732  -16.1054  -44.7623 N.am      7 UNK        -0.5000 
     40 C           4.8326  -15.5579  -45.3658 C.2       6 UNK         0.5000 
     41 O           5.7533  -16.2166  -45.8520 O.2       6 UNK        -0.5000 
     42 CA          4.8689  -14.0217  -45.4690 C.3       6 UNK         0.1400 
     43 CB          4.7942  -13.5775  -46.9394 C.3       6 UNK        -0.1800 
     44 N           3.7731  -13.3780  -44.7461 N.am      6 UNK        -0.5000 
     45 C           3.8066  -12.9980  -43.4633 C.2       5 UNK         0.5000 
     46 O           4.7608  -13.2120  -42.7136 O.2       5 UNK        -0.5000 
     47 CA          2.5636  -12.2320  -42.9570 C.3       5 UNK         0.1400 
     48 CB          2.8075  -11.4911  -41.6264 C.3       5 UNK        -0.1800 
     49 N           2.0140  -11.3161  -43.9665 N.am      5 UNK        -0.5000 
     50 C           2.6596  -10.3096  -44.5794 C.2       4 UNK         0.5000 
     51 O           3.8144   -9.9667  -44.3226 O.2       4 UNK        -0.5000 
     52 CA          1.8872   -9.5636  -45.6807 C.3       4 UNK         0.1400 
     53 CB          2.0928  -10.2513  -47.0395 C.3       4 UNK        -0.1800 
     54 N           0.4549   -9.4648  -45.4078 N.am      4 UNK        -0.5000 
     55 C          -0.1033   -8.6663  -44.4918 C.2       3 UNK         0.5000 
     56 O           0.5427   -7.9202  -43.7551 O.2       3 UNK        -0.5000 
     57 CA         -1.6412   -8.6921  -44.3792 C.3       3 UNK         0.1400 
     58 CB         -2.2949   -7.9092  -45.5343 C.3       3 UNK        -0.1800 
     59 N          -2.2343  -10.0301  -44.2400 N.am      3 UNK        -0.5000 
     60 C          -2.2428  -11.0478  -45.1113 C.2       2 UNK         0.5000 
     61 O          -1.6972  -11.0261  -46.2172 O.2       2 UNK        -0.5000 
     62 CA         -3.0045  -12.3074  -44.6723 C.3       2 UNK         0.1400 
     63 CB         -4.2722  -12.5022  -45.5182 C.3       2 UNK        -0.1800 
     64 N          -2.1616  -13.4910  -44.7972 N.am      2 UNK        -0.5000 
     65 C          -1.1702  -13.8179  -43.9577 C.2       1 UNK         0.5000 
     66 O          -0.8502  -13.1375  -42.9826 O.2       1 UNK        -0.5000 
     67 C          -1.1071  -22.6830  -47.3392 C.2       11 UNK         0.5000 
     68 O          -1.4294  -23.0545  -48.4677 O.2       11 UNK        -0.5000 
     69 N          -2.0014  -22.4144  -46.3742 N.am      12 UNK        -0.5000 
     70 CA         -3.4488  -22.5843  -46.5393 C.3       12 UNK         0.1400 
     71 CB         -4.2079  -21.9522  -45.3647 C.3       12 UNK        -0.1800 
     72 C          -3.8429  -24.0620  -46.6989 C.2       12 UNK         0.5000 
     73 O          -4.6472  -24.3861  -47.5718 O.2       12 UNK        -0.5000 
     74 N          -3.2248  -24.9389  -45.8943 N.am      13 UNK        -0.5000 
     75 CA         -3.3684  -26.3956  -45.9743 C.3       13 UNK         0.1400 
     76 CB         -2.6346  -27.0434  -44.7910 C.3       13 UNK        -0.1800 
     77 C          -2.8710  -26.9793  -47.3130 C.2       13 UNK         0.5000 
     78 O          -3.4340  -27.9616  -47.7960 O.2       13 UNK        -0.5000 
     79 N          -1.8585  -26.3345  -47.9071 N.am      14 UNK        -0.5000 
     80 CA         -1.3296  -26.6228  -49.2401 C.3       14 UNK         0.1400 
     81 CB          0.1477  -26.1970  -49.2855 C.3       14 UNK        -0.1800 
     82 C          -2.1309  -25.9492  -50.3763 C.2       14 UNK         0.5000 
     83 O          -1.7056  -26.0340  -51.5289 O.2       14 UNK        -0.5000 
     84 N          -3.2455  -25.2732  -50.0536 N.am      15 UNK        -0.5000 
     85 CA         -4.1426  -24.5556  -50.9665 C.3       15 UNK         0.1400 
     86 CB         -4.8669  -25.5499  -51.8990 C.3       15 UNK        -0.1800 
     87 C          -3.4165  -23.4293  -51.7279 C.2       15 UNK         0.5000 
     88 O          -3.4877  -23.3640  -52.9554 O.2       15 UNK        -0.5000 
     89 N          -2.6742  -22.6038  -50.9770 N.am      16 UNK        -0.5000 
     90 CA         -1.8003  -21.5229  -51.4429 C.3       16 UNK         0.1400 
     91 CB         -2.6051  -20.4266  -52.1680 C.3       16 UNK        -0.1800 
     92 C          -0.6041  -22.0374  -52.2700 C.2       16 UNK         0.5000 
     93 O          -0.1315  -21.3394  -53.1673 O.2       16 UNK        -0.5000 
     94 N          -0.1570  -23.2646  -51.9600 N.am      17 UNK        -0.5000 
     95 CA          0.7853  -24.0817  -52.7319 C.3       17 UNK         0.1400 
     96 CB          2.1942  -23.4527  -52.7468 C.3       17 UNK        -0.1800 
     97 C           0.2270  -24.3970  -54.1371 C.2       17 UNK         0.5000 
     98 O           0.9244  -24.2298  -55.1392 O.2       17 UNK        -0.5000 
     99 N          -1.0413  -24.8338  -54.1582 N.am      18 UNK        -0.5000 
    100 CA        -1.8894  -25.1097  -55.3192 C.3       18 UNK         0.1400 
    101 CB        -1.3810  -26.3549  -56.0751 C.3       18 UNK        -0.1800 
    102 C         -2.0651  -23.8737  -56.2270 C.2       18 UNK         0.5000 
    103 O         -1.6745  -23.9057  -57.3966 O.2       18 UNK        -0.5000 
    104 N         -2.6436  -22.8026  -55.6697 N.am      19 UNK        -0.5000 
    105 CA        -2.9208  -21.5498  -56.3713 C.3       19 UNK         0.1400 
    106 CB        -1.8262  -20.5202  -56.0475 C.3       19 UNK        -0.1800 
    107 C         -4.3144  -21.0176  -56.0054 C.2       19 UNK         0.5000 
    108 O         -4.8764  -21.3791  -54.9694 O.2       19 UNK        -0.5000 
    109 N         -4.8442  -20.1409  -56.8669 N.am      20 UNK        -0.5000 
    110 CA        -6.2116  -19.6108  -56.8251 C.3       20 UNK         0.1400 
    111 CB        -6.4677  -18.8282  -58.1236 C.3       20 UNK        -0.1800 
    112 C         -6.5633  -18.7453  -55.5963 C.2       20 UNK         0.5000 
    113 O         -7.7427  -18.4492  -55.3985 O.2       20 UNK        -0.5000 
    114 N         -5.5601  -18.3469  -54.8002 N.am      21 UNK        -0.5000 
    115 CA        -5.7296  -17.5586  -53.5774 C.3       21 UNK         0.1400 
    116 CB        -4.3558  -17.1139  -53.0552 C.3       21 UNK        -0.1800 
    117 C         -6.5308  -18.2881  -52.4801 C.2       21 UNK         0.5000 
    118 O         -7.2997  -17.6350  -51.7736 O.2       21 UNK        -0.5000 
    119 N         -6.3706  -19.6148  -52.3787 N.am      22 UNK        -0.5000 
    120 CA        -7.1763  -20.4837  -51.5034 C.3       22 UNK         0.1400 
    121 C         -7.1851  -21.9894  -51.8969 C.2       22 UNK         0.5000 
    122 N         -6.5822  -22.4192  -52.9980 N.am      22 UNK        -0.7600 
    123 O         -7.7940  -22.7999  -51.2041 O.2       22 UNK        -0.5000 
    124 C124       -6.9611  -20.2419  -49.9799 C.3       23 UNK        -0.0398 
    125 S125       -5.2568  -20.5012  -49.3784 S.3       23 UNK        -0.2404 
    126 C126       -4.7267  -18.7859  -49.0739 C.3       23 UNK        -0.0205 
    127 H127        0.3720  -14.1566  -48.5942 H         1 UNK         0.0600 
    128 H128       -0.2542  -15.7649  -48.2224 H         1 UNK         0.0600 
    129 H129        1.4908  -15.4844  -48.2636 H         1 UNK         0.0600 
    130 H130       -0.8825  -16.0863  -46.0847 H         1 UNK         0.3000 
    131 H131        0.6077  -14.9770  -43.8784 H         1 UNK         0.0600 
    132 H132       -0.3642  -17.2154  -43.7052 H         1 UNK         0.0800 
    133 H133       -0.9166  -16.1763  -42.4336 H         1 UNK         0.0800 
    134 H134       -1.8267  -18.9893  -43.9818 H         1 UNK         0.0800 
    135 H135       -3.5528  -18.9537  -44.1785 H         1 UNK         0.0800 
    136 H136       -4.5945  -18.5548  -46.3661 H         1 UNK         0.1150 
    137 H137       -2.1080  -18.8968  -49.8365 H         1 UNK         0.1150 
    138 H138       -0.3357  -18.5566  -45.9439 H         1 UNK         0.1150 
    139 H139        0.2952  -18.3169  -49.5608 H         1 UNK         0.0800 
    140 H140        1.0455  -18.3027  -47.9972 H         1 UNK         0.0800 
    141 H141        0.6118  -20.5093  -46.4642 H         1 UNK         0.0800 
    142 H142        2.0894  -21.2652  -46.9548 H         1 UNK         0.0800 
    143 H143        0.9125  -23.2918  -47.6465 H         1 UNK         0.0600 
    144 H144        0.7405  -22.3663  -44.8961 H         1 UNK         0.3000 
    145 H145        0.1496  -25.5842  -43.5110 H         1 UNK         0.0600 
    146 H146        2.2826  -25.1817  -42.3091 H         1 UNK         0.0600 
    147 H147        2.6088  -25.6938  -43.9571 H         1 UNK         0.0600 
    148 H148        2.7751  -23.9972  -43.5202 H         1 UNK         0.0600 
    149 H149        0.8129  -23.0809  -42.3175 H         1 UNK         0.3000 
    150 H150       -2.1643  -21.3579  -42.7296 H         1 UNK         0.0600 
    151 H151       -1.6026  -22.8391  -40.1071 H         1 UNK         0.0600 
    152 H152       -3.1082  -22.9153  -41.0147 H         1 UNK         0.0600 
    153 H153       -2.6015  -21.3967  -40.2951 H         1 UNK         0.0600 
    154 H154       -0.2372  -20.8576  -40.7768 H         1 UNK         0.3000 
    155 H155        1.0871  -18.7681  -41.5046 H         1 UNK         0.0600 
    156 H156        3.2666  -19.7374  -40.6496 H         1 UNK         0.0600 
    157 H157        2.9231  -21.2397  -41.5020 H         1 UNK         0.0600 
    158 H158        1.8912  -20.7136  -40.1756 H         1 UNK         0.0600 
    159 H159        2.7865  -19.7806  -43.7323 H         1 UNK         0.3000 
    160 H160        4.4523  -18.0698  -44.5103 H         1 UNK         0.0600 
    161 H161        3.3910  -17.8317  -46.7950 H         1 UNK         0.0600 
    162 H162        1.8391  -17.5089  -46.0237 H         1 UNK         0.0600 
    163 H163        2.5990  -19.0900  -45.8650 H         1 UNK         0.0600 
    164 H164        3.0923  -15.5032  -44.3202 H         1 UNK         0.3000 
    165 H165        5.8235  -13.6861  -45.0586 H         1 UNK         0.0600 
    166 H166        4.8549  -12.4924  -47.0261 H         1 UNK         0.0600 
    167 H167        5.6177  -13.9955  -47.5196 H         1 UNK         0.0600 
    168 H168        3.8636  -13.8991  -47.4092 H         1 UNK         0.0600 
    169 H169        2.9162  -13.2336  -45.2752 H         1 UNK         0.3000 
    170 H170        1.8012  -12.9890  -42.7747 H         1 UNK         0.0600 
    171 H171        3.0945  -12.1876  -40.8379 H         1 UNK         0.0600 
    172 H172        3.6025  -10.7501  -41.7141 H         1 UNK         0.0600 
    173 H173        1.9058  -10.9778  -41.2922 H         1 UNK         0.0600 
    174 H174        1.0718  -11.5180  -44.2699 H         1 UNK         0.3000 
    175 H175        2.2950   -8.5526  -45.7460 H         1 UNK         0.0600 
    176 H176        1.6662  -11.2548  -47.0520 H         1 UNK         0.0600 
    177 H177        1.6279   -9.6808  -47.8437 H         1 UNK         0.0600 
    178 H178        3.1537  -10.3425  -47.2763 H         1 UNK         0.0600 
    179 H179       -0.1682  -10.0620  -45.9476 H         1 UNK         0.3000 
    180 H180       -1.8904   -8.1674  -43.4553 H         1 UNK         0.0600 
    181 H181       -2.0964   -8.3665  -46.5040 H         1 UNK         0.0600 
    182 H182       -1.9160   -6.8871  -45.5741 H         1 UNK         0.0600 
    183 H183       -3.3758   -7.8497  -45.4074 H         1 UNK         0.0600 
    184 H184       -2.6859  -10.1868  -43.3494 H         1 UNK         0.3000 
    185 H185       -3.3056  -12.2043  -43.6274 H         1 UNK         0.0600 
    186 H186       -4.9342  -11.6396  -45.4326 H         1 UNK         0.0600 
    187 H187       -4.0365  -12.6317  -46.5754 H         1 UNK         0.0600 
    188 H188       -4.8340  -13.3772  -45.1903 H         1 UNK         0.0600 
    189 H189       -2.3292  -14.0837  -45.5962 H         1 UNK         0.3000 
    190 H190       -1.6706  -22.1555  -45.4574 H         1 UNK         0.3000 
    191 H191       -3.7394  -22.0589  -47.4499 H         1 UNK         0.0600 
    192 H192       -3.9432  -20.9067  -45.2448 H         1 UNK         0.0600 
    193 H193       -5.2842  -21.9935  -45.5361 H         1 UNK         0.0600 
    194 H194       -4.0102  -22.4588  -44.4211 H         1 UNK         0.0600 
    195 H195       -2.6247  -24.5776  -45.1576 H         1 UNK         0.3000 
    196 H196       -4.4315  -26.6286  -45.8865 H         1 UNK         0.0600 
    197 H197       -2.7787  -28.1244  -44.7877 H         1 UNK         0.0600 
    198 H198       -3.0050  -26.6618  -43.8392 H         1 UNK         0.0600 
    199 H199       -1.5618  -26.8562  -44.8320 H         1 UNK         0.0600 
    200 H200       -1.4255  -25.5649  -47.4126 H         1 UNK         0.3000 
    201 H201       -1.3736  -27.7000  -49.4117 H         1 UNK         0.0600 
    202 H202        0.6148  -26.4967  -50.2239 H         1 UNK         0.0600 
    203 H203        0.7175  -26.6632  -48.4814 H         1 UNK         0.0600 
    204 H204        0.2595  -25.1168  -49.1917 H         1 UNK         0.0600 
    205 H205       -3.5054  -25.2164  -49.0755 H         1 UNK         0.3000 
    206 H206       -4.8990  -24.0698  -50.3482 H         1 UNK         0.0600 
    207 H207       -5.3809  -26.3216  -51.3264 H         1 UNK         0.0600 
    208 H208       -5.6179  -25.0431  -52.5037 H         1 UNK         0.0600 
    209 H209       -4.1778  -26.0437  -52.5847 H         1 UNK         0.0600 
    210 H210       -2.5967  -22.7985  -49.9823 H         1 UNK         0.3000 
    211 H211       -1.3793  -21.0773  -50.5442 H         1 UNK         0.0600 
    212 H212       -3.0388  -20.7896  -53.0974 H         1 UNK         0.0600 
    213 H213       -1.9703  -19.5740  -52.4108 H         1 UNK         0.0600 
    214 H214       -3.4194  -20.0586  -51.5485 H         1 UNK         0.0600 
    215 H215       -0.6342  -23.7449  -51.2103 H         1 UNK         0.3000 
    216 H216        0.8619  -25.0374  -52.2126 H         1 UNK         0.0600 
    217 H217        2.9154  -24.1298  -53.2055 H         1 UNK         0.0600 
    218 H218        2.5421  -23.2433  -51.7352 H         1 UNK         0.0600 
    219 H219        2.2210  -22.5200  -53.3105 H         1 UNK         0.0600 
    220 H220       -1.5004  -24.9557  -53.2613 H         1 UNK         0.3000 
    221 H221       -2.8788  -25.3477  -54.9257 H         1 UNK         0.0600 
    222 H222       -0.3926  -26.1951  -56.5068 H         1 UNK         0.0600 
    223 H223       -1.3215  -27.2188  -55.4131 H         1 UNK         0.0600 
    224 H224       -2.0557  -26.6169  -56.8909 H         1 UNK         0.0600 
    225 H225       -2.9971  -22.8650  -54.7148 H         1 UNK         0.3000 
    226 H226       -2.9226  -21.7255  -57.4490 H         1 UNK         0.0600 
    227 H227       -0.8372  -20.9074  -56.2937 H         1 UNK         0.0600 
    228 H228       -1.9664  -19.6021  -56.6187 H         1 UNK         0.0600 
    229 H229       -1.8216  -20.2504  -54.9928 H         1 UNK         0.0600 
    230 H230       -4.2988  -19.8731  -57.6736 H         1 UNK         0.3000 
    231 H231       -6.8903  -20.4660  -56.8067 H         1 UNK         0.0600 
    232 H232       -5.7995  -17.9709  -58.2131 H         1 UNK         0.0600 
    233 H233       -7.4909  -18.4518  -58.1621 H         1 UNK         0.0600 
    234 H234       -6.3255  -19.4596  -59.0009 H         1 UNK         0.0600 
    235 H235       -4.6225  -18.6349  -55.0360 H         1 UNK         0.3000 
    236 H236       -6.2910  -16.6601  -53.8425 H         1 UNK         0.0600 
    237 H237       -3.8358  -16.4979  -53.7889 H         1 UNK         0.0600 
    238 H238       -4.4564  -16.5198  -52.1459 H         1 UNK         0.0600 
    239 H239       -3.7191  -17.9647  -52.8216 H         1 UNK         0.0600 
    240 H240       -5.7234  -20.0813  -52.9976 H         1 UNK         0.3000 
    241 H241       -8.2101  -20.1941  -51.7010 H         1 UNK         0.0600 
    242 H242       -6.6474  -23.3993  -53.2128 H         1 UNK         0.3800 
    243 H243       -6.0279  -21.8395  -53.6217 H         1 UNK         0.3800 
    244 H244       -7.2846  -19.2347  -49.7196 H         1 UNK         0.0800 
    245 H245       -7.6165  -20.8923  -49.3988 H         1 UNK         0.0800 
    246 H246       -4.5375  -18.2912  -50.0273 H         1 UNK         0.0800 
    247 H247       -5.5321  -18.2287  -48.5933 H         1 UNK         0.0800 
@<TRIPOS>BOND
     1    1    2 1    
     2    1  127 1    
     3    1  128 1    
     4    1  129 1    
     5    2    3 2    
     6    2    4 am   BACKBONE|DICT|INTERRES
     7    4    5 1    
     8    4  130 1    
     9    5    6 1    
    10    5   65 1    
    11    5  131 1    
    12    6    7 1    
    13    6  132 1    
    14    6  133 1    
    15    7    8 1    
    16    8    9 1    
    17    8  134 1    
    18    8  135 1    
    19    9   10 ar   
    20    9   14 ar   
    21   10   11 ar   
    22   10  136 1    
    23   11   12 ar   
    24   11  126 1    
    25   12   13 ar   
    26   12  137 1    
    27   13   14 ar   
    28   13   15 1    
    29   14  138 1    
    30   15   16 1    
    31   15  139 1    
    32   15  140 1    
    33   16   17 1    
    34   17   18 1    
    35   17  141 1    
    36   17  142 1    
    37   18   19 1    
    38   18   67 1    
    39   18  143 1    
    40   19   20 am   BACKBONE|DICT|INTERRES
    41   19  144 1    
    42   20   21 2    
    43   20   22 1    
    44   22   23 1    
    45   22   24 1    
    46   22  145 1    
    47   23  146 1    
    48   23  147 1    
    49   23  148 1    
    50   24   25 am   BACKBONE|DICT|INTERRES
    51   24  149 1    
    52   25   26 2    
    53   25   27 1    
    54   27   28 1    
    55   27   29 1    
    56   27  150 1    
    57   28  151 1    
    58   28  152 1    
    59   28  153 1    
    60   29   30 am   BACKBONE|DICT|INTERRES
    61   29  154 1    
    62   30   31 2    
    63   30   32 1    
    64   32   33 1    
    65   32   34 1    
    66   32  155 1    
    67   33  156 1    
    68   33  157 1    
    69   33  158 1    
    70   34   35 am   BACKBONE|DICT|INTERRES
    71   34  159 1    
    72   35   36 2    
    73   35   37 1    
    74   37   38 1    
    75   37   39 1    
    76   37  160 1    
    77   38  161 1    
    78   38  162 1    
    79   38  163 1    
    80   39   40 am   BACKBONE|DICT|INTERRES
    81   39  164 1    
    82   40   41 2    
    83   40   42 1    
    84   42   43 1    
    85   42   44 1    
    86   42  165 1    
    87   43  166 1    
    88   43  167 1    
    89   43  168 1    
    90   44   45 am   BACKBONE|DICT|INTERRES
    91   44  169 1    
    92   45   46 2    
    93   45   47 1    
    94   47   48 1    
    95   47   49 1    
    96   47  170 1    
    97   48  171 1    
    98   48  172 1    
    99   48  173 1    
   100   49   50 am   BACKBONE|DICT|INTERRES
   101   49  174 1    
   102   50   51 2    
   103   50   52 1    
   104   52   53 1    
   105   52   54 1    
   106   52  175 1    
   107   53  176 1    
   108   53  177 1    
   109   53  178 1    
   110   54   55 am   BACKBONE|DICT|INTERRES
   111   54  179 1    
   112   55   56 2    
   113   55   57 1    
   114   57   58 1    
   115   57   59 1    
   116   57  180 1    
   117   58  181 1    
   118   58  182 1    
   119   58  183 1    
   120   59   60 am   BACKBONE|DICT|INTERRES
   121   59  184 1    
   122   60   61 2    
   123   60   62 1    
   124   62   63 1    
   125   62   64 1    
   126   62  185 1    
   127   63  186 1    
   128   63  187 1    
   129   63  188 1    
   130   64   65 am   BACKBONE|DICT|INTERRES
   131   64  189 1    
   132   65   66 2    
   133   67   68 2    
   134   67   69 am   BACKBONE|DICT|INTERRES
   135   69   70 1    
   136   69  190 1    
   137   70   71 1    
   138   70   72 1    
   139   70  191 1    
   140   71  192 1    
   141   71  193 1    
   142   71  194 1    
   143   72   73 2    
   144   72   74 am   BACKBONE|DICT|INTERRES
   145   74   75 1    
   146   74  195 1    
   147   75   76 1    
   148   75   77 1    
   149   75  196 1    
   150   76  197 1    
   151   76  198 1    
   152   76  199 1    
   153   77   78 2    
   154   77   79 am   BACKBONE|DICT|INTERRES
   155   79   80 1    
   156   79  200 1    
   157   80   81 1    
   158   80   82 1    
   159   80  201 1    
   160   81  202 1    
   161   81  203 1    
   162   81  204 1    
   163   82   83 2    
   164   82   84 am   BACKBONE|DICT|INTERRES
   165   84   85 1    
   166   84  205 1    
   167   85   86 1    
   168   85   87 1    
   169   85  206 1    
   170   86  207 1    
   171   86  208 1    
   172   86  209 1    
   173   87   88 2    
   174   87   89 am   BACKBONE|DICT|INTERRES
   175   89   90 1    
   176   89  210 1    
   177   90   91 1    
   178   90   92 1    
   179   90  211 1    
   180   91  212 1    
   181   91  213 1    
   182   91  214 1    
   183   92   93 2    
   184   92   94 am   BACKBONE|DICT|INTERRES
   185   94   95 1    
   186   94  215 1    
   187   95   96 1    
   188   95   97 1    
   189   95  216 1    
   190   96  217 1    
   191   96  218 1    
   192   96  219 1    
   193   97   98 2    
   194   97   99 am   BACKBONE|DICT|INTERRES
   195   99  100 1    
   196   99  220 1    
   197  100  101 1    
   198  100  102 1    
   199  100  221 1    
   200  101  222 1    
   201  101  223 1    
   202  101  224 1    
   203  102  103 2    
   204  102  104 am   BACKBONE|DICT|INTERRES
   205  104  105 1    
   206  104  225 1    
   207  105  106 1    
   208  105  107 1    
   209  105  226 1    
   210  106  227 1    
   211  106  228 1    
   212  106  229 1    
   213  107  108 2    
   214  107  109 am   BACKBONE|DICT|INTERRES
   215  109  110 1    
   216  109  230 1    
   217  110  111 1    
   218  110  112 1    
   219  110  231 1    
   220  111  232 1    
   221  111  233 1    
   222  111  234 1    
   223  112  113 2    
   224  112  114 am   BACKBONE|DICT|INTERRES
   225  114  115 1    
   226  114  235 1    
   227  115  116 1    
   228  115  117 1    
   229  115  236 1    
   230  116  237 1    
   231  116  238 1    
   232  116  239 1    
   233  117  118 2    
   234  117  119 am   BACKBONE|DICT|INTERRES
   235  119  120 1    
   236  119  240 1    
   237  120  121 1    
   238  120  124 1    
   239  120  241 1    
   240  121  122 am   BACKBONE|DICT|INTERRES
   241  121  123 2    
   242  122  242 1    
   243  122  243 1    
   244  124  125 1    
   245  124  244 1    
   246  124  245 1    
   247  125  126 1    
   248  126  246 1    
   249  126  247 1    
@<TRIPOS>SUBSTRUCTURE
     1 UNK         1 GROUP             0       ****    0 ROOT    
