@<TRIPOS>MOLECULE
3R540
247   249    1
SMALL
USER_CHARGES


@<TRIPOS>ATOM
      1 CA          4.1333  -13.8711  -45.4923 C.3       0 UNK        -0.1800 
      2 C           2.6647  -13.8339  -45.8861 C.2       0 UNK         0.5000 
      3 O           1.8125  -13.5665  -45.0388 O.2       0 UNK        -0.5000 
      4 N           2.3665  -14.0882  -47.1678 N.am      1 UNK        -0.5000 
      5 CA          1.0130  -14.0890  -47.7369 C.3       1 UNK         0.1400 
      6 C6          0.9980  -14.6932  -49.1631 C.3       23 UNK        -0.0398 
      7 S7         -0.6740  -15.1686  -49.7196 S.3       23 UNK        -0.2404 
      8 C8         -0.7717  -16.8932  -49.1466 C.3       23 UNK        -0.0205 
      9 C9          0.0454  -17.8462  -50.0060 C.ar      23 UNK        -0.0193 
     10 C10        -0.2923  -18.0529  -51.3470 C.ar      23 UNK        -0.1150 
     11 C11         0.4279  -18.9612  -52.1341 C.ar      23 UNK        -0.0193 
     12 C12         1.4641  -19.6905  -51.5443 C.ar      23 UNK        -0.1150 
     13 C13         1.8055  -19.5084  -50.2016 C.ar      23 UNK        -0.0193 
     14 C14         1.1099  -18.5576  -49.4470 C.ar      23 UNK        -0.1150 
     15 C15         2.9182  -20.3632  -49.5943 C.3       23 UNK        -0.0205 
     16 S16         2.6200  -20.9118  -47.8754 S.3       23 UNK        -0.2404 
     17 C17         0.8809  -21.4619  -47.9201 C.3       23 UNK        -0.0398 
     18 CA          0.5930  -22.7168  -47.0640 C.3       11 UNK         0.1400 
     19 N           0.8865  -22.5380  -45.6339 N.am      11 UNK        -0.5000 
     20 C           0.7856  -23.5132  -44.7164 C.2       10 UNK         0.5000 
     21 O           0.4820  -24.6739  -44.9934 O.2       10 UNK        -0.5000 
     22 CA          0.9853  -23.1270  -43.2394 C.3       10 UNK         0.1400 
     23 CB          2.4755  -23.0121  -42.8863 C.3       10 UNK        -0.1800 
     24 N           0.2844  -21.8918  -42.8875 N.am      10 UNK        -0.5000 
     25 C          -1.0502  -21.7593  -42.8640 C.2       9 UNK         0.5000 
     26 O          -1.8307  -22.6876  -43.0676 O.2       9 UNK        -0.5000 
     27 CA         -1.6137  -20.3473  -42.6143 C.3       9 UNK         0.1400 
     28 CB         -1.7349  -20.0566  -41.1112 C.3       9 UNK        -0.1800 
     29 N          -0.8182  -19.3018  -43.2565 N.am      9 UNK        -0.5000 
     30 C          -0.6600  -19.1742  -44.5818 C.2       8 UNK         0.5000 
     31 O          -1.2117  -19.8921  -45.4160 O.2       8 UNK        -0.5000 
     32 CA          0.3337  -18.0965  -45.0433 C.3       8 UNK         0.1400 
     33 CB         -0.3321  -16.7112  -45.0466 C.3       8 UNK        -0.1800 
     34 N           1.5301  -18.0686  -44.1990 N.am      8 UNK        -0.5000 
     35 C           2.4297  -19.0619  -44.1342 C.2       7 UNK         0.5000 
     36 O           2.3409  -20.0984  -44.7871 O.2       7 UNK        -0.5000 
     37 CA          3.5891  -18.9012  -43.1331 C.3       7 UNK         0.1400 
     38 CB          4.7068  -18.0380  -43.7366 C.3       7 UNK        -0.1800 
     39 N           3.1589  -18.3179  -41.8633 N.am      7 UNK        -0.5000 
     40 C           2.2830  -18.8831  -41.0195 C.2       6 UNK         0.5000 
     41 O           1.8225  -20.0134  -41.1743 O.2       6 UNK        -0.5000 
     42 CA          1.7947  -18.0160  -39.8396 C.3       6 UNK         0.1400 
     43 CB          2.6258  -18.3036  -38.5808 C.3       6 UNK        -0.1800 
     44 N           1.8230  -16.5747  -40.1201 N.am      6 UNK        -0.5000 
     45 C           1.1495  -15.9774  -41.1134 C.2       5 UNK         0.5000 
     46 O           0.3907  -16.5860  -41.8710 O.2       5 UNK        -0.5000 
     47 CA          1.4481  -14.4816  -41.3339 C.3       5 UNK         0.1400 
     48 CB          2.9179  -14.2771  -41.7415 C.3       5 UNK        -0.1800 
     49 N           0.6110  -13.8861  -42.3728 N.am      5 UNK        -0.5000 
     50 C          -0.6864  -13.5781  -42.2506 C.2       4 UNK         0.5000 
     51 O          -1.3454  -13.7698  -41.2263 O.2       4 UNK        -0.5000 
     52 CA         -1.3220  -12.8962  -43.4822 C.3       4 UNK         0.1400 
     53 CB         -2.7369  -12.3407  -43.2194 C.3       4 UNK        -0.1800 
     54 N          -0.4408  -11.8636  -44.0396 N.am      4 UNK        -0.5000 
     55 C           0.0214  -10.7644  -43.4218 C.2       3 UNK         0.5000 
     56 O          -0.3652  -10.3781  -42.3182 O.2       3 UNK        -0.5000 
     57 CA          1.1369   -9.9777  -44.1369 C.3       3 UNK         0.1400 
     58 CB          2.4957  -10.2748  -43.4819 C.3       3 UNK        -0.1800 
     59 N           1.2324  -10.2925  -45.5622 N.am      3 UNK        -0.5000 
     60 C           0.4854   -9.7300  -46.5210 C.2       2 UNK         0.5000 
     61 O          -0.3466   -8.8465  -46.3122 O.2       2 UNK        -0.5000 
     62 CA          0.7013  -10.2494  -47.9561 C.3       2 UNK         0.1400 
     63 CB          1.7318   -9.3805  -48.6932 C.3       2 UNK        -0.1800 
     64 N           1.1346  -11.6490  -48.0032 N.am      2 UNK        -0.5000 
     65 C           0.3568  -12.6926  -47.6803 C.2       1 UNK         0.5000 
     66 O          -0.8085  -12.5812  -47.2984 O.2       1 UNK        -0.5000 
     67 C          -0.8649  -23.1656  -47.2918 C.2       11 UNK         0.5000 
     68 O          -1.0934  -24.1025  -48.0539 O.2       11 UNK        -0.5000 
     69 N          -1.8082  -22.5175  -46.5930 N.am      12 UNK        -0.5000 
     70 CA         -3.2418  -22.8166  -46.6265 C.3       12 UNK         0.1400 
     71 CB         -4.0027  -21.6515  -45.9753 C.3       12 UNK        -0.1800 
     72 C          -3.6298  -24.1579  -45.9654 C.2       12 UNK         0.5000 
     73 O          -4.7550  -24.6190  -46.1631 O.2       12 UNK        -0.5000 
     74 N          -2.7191  -24.7570  -45.1874 N.am      13 UNK        -0.5000 
     75 CA         -2.8618  -26.1033  -44.6378 C.3       13 UNK         0.1400 
     76 CB         -2.1876  -26.1716  -43.2585 C.3       13 UNK        -0.1800 
     77 C          -2.2647  -27.1503  -45.5939 C.2       13 UNK         0.5000 
     78 O          -2.8574  -28.2150  -45.7733 O.2       13 UNK        -0.5000 
     79 N          -1.1042  -26.8348  -46.1863 N.am      14 UNK        -0.5000 
     80 CA         -0.3709  -27.7001  -47.1109 C.3       14 UNK         0.1400 
     81 CB          1.0490  -27.1421  -47.2943 C.3       14 UNK        -0.1800 
     82 C          -1.0596  -27.8720  -48.4783 C.2       14 UNK         0.5000 
     83 O          -0.9835  -28.9544  -49.0619 O.2       14 UNK        -0.5000 
     84 N          -1.7076  -26.8108  -48.9667 N.am      15 UNK        -0.5000 
     85 CA         -2.4057  -26.7463  -50.2472 C.3       15 UNK         0.1400 
     86 CB         -1.4015  -26.3481  -51.3466 C.3       15 UNK        -0.1800 
     87 C          -3.5645  -25.7412  -50.1424 C.2       15 UNK         0.5000 
     88 O          -3.7957  -25.1793  -49.0723 O.2       15 UNK        -0.5000 
     89 N          -4.2782  -25.5137  -51.2532 N.am      16 UNK        -0.5000 
     90 CA         -5.3140  -24.4791  -51.3477 C.3       16 UNK         0.1400 
     91 CB         -6.1199  -24.6780  -52.6388 C.3       16 UNK        -0.1800 
     92 C          -4.7289  -23.0543  -51.2874 C.2       16 UNK         0.5000 
     93 O          -5.3468  -22.1665  -50.6985 O.2       16 UNK        -0.5000 
     94 N          -3.5387  -22.8737  -51.8821 N.am      17 UNK        -0.5000 
     95 CA         -2.7536  -21.6377  -51.9167 C.3       17 UNK         0.1400 
     96 CB         -2.1426  -21.3714  -50.5213 C.3       17 UNK        -0.1800 
     97 C          -3.5730  -20.4635  -52.4945 C.2       17 UNK         0.5000 
     98 O          -4.0426  -20.5573  -53.6318 O.2       17 UNK        -0.5000 
     99 N          -3.7737  -19.4044  -51.7004 N.am      18 UNK        -0.5000 
    100 CA        -4.5577  -18.2213  -52.0553 C.3       18 UNK         0.1400 
    101 CB        -4.3967  -17.1590  -50.9586 C.3       18 UNK        -0.1800 
    102 C         -6.0501  -18.5007  -52.3274 C.2       18 UNK         0.5000 
    103 O         -6.6685  -17.7301  -53.0616 O.2       18 UNK        -0.5000 
    104 N         -6.6026  -19.6039  -51.7957 N.am      19 UNK        -0.5000 
    105 CA        -7.9809  -20.0345  -52.0659 C.3       19 UNK         0.1400 
    106 CB        -8.4035  -21.1111  -51.0549 C.3       19 UNK        -0.1800 
    107 C         -8.1818  -20.5374  -53.5105 C.2       19 UNK         0.5000 
    108 O         -9.3051  -20.4970  -54.0127 O.2       19 UNK        -0.5000 
    109 N         -7.0899  -20.9644  -54.1593 N.am      20 UNK        -0.5000 
    110 CA        -7.0273  -21.3120  -55.5797 C.3       20 UNK         0.1400 
    111 CB        -6.2753  -22.6462  -55.7235 C.3       20 UNK        -0.1800 
    112 C         -6.3509  -20.1951  -56.4021 C.2       20 UNK         0.5000 
    113 O         -5.9535  -20.4400  -57.5428 O.2       20 UNK        -0.5000 
    114 N         -6.1833  -19.0037  -55.8023 N.am      21 UNK        -0.5000 
    115 CA        -5.4932  -17.8216  -56.3353 C.3       21 UNK         0.1400 
    116 CB        -6.3131  -17.1946  -57.4816 C.3       21 UNK        -0.1800 
    117 C         -4.0249  -18.0950  -56.7318 C.2       21 UNK         0.5000 
    118 O         -3.4995  -17.4394  -57.6332 O.2       21 UNK        -0.5000 
    119 N         -3.4038  -19.0791  -56.0663 N.am      22 UNK        -0.5000 
    120 CA        -2.0770  -19.6386  -56.3660 C.3       22 UNK         0.1400 
    121 C         -1.9812  -20.3801  -57.7365 C.2       22 UNK         0.5000 
    122 N         -3.0862  -20.7569  -58.3714 N.am      22 UNK        -0.7600 
    123 O         -0.8868  -20.6529  -58.2225 O.2       22 UNK        -0.5000 
    124 C124       -0.9179  -18.6279  -56.1386 C.3       23 UNK        -0.0398 
    125 S125       -0.8945  -17.9526  -54.4421 S.3       23 UNK        -0.2404 
    126 C126        0.1132  -19.2241  -53.6067 C.3       23 UNK        -0.0205 
    127 H127        4.3224  -14.7153  -44.8305 H         1 UNK         0.0600 
    128 H128        4.4031  -12.9561  -44.9649 H         1 UNK         0.0600 
    129 H129        4.7836  -13.9668  -46.3620 H         1 UNK         0.0600 
    130 H130        3.1160  -14.2994  -47.8112 H         1 UNK         0.3000 
    131 H131        0.4105  -14.7397  -47.1035 H         1 UNK         0.0600 
    132 H132        1.6339  -15.5785  -49.2022 H         1 UNK         0.0800 
    133 H133        1.4216  -13.9950  -49.8870 H         1 UNK         0.0800 
    134 H134       -1.8133  -17.2142  -49.1582 H         1 UNK         0.0800 
    135 H135       -0.4547  -16.9430  -48.1052 H         1 UNK         0.0800 
    136 H136       -1.1212  -17.5012  -51.7651 H         1 UNK         0.1150 
    137 H137        2.0066  -20.4140  -52.1372 H         1 UNK         0.1150 
    138 H138        1.3737  -18.4000  -48.4113 H         1 UNK         0.1150 
    139 H139        3.0803  -21.2542  -50.2030 H         1 UNK         0.0800 
    140 H140        3.8496  -19.7968  -49.6241 H         1 UNK         0.0800 
    141 H141        0.6148  -21.6612  -48.9597 H         1 UNK         0.0800 
    142 H142        0.2550  -20.6280  -47.5989 H         1 UNK         0.0800 
    143 H143        1.2381  -23.5210  -47.4242 H         1 UNK         0.0600 
    144 H144        1.2000  -21.6159  -45.3434 H         1 UNK         0.3000 
    145 H145        0.5630  -23.9291  -42.6303 H         1 UNK         0.0600 
    146 H146        2.6134  -22.7705  -41.8322 H         1 UNK         0.0600 
    147 H147        2.9914  -23.9543  -43.0749 H         1 UNK         0.0600 
    148 H148        2.9772  -22.2441  -43.4732 H         1 UNK         0.0600 
    149 H149        0.8586  -21.0926  -42.6436 H         1 UNK         0.3000 
    150 H150       -2.6160  -20.3101  -43.0458 H         1 UNK         0.0600 
    151 H151       -2.3869  -20.7849  -40.6274 H         1 UNK         0.0600 
    152 H152       -2.1606  -19.0690  -40.9323 H         1 UNK         0.0600 
    153 H153       -0.7688  -20.1015  -40.6096 H         1 UNK         0.0600 
    154 H154       -0.3296  -18.6536  -42.6517 H         1 UNK         0.3000 
    155 H155        0.6484  -18.3324  -46.0617 H         1 UNK         0.0600 
    156 H156       -0.8482  -16.5010  -44.1100 H         1 UNK         0.0600 
    157 H157       -1.0749  -16.6364  -45.8405 H         1 UNK         0.0600 
    158 H158        0.4019  -15.9222  -45.1971 H         1 UNK         0.0600 
    159 H159        1.6030  -17.2941  -43.5533 H         1 UNK         0.3000 
    160 H160        3.9943  -19.8943  -42.9283 H         1 UNK         0.0600 
    161 H161        4.3681  -17.0207  -43.9347 H         1 UNK         0.0600 
    162 H162        5.0561  -18.4575  -44.6811 H         1 UNK         0.0600 
    163 H163        5.5667  -17.9822  -43.0689 H         1 UNK         0.0600 
    164 H164        3.4978  -17.3925  -41.6492 H         1 UNK         0.3000 
    165 H165        0.7583  -18.2938  -39.6375 H         1 UNK         0.0600 
    166 H166        2.2363  -17.7626  -37.7182 H         1 UNK         0.0600 
    167 H167        2.6038  -19.3658  -38.3330 H         1 UNK         0.0600 
    168 H168        3.6703  -18.0190  -38.7138 H         1 UNK         0.0600 
    169 H169        2.4304  -16.0177  -39.5364 H         1 UNK         0.3000 
    170 H170        1.2635  -13.9552  -40.3953 H         1 UNK         0.0600 
    171 H171        3.6024  -14.6133  -40.9622 H         1 UNK         0.0600 
    172 H172        3.1598  -14.8256  -42.6524 H         1 UNK         0.0600 
    173 H173        3.1337  -13.2237  -41.9211 H         1 UNK         0.0600 
    174 H174        1.0571  -13.7216  -43.2712 H         1 UNK         0.3000 
    175 H175       -1.4079  -13.6686  -44.2480 H         1 UNK         0.0600 
    176 H176       -3.4190  -13.1393  -42.9258 H         1 UNK         0.0600 
    177 H177       -2.7427  -11.5978  -42.4216 H         1 UNK         0.0600 
    178 H178       -3.1485  -11.8751  -44.1149 H         1 UNK         0.0600 
    179 H179       -0.0251  -12.0973  -44.9314 H         1 UNK         0.3000 
    180 H180        0.9242   -8.9135  -44.0150 H         1 UNK         0.0600 
    181 H181        2.7631  -11.3283  -43.5701 H         1 UNK         0.0600 
    182 H182        2.4806  -10.0290  -42.4192 H         1 UNK         0.0600 
    183 H183        3.2916   -9.6867  -43.9391 H         1 UNK         0.0600 
    184 H184        1.8796  -11.0221  -45.8214 H         1 UNK         0.3000 
    185 H185       -0.2521  -10.1691  -48.4829 H         1 UNK         0.0600 
    186 H186        1.4266   -8.3333  -48.6990 H         1 UNK         0.0600 
    187 H187        2.7143   -9.4334  -48.2225 H         1 UNK         0.0600 
    188 H188        1.8391   -9.6916  -49.7325 H         1 UNK         0.0600 
    189 H189        2.0879  -11.8213  -48.2878 H         1 UNK         0.3000 
    190 H190       -1.5304  -21.7305  -46.0128 H         1 UNK         0.3000 
    191 H191       -3.5451  -22.8733  -47.6739 H         1 UNK         0.0600 
    192 H192       -3.7885  -20.7091  -46.4799 H         1 UNK         0.0600 
    193 H193       -5.0806  -21.8094  -46.0265 H         1 UNK         0.0600 
    194 H194       -3.7356  -21.5384  -44.9244 H         1 UNK         0.0600 
    195 H195       -1.8374  -24.2892  -45.0266 H         1 UNK         0.3000 
    196 H196       -3.9194  -26.3375  -44.4998 H         1 UNK         0.0600 
    197 H197       -2.3117  -27.1596  -42.8138 H         1 UNK         0.0600 
    198 H198       -2.6259  -25.4475  -42.5714 H         1 UNK         0.0600 
    199 H199       -1.1180  -25.9706  -43.3153 H         1 UNK         0.0600 
    200 H200       -0.6559  -25.9569  -45.9435 H         1 UNK         0.3000 
    201 H201       -0.2902  -28.6890  -46.6547 H         1 UNK         0.0600 
    202 H202        1.5781  -27.0893  -46.3425 H         1 UNK         0.0600 
    203 H203        1.0327  -26.1393  -47.7233 H         1 UNK         0.0600 
    204 H204        1.6367  -27.7759  -47.9595 H         1 UNK         0.0600 
    205 H205       -1.7345  -25.9466  -48.4294 H         1 UNK         0.3000 
    206 H206       -2.8371  -27.7220  -50.4794 H         1 UNK         0.0600 
    207 H207       -0.5671  -27.0482  -51.3914 H         1 UNK         0.0600 
    208 H208       -1.8659  -26.3440  -52.3329 H         1 UNK         0.0600 
    209 H209       -0.9911  -25.3530  -51.1683 H         1 UNK         0.0600 
    210 H210       -4.0646  -26.0266  -52.0962 H         1 UNK         0.3000 
    211 H211       -5.9953  -24.5925  -50.5015 H         1 UNK         0.0600 
    212 H212       -5.4820  -24.6249  -53.5215 H         1 UNK         0.0600 
    213 H213       -6.8906  -23.9127  -52.7404 H         1 UNK         0.0600 
    214 H214       -6.6215  -25.6458  -52.6451 H         1 UNK         0.0600 
    215 H215       -3.1318  -23.6624  -52.3621 H         1 UNK         0.3000 
    216 H216       -1.9320  -21.8079  -52.6131 H         1 UNK         0.0600 
    217 H217       -1.4879  -20.5010  -50.5287 H         1 UNK         0.0600 
    218 H218       -1.5370  -22.2197  -50.2031 H         1 UNK         0.0600 
    219 H219       -2.9041  -21.2130  -49.7568 H         1 UNK         0.0600 
    220 H220       -3.3839  -19.4243  -50.7699 H         1 UNK         0.3000 
    221 H221       -4.1376  -17.8170  -52.9790 H         1 UNK         0.0600 
    222 H222       -4.6970  -17.5381  -49.9811 H         1 UNK         0.0600 
    223 H223       -3.3635  -16.8210  -50.8909 H         1 UNK         0.0600 
    224 H224       -5.0051  -16.2788  -51.1711 H         1 UNK         0.0600 
    225 H225       -6.0333  -20.2307  -51.2363 H         1 UNK         0.3000 
    226 H226       -8.6342  -19.1708  -51.9249 H         1 UNK         0.0600 
    227 H227       -8.2131  -20.7926  -50.0300 H         1 UNK         0.0600 
    228 H228       -9.4707  -21.3200  -51.1381 H         1 UNK         0.0600 
    229 H229       -7.8788  -22.0517  -51.2200 H         1 UNK         0.0600 
    230 H230       -6.1985  -20.9358  -53.6781 H         1 UNK         0.3000 
    231 H231       -8.0308  -21.4431  -55.9887 H         1 UNK         0.0600 
    232 H232       -6.8067  -23.4471  -55.2112 H         1 UNK         0.0600 
    233 H233       -5.2673  -22.5873  -55.3106 H         1 UNK         0.0600 
    234 H234       -6.1872  -22.9441  -56.7690 H         1 UNK         0.0600 
    235 H235       -6.5454  -18.8925  -54.8634 H         1 UNK         0.3000 
    236 H236       -5.4542  -17.0963  -55.5217 H         1 UNK         0.0600 
    237 H237       -5.8870  -16.2404  -57.7932 H         1 UNK         0.0600 
    238 H238       -6.3425  -17.8420  -58.3586 H         1 UNK         0.0600 
    239 H239       -7.3403  -17.0027  -57.1715 H         1 UNK         0.0600 
    240 H240       -3.9022  -19.5552  -55.3214 H         1 UNK         0.3000 
    241 H241       -1.9447  -20.4368  -55.6355 H         1 UNK         0.0600 
    242 H242       -3.0060  -21.2445  -59.2494 H         1 UNK         0.3800 
    243 H243       -4.0077  -20.5547  -57.9972 H         1 UNK         0.3800 
    244 H244        0.0484  -19.0937  -56.3373 H         1 UNK         0.0800 
    245 H245       -0.9932  -17.7958  -56.8393 H         1 UNK         0.0800 
    246 H246       -0.3954  -20.1849  -53.6849 H         1 UNK         0.0800 
    247 H247        1.0531  -19.3234  -54.1521 H         1 UNK         0.0800 
@<TRIPOS>BOND
     1    1    2 1    
     2    1  127 1    
     3    1  128 1    
     4    1  129 1    
     5    2    3 2    
     6    2    4 am   BACKBONE|DICT|INTERRES
     7    4    5 1    
     8    4  130 1    
     9    5    6 1    
    10    5   65 1    
    11    5  131 1    
    12    6    7 1    
    13    6  132 1    
    14    6  133 1    
    15    7    8 1    
    16    8    9 1    
    17    8  134 1    
    18    8  135 1    
    19    9   10 ar   
    20    9   14 ar   
    21   10   11 ar   
    22   10  136 1    
    23   11   12 ar   
    24   11  126 1    
    25   12   13 ar   
    26   12  137 1    
    27   13   14 ar   
    28   13   15 1    
    29   14  138 1    
    30   15   16 1    
    31   15  139 1    
    32   15  140 1    
    33   16   17 1    
    34   17   18 1    
    35   17  141 1    
    36   17  142 1    
    37   18   19 1    
    38   18   67 1    
    39   18  143 1    
    40   19   20 am   BACKBONE|DICT|INTERRES
    41   19  144 1    
    42   20   21 2    
    43   20   22 1    
    44   22   23 1    
    45   22   24 1    
    46   22  145 1    
    47   23  146 1    
    48   23  147 1    
    49   23  148 1    
    50   24   25 am   BACKBONE|DICT|INTERRES
    51   24  149 1    
    52   25   26 2    
    53   25   27 1    
    54   27   28 1    
    55   27   29 1    
    56   27  150 1    
    57   28  151 1    
    58   28  152 1    
    59   28  153 1    
    60   29   30 am   BACKBONE|DICT|INTERRES
    61   29  154 1    
    62   30   31 2    
    63   30   32 1    
    64   32   33 1    
    65   32   34 1    
    66   32  155 1    
    67   33  156 1    
    68   33  157 1    
    69   33  158 1    
    70   34   35 am   BACKBONE|DICT|INTERRES
    71   34  159 1    
    72   35   36 2    
    73   35   37 1    
    74   37   38 1    
    75   37   39 1    
    76   37  160 1    
    77   38  161 1    
    78   38  162 1    
    79   38  163 1    
    80   39   40 am   BACKBONE|DICT|INTERRES
    81   39  164 1    
    82   40   41 2    
    83   40   42 1    
    84   42   43 1    
    85   42   44 1    
    86   42  165 1    
    87   43  166 1    
    88   43  167 1    
    89   43  168 1    
    90   44   45 am   BACKBONE|DICT|INTERRES
    91   44  169 1    
    92   45   46 2    
    93   45   47 1    
    94   47   48 1    
    95   47   49 1    
    96   47  170 1    
    97   48  171 1    
    98   48  172 1    
    99   48  173 1    
   100   49   50 am   BACKBONE|DICT|INTERRES
   101   49  174 1    
   102   50   51 2    
   103   50   52 1    
   104   52   53 1    
   105   52   54 1    
   106   52  175 1    
   107   53  176 1    
   108   53  177 1    
   109   53  178 1    
   110   54   55 am   BACKBONE|DICT|INTERRES
   111   54  179 1    
   112   55   56 2    
   113   55   57 1    
   114   57   58 1    
   115   57   59 1    
   116   57  180 1    
   117   58  181 1    
   118   58  182 1    
   119   58  183 1    
   120   59   60 am   BACKBONE|DICT|INTERRES
   121   59  184 1    
   122   60   61 2    
   123   60   62 1    
   124   62   63 1    
   125   62   64 1    
   126   62  185 1    
   127   63  186 1    
   128   63  187 1    
   129   63  188 1    
   130   64   65 am   BACKBONE|DICT|INTERRES
   131   64  189 1    
   132   65   66 2    
   133   67   68 2    
   134   67   69 am   BACKBONE|DICT|INTERRES
   135   69   70 1    
   136   69  190 1    
   137   70   71 1    
   138   70   72 1    
   139   70  191 1    
   140   71  192 1    
   141   71  193 1    
   142   71  194 1    
   143   72   73 2    
   144   72   74 am   BACKBONE|DICT|INTERRES
   145   74   75 1    
   146   74  195 1    
   147   75   76 1    
   148   75   77 1    
   149   75  196 1    
   150   76  197 1    
   151   76  198 1    
   152   76  199 1    
   153   77   78 2    
   154   77   79 am   BACKBONE|DICT|INTERRES
   155   79   80 1    
   156   79  200 1    
   157   80   81 1    
   158   80   82 1    
   159   80  201 1    
   160   81  202 1    
   161   81  203 1    
   162   81  204 1    
   163   82   83 2    
   164   82   84 am   BACKBONE|DICT|INTERRES
   165   84   85 1    
   166   84  205 1    
   167   85   86 1    
   168   85   87 1    
   169   85  206 1    
   170   86  207 1    
   171   86  208 1    
   172   86  209 1    
   173   87   88 2    
   174   87   89 am   BACKBONE|DICT|INTERRES
   175   89   90 1    
   176   89  210 1    
   177   90   91 1    
   178   90   92 1    
   179   90  211 1    
   180   91  212 1    
   181   91  213 1    
   182   91  214 1    
   183   92   93 2    
   184   92   94 am   BACKBONE|DICT|INTERRES
   185   94   95 1    
   186   94  215 1    
   187   95   96 1    
   188   95   97 1    
   189   95  216 1    
   190   96  217 1    
   191   96  218 1    
   192   96  219 1    
   193   97   98 2    
   194   97   99 am   BACKBONE|DICT|INTERRES
   195   99  100 1    
   196   99  220 1    
   197  100  101 1    
   198  100  102 1    
   199  100  221 1    
   200  101  222 1    
   201  101  223 1    
   202  101  224 1    
   203  102  103 2    
   204  102  104 am   BACKBONE|DICT|INTERRES
   205  104  105 1    
   206  104  225 1    
   207  105  106 1    
   208  105  107 1    
   209  105  226 1    
   210  106  227 1    
   211  106  228 1    
   212  106  229 1    
   213  107  108 2    
   214  107  109 am   BACKBONE|DICT|INTERRES
   215  109  110 1    
   216  109  230 1    
   217  110  111 1    
   218  110  112 1    
   219  110  231 1    
   220  111  232 1    
   221  111  233 1    
   222  111  234 1    
   223  112  113 2    
   224  112  114 am   BACKBONE|DICT|INTERRES
   225  114  115 1    
   226  114  235 1    
   227  115  116 1    
   228  115  117 1    
   229  115  236 1    
   230  116  237 1    
   231  116  238 1    
   232  116  239 1    
   233  117  118 2    
   234  117  119 am   BACKBONE|DICT|INTERRES
   235  119  120 1    
   236  119  240 1    
   237  120  121 1    
   238  120  124 1    
   239  120  241 1    
   240  121  122 am   BACKBONE|DICT|INTERRES
   241  121  123 2    
   242  122  242 1    
   243  122  243 1    
   244  124  125 1    
   245  124  244 1    
   246  124  245 1    
   247  125  126 1    
   248  126  246 1    
   249  126  247 1    
@<TRIPOS>SUBSTRUCTURE
     1 UNK         1 GROUP             0       ****    0 ROOT    
