@<TRIPOS>MOLECULE
3R540
247   249    1
SMALL
USER_CHARGES


@<TRIPOS>ATOM
      1 CA         -0.3077  -13.6516  -44.2821 C.3       0 UNK        -0.1800 
      2 C          -1.1084  -13.3272  -45.5325 C.2       0 UNK         0.5000 
      3 O          -0.7232  -13.7163  -46.6322 O.2       0 UNK        -0.5000 
      4 N          -2.2236  -12.6117  -45.3499 N.am      1 UNK        -0.5000 
      5 CA         -3.1897  -12.2058  -46.3803 C.3       1 UNK         0.1400 
      6 C6         -4.0079  -13.4151  -46.9156 C.3       23 UNK        -0.0398 
      7 S7         -4.8920  -14.3232  -45.5994 S.3       23 UNK        -0.2404 
      8 C8         -6.3473  -14.9418  -46.5008 C.3       23 UNK        -0.0205 
      9 C9         -6.0082  -16.1214  -47.4022 C.ar      23 UNK        -0.0193 
     10 C10        -5.5341  -15.9066  -48.6993 C.ar      23 UNK        -0.1150 
     11 C11        -5.2603  -16.9850  -49.5442 C.ar      23 UNK        -0.0193 
     12 C12        -5.4716  -18.2872  -49.0836 C.ar      23 UNK        -0.1150 
     13 C13        -5.9496  -18.5227  -47.7880 C.ar      23 UNK        -0.0193 
     14 C14        -6.2079  -17.4306  -46.9530 C.ar      23 UNK        -0.1150 
     15 C15        -6.2722  -19.9320  -47.2907 C.3       23 UNK        -0.0205 
     16 S16        -5.1853  -21.2440  -47.9412 S.3       23 UNK        -0.2404 
     17 C17        -3.6638  -20.9796  -46.9702 C.3       23 UNK        -0.0398 
     18 CA         -2.9213  -22.3152  -46.7208 C.3       11 UNK         0.1400 
     19 N          -1.4669  -22.1519  -46.6686 N.am      11 UNK        -0.5000 
     20 C          -0.6002  -23.1666  -46.7924 C.2       10 UNK         0.5000 
     21 O          -0.9438  -24.3333  -46.9739 O.2       10 UNK        -0.5000 
     22 CA          0.8951  -22.8399  -46.6514 C.3       10 UNK         0.1400 
     23 CB          1.4536  -22.2754  -47.9659 C.3       10 UNK        -0.1800 
     24 N           1.1693  -21.9194  -45.5472 N.am      10 UNK        -0.5000 
     25 C           0.9295  -22.1973  -44.2569 C.2       9 UNK         0.5000 
     26 O           0.4894  -23.2773  -43.8637 O.2       9 UNK        -0.5000 
     27 CA          1.1692  -21.0667  -43.2395 C.3       9 UNK         0.1400 
     28 CB          2.6651  -20.9159  -42.9269 C.3       9 UNK        -0.1800 
     29 N           0.6250  -19.7838  -43.6852 N.am      9 UNK        -0.5000 
     30 C          -0.6744  -19.5495  -43.9199 C.2       8 UNK         0.5000 
     31 O          -1.5652  -20.3774  -43.7339 O.2       8 UNK        -0.5000 
     32 CA         -1.0346  -18.1835  -44.5287 C.3       8 UNK         0.1400 
     33 CB         -1.1266  -17.0984  -43.4473 C.3       8 UNK        -0.1800 
     34 N          -0.0958  -17.7810  -45.5776 N.am      8 UNK        -0.5000 
     35 C           0.0572  -18.4504  -46.7290 C.2       7 UNK         0.5000 
     36 O          -0.6064  -19.4414  -47.0298 O.2       7 UNK        -0.5000 
     37 CA          1.1800  -17.9787  -47.6656 C.3       7 UNK         0.1400 
     38 CB          0.7318  -16.7681  -48.4978 C.3       7 UNK        -0.1800 
     39 N           2.4019  -17.6625  -46.9244 N.am      7 UNK        -0.5000 
     40 C           3.1927  -18.5909  -46.3644 C.2       6 UNK         0.5000 
     41 O           2.9779  -19.7996  -46.4438 O.2       6 UNK        -0.5000 
     42 CA          4.4086  -18.1027  -45.5514 C.3       6 UNK         0.1400 
     43 CB          5.6336  -17.9424  -46.4636 C.3       6 UNK        -0.1800 
     44 N           4.1756  -16.8481  -44.8374 N.am      6 UNK        -0.5000 
     45 C           3.2367  -16.6571  -43.9013 C.2       5 UNK         0.5000 
     46 O           2.4922  -17.5472  -43.4894 O.2       5 UNK        -0.5000 
     47 CA          3.0645  -15.2209  -43.3681 C.3       5 UNK         0.1400 
     48 CB          3.9109  -15.0196  -42.1030 C.3       5 UNK        -0.1800 
     49 N           3.3679  -14.1410  -44.3188 N.am      5 UNK        -0.5000 
     50 C           2.9324  -14.0182  -45.5810 C.2       4 UNK         0.5000 
     51 O           2.2805  -14.8855  -46.1624 O.2       4 UNK        -0.5000 
     52 CA          3.2716  -12.6946  -46.2971 C.3       4 UNK         0.1400 
     53 CB          2.9610  -12.7507  -47.8036 C.3       4 UNK        -0.1800 
     54 N           2.5512  -11.5586  -45.7203 N.am      4 UNK        -0.5000 
     55 C           2.8058  -10.9614  -44.5511 C.2       3 UNK         0.5000 
     56 O           3.7160  -11.3177  -43.8008 O.2       3 UNK        -0.5000 
     57 CA          1.9045   -9.7807  -44.1237 C.3       3 UNK         0.1400 
     58 CB          2.5738   -8.4364  -44.4682 C.3       3 UNK        -0.1800 
     59 N           0.5086   -9.8079  -44.5982 N.am      3 UNK        -0.5000 
     60 C           0.0430   -9.7116  -45.8513 C.2       2 UNK         0.5000 
     61 O           0.7626   -9.6630  -46.8517 O.2       2 UNK        -0.5000 
     62 CA         -1.4851   -9.6435  -46.0140 C.3       2 UNK         0.1400 
     63 CB         -1.9446   -8.1778  -46.0422 C.3       2 UNK        -0.1800 
     64 N          -1.8452  -10.2674  -47.2864 N.am      2 UNK        -0.5000 
     65 C          -2.5529  -11.3799  -47.5354 C.2       1 UNK         0.5000 
     66 O          -2.7061  -11.7576  -48.6971 O.2       1 UNK        -0.5000 
     67 C          -3.4703  -23.0806  -45.4973 C.2       11 UNK         0.5000 
     68 O          -4.3812  -23.8915  -45.6535 O.2       11 UNK        -0.5000 
     69 N          -2.8831  -22.8686  -44.3122 N.am      12 UNK        -0.5000 
     70 CA         -3.1942  -23.6381  -43.1063 C.3       12 UNK         0.1400 
     71 CB         -2.5361  -22.9759  -41.8862 C.3       12 UNK        -0.1800 
     72 C          -2.7742  -25.1174  -43.2211 C.2       12 UNK         0.5000 
     73 O          -3.5051  -25.9925  -42.7554 O.2       12 UNK        -0.5000 
     74 N          -1.6114  -25.3668  -43.8373 N.am      13 UNK        -0.5000 
     75 CA         -1.0410  -26.6984  -44.0197 C.3       13 UNK         0.1400 
     76 CB          0.4720  -26.5732  -44.2630 C.3       13 UNK        -0.1800 
     77 C          -1.7078  -27.4994  -45.1528 C.2       13 UNK         0.5000 
     78 O          -2.1141  -28.6399  -44.9247 O.2       13 UNK        -0.5000 
     79 N          -1.7628  -26.9149  -46.3565 N.am      14 UNK        -0.5000 
     80 CA         -2.0668  -27.6199  -47.6049 C.3       14 UNK         0.1400 
     81 CB         -0.8723  -27.4377  -48.5581 C.3       14 UNK        -0.1800 
     82 C          -3.3579  -27.1469  -48.2938 C.2       14 UNK         0.5000 
     83 O          -3.8080  -27.8252  -49.2189 O.2       14 UNK        -0.5000 
     84 N          -3.9251  -26.0100  -47.8622 N.am      15 UNK        -0.5000 
     85 CA         -5.0625  -25.3178  -48.4834 C.3       15 UNK         0.1400 
     86 CB         -6.3642  -26.1333  -48.3118 C.3       15 UNK        -0.1800 
     87 C          -4.7483  -24.9053  -49.9377 C.2       15 UNK         0.5000 
     88 O          -3.6420  -24.4243  -50.1953 O.2       15 UNK        -0.5000 
     89 N          -5.7166  -25.0803  -50.8503 N.am      16 UNK        -0.5000 
     90 CA         -5.6074  -24.8998  -52.3040 C.3       16 UNK         0.1400 
     91 CB         -4.7689  -26.0451  -52.9092 C.3       16 UNK        -0.1800 
     92 C          -5.0969  -23.5046  -52.7228 C.2       16 UNK         0.5000 
     93 O          -4.2587  -23.3997  -53.6182 O.2       16 UNK        -0.5000 
     94 N          -5.5900  -22.4618  -52.0380 N.am      17 UNK        -0.5000 
     95 CA         -5.2068  -21.0535  -52.1958 C.3       17 UNK         0.1400 
     96 CB         -5.6910  -20.5064  -53.5521 C.3       17 UNK        -0.1800 
     97 C          -3.6981  -20.8298  -51.9493 C.2       17 UNK         0.5000 
     98 O          -3.0021  -20.2535  -52.7890 O.2       17 UNK        -0.5000 
     99 N          -3.2307  -21.3471  -50.8032 N.am      18 UNK        -0.5000 
    100 CA        -1.8413  -21.3730  -50.3375 C.3       18 UNK         0.1400 
    101 CB        -1.3128  -19.9443  -50.1077 C.3       18 UNK        -0.1800 
    102 C         -0.9329  -22.2027  -51.2613 C.2       18 UNK         0.5000 
    103 O          0.1543  -21.7532  -51.6197 O.2       18 UNK        -0.5000 
    104 N         -1.4168  -23.3852  -51.6693 N.am      19 UNK        -0.5000 
    105 CA        -0.8152  -24.2676  -52.6772 C.3       19 UNK         0.1400 
    106 CB         0.4561  -24.9396  -52.1189 C.3       19 UNK        -0.1800 
    107 C         -0.5855  -23.5356  -54.0202 C.2       19 UNK         0.5000 
    108 O          0.4937  -23.6208  -54.6085 O.2       19 UNK        -0.5000 
    109 N         -1.6181  -22.7939  -54.4423 N.am      20 UNK        -0.5000 
    110 CA        -1.7097  -21.9204  -55.6124 C.3       20 UNK         0.1400 
    111 CB        -1.5121  -22.7204  -56.9167 C.3       20 UNK        -0.1800 
    112 C         -0.8301  -20.6511  -55.5590 C.2       20 UNK         0.5000 
    113 O         -0.7314  -19.9620  -56.5759 O.2       20 UNK        -0.5000 
    114 N         -0.2348  -20.3201  -54.4017 N.am      21 UNK        -0.5000 
    115 CA         0.5845  -19.1148  -54.2239 C.3       21 UNK         0.1400 
    116 CB         1.4463  -19.2358  -52.9587 C.3       21 UNK        -0.1800 
    117 C         -0.2305  -17.8059  -54.2008 C.2       21 UNK         0.5000 
    118 O          0.3318  -16.7526  -54.5054 O.2       21 UNK        -0.5000 
    119 N         -1.5253  -17.8819  -53.8696 N.am      22 UNK        -0.5000 
    120 CA        -2.4662  -16.7502  -53.9028 C.3       22 UNK         0.1400 
    121 C         -3.8370  -17.1101  -54.5412 C.2       22 UNK         0.5000 
    122 N         -3.9132  -18.1392  -55.3766 N.am      22 UNK        -0.7600 
    123 O         -4.8369  -16.4340  -54.3161 O.2       22 UNK        -0.5000 
    124 C124       -2.5497  -15.9769  -52.5572 C.3       23 UNK        -0.0398 
    125 S125       -2.9676  -16.9768  -51.0869 S.3       23 UNK        -0.2404 
    126 C126       -4.7656  -16.7380  -50.9618 C.3       23 UNK        -0.0205 
    127 H127        0.1586  -14.6293  -44.3883 H         1 UNK         0.0600 
    128 H128       -0.9392  -13.6728  -43.3938 H         1 UNK         0.0600 
    129 H129        0.4754  -12.9108  -44.1298 H         1 UNK         0.0600 
    130 H130       -2.4815  -12.3552  -44.4076 H         1 UNK         0.3000 
    131 H131       -3.8937  -11.5314  -45.8904 H         1 UNK         0.0600 
    132 H132       -4.7415  -13.0667  -47.6440 H         1 UNK         0.0800 
    133 H133       -3.3609  -14.1192  -47.4423 H         1 UNK         0.0800 
    134 H134       -7.1031  -15.2399  -45.7725 H         1 UNK         0.0800 
    135 H135       -6.7977  -14.1368  -47.0834 H         1 UNK         0.0800 
    136 H136       -5.3869  -14.8980  -49.0575 H         1 UNK         0.1150 
    137 H137       -5.2693  -19.1144  -49.7441 H         1 UNK         0.1150 
    138 H138       -6.5912  -17.5976  -45.9561 H         1 UNK         0.1150 
    139 H139       -6.2551  -19.9681  -46.2003 H         1 UNK         0.0800 
    140 H140       -7.2961  -20.1635  -47.5861 H         1 UNK         0.0800 
    141 H141       -3.0436  -20.2972  -47.5502 H         1 UNK         0.0800 
    142 H142       -3.8794  -20.4597  -46.0349 H         1 UNK         0.0800 
    143 H143       -3.1043  -22.9577  -47.5853 H         1 UNK         0.0600 
    144 H144       -1.1105  -21.2043  -46.5658 H         1 UNK         0.3000 
    145 H145        1.4166  -23.7756  -46.4398 H         1 UNK         0.0600 
    146 H146        2.5356  -22.1545  -47.9132 H         1 UNK         0.0600 
    147 H147        1.2415  -22.9425  -48.8028 H         1 UNK         0.0600 
    148 H148        1.0218  -21.3040  -48.2030 H         1 UNK         0.0600 
    149 H149        1.5802  -21.0243  -45.7946 H         1 UNK         0.3000 
    150 H150        0.6563  -21.3388  -42.3148 H         1 UNK         0.0600 
    151 H151        2.8342  -20.1532  -42.1664 H         1 UNK         0.0600 
    152 H152        3.0803  -21.8511  -42.5493 H         1 UNK         0.0600 
    153 H153        3.2360  -20.6373  -43.8122 H         1 UNK         0.0600 
    154 H154        1.2899  -19.0270  -43.8191 H         1 UNK         0.3000 
    155 H155       -2.0220  -18.2829  -44.9852 H         1 UNK         0.0600 
    156 H156       -0.1481  -16.8459  -43.0382 H         1 UNK         0.0600 
    157 H157       -1.7550  -17.4256  -42.6179 H         1 UNK         0.0600 
    158 H158       -1.5772  -16.1912  -43.8478 H         1 UNK         0.0600 
    159 H159        0.5097  -16.9953  -45.3890 H         1 UNK         0.3000 
    160 H160        1.4038  -18.7928  -48.3579 H         1 UNK         0.0600 
    161 H161        0.4707  -15.9173  -47.8677 H         1 UNK         0.0600 
    162 H162       -0.1470  -17.0126  -49.0964 H         1 UNK         0.0600 
    163 H163        1.5156  -16.4483  -49.1843 H         1 UNK         0.0600 
    164 H164        2.5848  -16.6772  -46.7517 H         1 UNK         0.3000 
    165 H165        4.6361  -18.8682  -44.8071 H         1 UNK         0.0600 
    166 H166        6.5233  -17.6848  -45.8888 H         1 UNK         0.0600 
    167 H167        5.8488  -18.8706  -46.9948 H         1 UNK         0.0600 
    168 H168        5.4786  -17.1640  -47.2119 H         1 UNK         0.0600 
    169 H169        4.7276  -16.0534  -45.1236 H         1 UNK         0.3000 
    170 H170        2.0171  -15.1133  -43.0849 H         1 UNK         0.0600 
    171 H171        3.6935  -15.7871  -41.3587 H         1 UNK         0.0600 
    172 H172        4.9781  -15.0671  -42.3229 H         1 UNK         0.0600 
    173 H173        3.7061  -14.0537  -41.6407 H         1 UNK         0.0600 
    174 H174        3.8443  -13.3338  -43.9299 H         1 UNK         0.3000 
    175 H175        4.3439  -12.5236  -46.1828 H         1 UNK         0.0600 
    176 H176        1.8947  -12.8917  -47.9882 H         1 UNK         0.0600 
    177 H177        3.2682  -11.8324  -48.3042 H         1 UNK         0.0600 
    178 H178        3.4898  -13.5755  -48.2830 H         1 UNK         0.0600 
    179 H179        1.8130  -11.1557  -46.2890 H         1 UNK         0.3000 
    180 H180        1.8381   -9.8371  -43.0360 H         1 UNK         0.0600 
    181 H181        2.6955   -8.3054  -45.5438 H         1 UNK         0.0600 
    182 H182        3.5656   -8.3684  -44.0193 H         1 UNK         0.0600 
    183 H183        1.9896   -7.5967  -44.0916 H         1 UNK         0.0600 
    184 H184       -0.1736   -9.8591  -43.8543 H         1 UNK         0.3000 
    185 H185       -1.9683  -10.1209  -45.1641 H         1 UNK         0.0600 
    186 H186       -1.6932   -7.6704  -45.1099 H         1 UNK         0.0600 
    187 H187       -1.4757   -7.6216  -46.8552 H         1 UNK         0.0600 
    188 H188       -3.0251   -8.1067  -46.1691 H         1 UNK         0.0600 
    189 H189       -1.3929   -9.8322  -48.0775 H         1 UNK         0.3000 
    190 H190       -2.1811  -22.1390  -44.2233 H         1 UNK         0.3000 
    191 H191       -4.2760  -23.6116  -42.9595 H         1 UNK         0.0600 
    192 H192       -2.8906  -21.9534  -41.7546 H         1 UNK         0.0600 
    193 H193       -2.7702  -23.5218  -40.9716 H         1 UNK         0.0600 
    194 H194       -1.4506  -22.9431  -41.9807 H         1 UNK         0.0600 
    195 H195       -1.0401  -24.5824  -44.1343 H         1 UNK         0.3000 
    196 H196       -1.1783  -27.2600  -43.0930 H         1 UNK         0.0600 
    197 H197        0.9292  -27.5533  -44.4042 H         1 UNK         0.0600 
    198 H198        0.9682  -26.1022  -43.4142 H         1 UNK         0.0600 
    199 H199        0.6917  -25.9762  -45.1490 H         1 UNK         0.0600 
    200 H200       -1.4198  -25.9604  -46.4628 H         1 UNK         0.3000 
    201 H201       -2.1846  -28.6896  -47.4212 H         1 UNK         0.0600 
    202 H202        0.0497  -27.8097  -48.1113 H         1 UNK         0.0600 
    203 H203       -0.7207  -26.3886  -48.8159 H         1 UNK         0.0600 
    204 H204       -1.0247  -27.9842  -49.4897 H         1 UNK         0.0600 
    205 H205       -3.4928  -25.5256  -47.0877 H         1 UNK         0.3000 
    206 H206       -5.2005  -24.3804  -47.9491 H         1 UNK         0.0600 
    207 H207       -6.5144  -26.4049  -47.2667 H         1 UNK         0.0600 
    208 H208       -7.2376  -25.5552  -48.6153 H         1 UNK         0.0600 
    209 H209       -6.3540  -27.0555  -48.8938 H         1 UNK         0.0600 
    210 H210       -6.5956  -25.4603  -50.5282 H         1 UNK         0.3000 
    211 H211       -6.6181  -24.9833  -52.7058 H         1 UNK         0.0600 
    212 H212       -3.7390  -26.0220  -52.5531 H         1 UNK         0.0600 
    213 H213       -4.7436  -25.9853  -53.9979 H         1 UNK         0.0600 
    214 H214       -5.1874  -27.0174  -52.6492 H         1 UNK         0.0600 
    215 H215       -6.2616  -22.6567  -51.3090 H         1 UNK         0.3000 
    216 H216       -5.7399  -20.5063  -51.4193 H         1 UNK         0.0600 
    217 H217       -5.1295  -20.9263  -54.3873 H         1 UNK         0.0600 
    218 H218       -5.5773  -19.4235  -53.5864 H         1 UNK         0.0600 
    219 H219       -6.7467  -20.7240  -53.7131 H         1 UNK         0.0600 
    220 H220       -3.8852  -21.8477  -50.2187 H         1 UNK         0.3000 
    221 H221       -1.8430  -21.8871  -49.3788 H         1 UNK         0.0600 
    222 H222       -1.2466  -19.3831  -51.0385 H         1 UNK         0.0600 
    223 H223       -1.9568  -19.3855  -49.4300 H         1 UNK         0.0600 
    224 H224       -0.3147  -19.9619  -49.6728 H         1 UNK         0.0600 
    225 H225       -2.3066  -23.6950  -51.2831 H         1 UNK         0.3000 
    226 H226       -1.5447  -25.0533  -52.8760 H         1 UNK         0.0600 
    227 H227        0.2470  -25.4603  -51.1844 H         1 UNK         0.0600 
    228 H228        0.8478  -25.6764  -52.8209 H         1 UNK         0.0600 
    229 H229        1.2486  -24.2151  -51.9287 H         1 UNK         0.0600 
    230 H230       -2.4772  -22.8415  -53.8987 H         1 UNK         0.3000 
    231 H231       -2.7385  -21.5572  -55.6103 H         1 UNK         0.0600 
    232 H232       -0.4819  -23.0572  -57.0342 H         1 UNK         0.0600 
    233 H233       -1.7570  -22.1145  -57.7897 H         1 UNK         0.0600 
    234 H234       -2.1586  -23.5976  -56.9428 H         1 UNK         0.0600 
    235 H235       -0.3584  -20.9135  -53.5897 H         1 UNK         0.3000 
    236 H236        1.2664  -19.0522  -55.0745 H         1 UNK         0.0600 
    237 H237        2.0318  -20.1553  -52.9636 H         1 UNK         0.0600 
    238 H238        2.1480  -18.4041  -52.8862 H         1 UNK         0.0600 
    239 H239        0.8405  -19.2253  -52.0538 H         1 UNK         0.0600 
    240 H240       -1.9254  -18.7735  -53.5872 H         1 UNK         0.3000 
    241 H241       -2.0780  -16.0281  -54.6233 H         1 UNK         0.0600 
    242 H242       -4.7961  -18.3603  -55.8079 H         1 UNK         0.3800 
    243 H243       -3.0906  -18.6714  -55.6088 H         1 UNK         0.3800 
    244 H244       -1.5757  -15.5282  -52.3585 H         1 UNK         0.0800 
    245 H245       -3.2342  -15.1316  -52.6377 H         1 UNK         0.0800 
    246 H246       -5.2661  -17.4159  -51.6547 H         1 UNK         0.0800 
    247 H247       -5.0306  -15.7276  -51.2761 H         1 UNK         0.0800 
@<TRIPOS>BOND
     1    1    2 1    
     2    1  127 1    
     3    1  128 1    
     4    1  129 1    
     5    2    3 2    
     6    2    4 am   BACKBONE|DICT|INTERRES
     7    4    5 1    
     8    4  130 1    
     9    5    6 1    
    10    5   65 1    
    11    5  131 1    
    12    6    7 1    
    13    6  132 1    
    14    6  133 1    
    15    7    8 1    
    16    8    9 1    
    17    8  134 1    
    18    8  135 1    
    19    9   10 ar   
    20    9   14 ar   
    21   10   11 ar   
    22   10  136 1    
    23   11   12 ar   
    24   11  126 1    
    25   12   13 ar   
    26   12  137 1    
    27   13   14 ar   
    28   13   15 1    
    29   14  138 1    
    30   15   16 1    
    31   15  139 1    
    32   15  140 1    
    33   16   17 1    
    34   17   18 1    
    35   17  141 1    
    36   17  142 1    
    37   18   19 1    
    38   18   67 1    
    39   18  143 1    
    40   19   20 am   BACKBONE|DICT|INTERRES
    41   19  144 1    
    42   20   21 2    
    43   20   22 1    
    44   22   23 1    
    45   22   24 1    
    46   22  145 1    
    47   23  146 1    
    48   23  147 1    
    49   23  148 1    
    50   24   25 am   BACKBONE|DICT|INTERRES
    51   24  149 1    
    52   25   26 2    
    53   25   27 1    
    54   27   28 1    
    55   27   29 1    
    56   27  150 1    
    57   28  151 1    
    58   28  152 1    
    59   28  153 1    
    60   29   30 am   BACKBONE|DICT|INTERRES
    61   29  154 1    
    62   30   31 2    
    63   30   32 1    
    64   32   33 1    
    65   32   34 1    
    66   32  155 1    
    67   33  156 1    
    68   33  157 1    
    69   33  158 1    
    70   34   35 am   BACKBONE|DICT|INTERRES
    71   34  159 1    
    72   35   36 2    
    73   35   37 1    
    74   37   38 1    
    75   37   39 1    
    76   37  160 1    
    77   38  161 1    
    78   38  162 1    
    79   38  163 1    
    80   39   40 am   BACKBONE|DICT|INTERRES
    81   39  164 1    
    82   40   41 2    
    83   40   42 1    
    84   42   43 1    
    85   42   44 1    
    86   42  165 1    
    87   43  166 1    
    88   43  167 1    
    89   43  168 1    
    90   44   45 am   BACKBONE|DICT|INTERRES
    91   44  169 1    
    92   45   46 2    
    93   45   47 1    
    94   47   48 1    
    95   47   49 1    
    96   47  170 1    
    97   48  171 1    
    98   48  172 1    
    99   48  173 1    
   100   49   50 am   BACKBONE|DICT|INTERRES
   101   49  174 1    
   102   50   51 2    
   103   50   52 1    
   104   52   53 1    
   105   52   54 1    
   106   52  175 1    
   107   53  176 1    
   108   53  177 1    
   109   53  178 1    
   110   54   55 am   BACKBONE|DICT|INTERRES
   111   54  179 1    
   112   55   56 2    
   113   55   57 1    
   114   57   58 1    
   115   57   59 1    
   116   57  180 1    
   117   58  181 1    
   118   58  182 1    
   119   58  183 1    
   120   59   60 am   BACKBONE|DICT|INTERRES
   121   59  184 1    
   122   60   61 2    
   123   60   62 1    
   124   62   63 1    
   125   62   64 1    
   126   62  185 1    
   127   63  186 1    
   128   63  187 1    
   129   63  188 1    
   130   64   65 am   BACKBONE|DICT|INTERRES
   131   64  189 1    
   132   65   66 2    
   133   67   68 2    
   134   67   69 am   BACKBONE|DICT|INTERRES
   135   69   70 1    
   136   69  190 1    
   137   70   71 1    
   138   70   72 1    
   139   70  191 1    
   140   71  192 1    
   141   71  193 1    
   142   71  194 1    
   143   72   73 2    
   144   72   74 am   BACKBONE|DICT|INTERRES
   145   74   75 1    
   146   74  195 1    
   147   75   76 1    
   148   75   77 1    
   149   75  196 1    
   150   76  197 1    
   151   76  198 1    
   152   76  199 1    
   153   77   78 2    
   154   77   79 am   BACKBONE|DICT|INTERRES
   155   79   80 1    
   156   79  200 1    
   157   80   81 1    
   158   80   82 1    
   159   80  201 1    
   160   81  202 1    
   161   81  203 1    
   162   81  204 1    
   163   82   83 2    
   164   82   84 am   BACKBONE|DICT|INTERRES
   165   84   85 1    
   166   84  205 1    
   167   85   86 1    
   168   85   87 1    
   169   85  206 1    
   170   86  207 1    
   171   86  208 1    
   172   86  209 1    
   173   87   88 2    
   174   87   89 am   BACKBONE|DICT|INTERRES
   175   89   90 1    
   176   89  210 1    
   177   90   91 1    
   178   90   92 1    
   179   90  211 1    
   180   91  212 1    
   181   91  213 1    
   182   91  214 1    
   183   92   93 2    
   184   92   94 am   BACKBONE|DICT|INTERRES
   185   94   95 1    
   186   94  215 1    
   187   95   96 1    
   188   95   97 1    
   189   95  216 1    
   190   96  217 1    
   191   96  218 1    
   192   96  219 1    
   193   97   98 2    
   194   97   99 am   BACKBONE|DICT|INTERRES
   195   99  100 1    
   196   99  220 1    
   197  100  101 1    
   198  100  102 1    
   199  100  221 1    
   200  101  222 1    
   201  101  223 1    
   202  101  224 1    
   203  102  103 2    
   204  102  104 am   BACKBONE|DICT|INTERRES
   205  104  105 1    
   206  104  225 1    
   207  105  106 1    
   208  105  107 1    
   209  105  226 1    
   210  106  227 1    
   211  106  228 1    
   212  106  229 1    
   213  107  108 2    
   214  107  109 am   BACKBONE|DICT|INTERRES
   215  109  110 1    
   216  109  230 1    
   217  110  111 1    
   218  110  112 1    
   219  110  231 1    
   220  111  232 1    
   221  111  233 1    
   222  111  234 1    
   223  112  113 2    
   224  112  114 am   BACKBONE|DICT|INTERRES
   225  114  115 1    
   226  114  235 1    
   227  115  116 1    
   228  115  117 1    
   229  115  236 1    
   230  116  237 1    
   231  116  238 1    
   232  116  239 1    
   233  117  118 2    
   234  117  119 am   BACKBONE|DICT|INTERRES
   235  119  120 1    
   236  119  240 1    
   237  120  121 1    
   238  120  124 1    
   239  120  241 1    
   240  121  122 am   BACKBONE|DICT|INTERRES
   241  121  123 2    
   242  122  242 1    
   243  122  243 1    
   244  124  125 1    
   245  124  244 1    
   246  124  245 1    
   247  125  126 1    
   248  126  246 1    
   249  126  247 1    
@<TRIPOS>SUBSTRUCTURE
     1 UNK         1 GROUP             0       ****    0 ROOT    
