@<TRIPOS>MOLECULE
3R540
247   249    1
SMALL
USER_CHARGES


@<TRIPOS>ATOM
      1 CA          6.3903  -10.9512  -49.3213 C.3       0 UNK        -0.1800 
      2 C           5.8244  -12.0554  -48.4406 C.2       0 UNK         0.5000 
      3 O           6.2318  -12.1911  -47.2865 O.2       0 UNK        -0.5000 
      4 N           4.8711  -12.8357  -48.9688 N.am      1 UNK        -0.5000 
      5 CA          4.2243  -13.9626  -48.2804 C.3       1 UNK         0.1400 
      6 C6          3.4347  -14.8649  -49.2584 C.3       23 UNK        -0.0398 
      7 S7          2.0098  -14.0448  -50.0623 S.3       23 UNK        -0.2404 
      8 C8          0.6203  -15.0656  -49.4741 C.3       23 UNK        -0.0205 
      9 C9          0.5543  -16.3974  -50.2075 C.ar      23 UNK        -0.0193 
     10 C10        -0.0784  -16.4842  -51.4507 C.ar      23 UNK        -0.1150 
     11 C11        -0.1457  -17.7033  -52.1326 C.ar      23 UNK        -0.0193 
     12 C12         0.4283  -18.8436  -51.5621 C.ar      23 UNK        -0.1150 
     13 C13         1.0580  -18.7704  -50.3154 C.ar      23 UNK        -0.0193 
     14 C14         1.1177  -17.5454  -49.6451 C.ar      23 UNK        -0.1150 
     15 C15         1.6529  -20.0119  -49.6703 C.3       23 UNK        -0.0205 
     16 S16         0.5769  -20.5746  -48.3256 S.3       23 UNK        -0.2404 
     17 C17         1.4945  -21.9856  -47.6310 C.3       23 UNK        -0.0398 
     18 CA          0.7647  -22.6540  -46.4370 C.3       11 UNK         0.1400 
     19 N           0.4619  -21.6936  -45.3716 N.am      11 UNK        -0.5000 
     20 C           0.6188  -21.9286  -44.0628 C.2       10 UNK         0.5000 
     21 O           0.9850  -23.0089  -43.5986 O.2       10 UNK        -0.5000 
     22 CA          0.3348  -20.7524  -43.1101 C.3       10 UNK         0.1400 
     23 CB          1.5649  -19.8369  -43.0246 C.3       10 UNK        -0.1800 
     24 N          -0.8265  -19.9607  -43.5122 N.am      10 UNK        -0.5000 
     25 C          -2.0944  -20.3955  -43.4622 C.2       9 UNK         0.5000 
     26 O          -2.4181  -21.5053  -43.0377 O.2       9 UNK        -0.5000 
     27 CA         -3.1914  -19.4472  -43.9914 C.3       9 UNK         0.1400 
     28 CB         -3.8486  -18.6946  -42.8293 C.3       9 UNK        -0.1800 
     29 N          -2.7182  -18.4775  -44.9826 N.am      9 UNK        -0.5000 
     30 C          -2.1840  -18.8112  -46.1660 C.2       8 UNK         0.5000 
     31 O          -2.0427  -19.9765  -46.5289 O.2       8 UNK        -0.5000 
     32 CA         -1.6861  -17.6766  -47.0813 C.3       8 UNK         0.1400 
     33 CB         -2.7285  -17.3647  -48.1654 C.3       8 UNK        -0.1800 
     34 N          -1.3423  -16.4361  -46.3849 N.am      8 UNK        -0.5000 
     35 C          -0.4222  -16.3031  -45.4196 C.2       7 UNK         0.5000 
     36 O           0.2446  -17.2399  -44.9777 O.2       7 UNK        -0.5000 
     37 CA         -0.2281  -14.8904  -44.8316 C.3       7 UNK         0.1400 
     38 CB         -0.9754  -13.7747  -45.5990 C.3       7 UNK        -0.1800 
     39 N          -0.5730  -14.8409  -43.4112 N.am      7 UNK        -0.5000 
     40 C          -1.7490  -15.1464  -42.8407 C.2       6 UNK         0.5000 
     41 O          -2.7326  -15.5489  -43.4659 O.2       6 UNK        -0.5000 
     42 CA         -1.8196  -14.9417  -41.3094 C.3       6 UNK         0.1400 
     43 CB         -3.0436  -15.5927  -40.6319 C.3       6 UNK        -0.1800 
     44 N          -0.5763  -15.3149  -40.6263 N.am      6 UNK        -0.5000 
     45 C           0.0155  -16.5181  -40.6326 C.2       5 UNK         0.5000 
     46 O          -0.4700  -17.5281  -41.1435 O.2       5 UNK        -0.5000 
     47 CA          1.4156  -16.5798  -39.9894 C.3       5 UNK         0.1400 
     48 CB          1.5889  -17.8523  -39.1427 C.3       5 UNK        -0.1800 
     49 N           2.4973  -16.5190  -40.9777 N.am      5 UNK        -0.5000 
     50 C           2.7043  -15.5420  -41.8721 C.2       4 UNK         0.5000 
     51 O           1.9714  -14.5574  -41.9993 O.2       4 UNK        -0.5000 
     52 CA          3.9385  -15.7064  -42.7812 C.3       4 UNK         0.1400 
     53 CB          3.6527  -16.7006  -43.9158 C.3       4 UNK        -0.1800 
     54 N           4.3554  -14.4299  -43.3629 N.am      4 UNK        -0.5000 
     55 C           4.9872  -13.4596  -42.6845 C.2       3 UNK         0.5000 
     56 O           5.3640  -13.5849  -41.5180 O.2       3 UNK        -0.5000 
     57 CA          5.2612  -12.1286  -43.4177 C.3       3 UNK         0.1400 
     58 CB          6.7290  -12.0559  -43.8658 C.3       3 UNK        -0.1800 
     59 N           4.4024  -11.9158  -44.5827 N.am      3 UNK        -0.5000 
     60 C           3.0898  -11.6448  -44.5276 C.2       2 UNK         0.5000 
     61 O           2.4850  -11.4283  -43.4778 O.2       2 UNK        -0.5000 
     62 CA          2.3113  -11.6219  -45.8605 C.3       2 UNK         0.1400 
     63 CB          1.9497  -10.1818  -46.2539 C.3       2 UNK        -0.1800 
     64 N           3.0117  -12.2529  -46.9808 N.am      2 UNK        -0.5000 
     65 C           3.3725  -13.5421  -47.0604 C.2       1 UNK         0.5000 
     66 O           3.0991  -14.3747  -46.1972 O.2       1 UNK        -0.5000 
     67 C          -0.4889  -23.4253  -46.8970 C.2       11 UNK         0.5000 
     68 O          -0.3417  -24.5362  -47.4094 O.2       11 UNK        -0.5000 
     69 N          -1.6894  -22.8484  -46.7143 N.am      12 UNK        -0.5000 
     70 CA         -2.9826  -23.3502  -47.1983 C.3       12 UNK         0.1400 
     71 CB         -4.1133  -22.4262  -46.7224 C.3       12 UNK        -0.1800 
     72 C          -3.3166  -24.8096  -46.8445 C.2       12 UNK         0.5000 
     73 O          -4.0141  -25.4652  -47.6180 O.2       12 UNK        -0.5000 
     74 N          -2.7807  -25.3034  -45.7212 N.am      13 UNK        -0.5000 
     75 CA         -2.8925  -26.6923  -45.2724 C.3       13 UNK         0.1400 
     76 CB         -2.2529  -26.8128  -43.8807 C.3       13 UNK        -0.1800 
     77 C          -2.2725  -27.7238  -46.2404 C.2       13 UNK         0.5000 
     78 O          -2.6911  -28.8823  -46.2212 O.2       13 UNK        -0.5000 
     79 N          -1.3021  -27.2954  -47.0600 N.am      14 UNK        -0.5000 
     80 CA         -0.6334  -28.1205  -48.0659 C.3       14 UNK         0.1400 
     81 CB          0.8545  -28.2463  -47.7012 C.3       14 UNK        -0.1800 
     82 C          -0.7907  -27.5378  -49.4803 C.2       14 UNK         0.5000 
     83 O          -1.0012  -28.2981  -50.4258 O.2       14 UNK        -0.5000 
     84 N          -0.6700  -26.2100  -49.6119 N.am      15 UNK        -0.5000 
     85 CA         -0.6381  -25.5072  -50.8958 C.3       15 UNK         0.1400 
     86 CB          0.1173  -24.1797  -50.7107 C.3       15 UNK        -0.1800 
     87 C          -2.0281  -25.2340  -51.4960 C.2       15 UNK         0.5000 
     88 O          -2.1103  -24.9700  -52.6953 O.2       15 UNK        -0.5000 
     89 N          -3.0782  -25.2511  -50.6579 N.am      16 UNK        -0.5000 
     90 CA         -4.4531  -24.8283  -50.9696 C.3       16 UNK         0.1400 
     91 CB         -5.1147  -25.7900  -51.9762 C.3       16 UNK        -0.1800 
     92 C          -4.5381  -23.3454  -51.4018 C.2       16 UNK         0.5000 
     93 O          -5.3519  -22.9889  -52.2565 O.2       16 UNK        -0.5000 
     94 N          -3.6633  -22.5237  -50.8062 N.am      17 UNK        -0.5000 
     95 CA         -3.5310  -21.0872  -51.0216 C.3       17 UNK         0.1400 
     96 CB         -2.2731  -20.6052  -50.2934 C.3       17 UNK        -0.1800 
     97 C          -4.7613  -20.2994  -50.5426 C.2       17 UNK         0.5000 
     98 O          -5.3981  -20.6866  -49.5600 O.2       17 UNK        -0.5000 
     99 N          -5.0513  -19.2024  -51.2541 N.am      18 UNK        -0.5000 
    100 CA        -6.2374  -18.3497  -51.1341 C.3       18 UNK         0.1400 
    101 CB        -6.2301  -17.5794  -49.7977 C.3       18 UNK        -0.1800 
    102 C         -7.5514  -19.1218  -51.3908 C.2       18 UNK         0.5000 
    103 O         -8.5855  -18.7996  -50.8019 O.2       18 UNK        -0.5000 
    104 N         -7.4825  -20.1333  -52.2638 N.am      19 UNK        -0.5000 
    105 CA        -8.5700  -21.0399  -52.6042 C.3       19 UNK         0.1400 
    106 CB        -8.7468  -22.1049  -51.4992 C.3       19 UNK        -0.1800 
    107 C         -8.2924  -21.6083  -54.0032 C.2       19 UNK         0.5000 
    108 O         -8.3840  -20.8597  -54.9781 O.2       19 UNK        -0.5000 
    109 N         -7.9507  -22.9020  -54.0907 N.am      20 UNK        -0.5000 
    110 CA        -7.6210  -23.5978  -55.3381 C.3       20 UNK         0.1400 
    111 CB        -7.4965  -25.1045  -55.0705 C.3       20 UNK        -0.1800 
    112 C         -6.3454  -23.0530  -56.0074 C.2       20 UNK         0.5000 
    113 O         -6.2897  -22.9820  -57.2360 O.2       20 UNK        -0.5000 
    114 N         -5.3736  -22.6355  -55.1884 N.am      21 UNK        -0.5000 
    115 CA        -4.2575  -21.7916  -55.5929 C.3       21 UNK         0.1400 
    116 CB        -2.9589  -22.3348  -54.9776 C.3       21 UNK        -0.1800 
    117 C         -4.5475  -20.3714  -55.0885 C.2       21 UNK         0.5000 
    118 O         -5.0087  -20.2193  -53.9571 O.2       21 UNK        -0.5000 
    119 N         -4.2791  -19.3703  -55.9336 N.am      22 UNK        -0.5000 
    120 CA        -4.3712  -17.9182  -55.6783 C.3       22 UNK         0.1400 
    121 C         -5.6874  -17.3501  -55.0542 C.2       22 UNK         0.5000 
    122 N         -6.7976  -18.0758  -55.0531 N.am      22 UNK        -0.7600 
    123 O         -5.7220  -16.2079  -54.6050 O.2       22 UNK        -0.5000 
    124 C124       -3.0677  -17.3258  -55.0694 C.3       23 UNK        -0.0398 
    125 S125       -2.6258  -17.8660  -53.3793 S.3       23 UNK        -0.2404 
    126 C126       -0.8105  -17.7710  -53.4986 C.3       23 UNK        -0.0205 
    127 H127        5.9286  -10.9437  -50.3089 H         1 UNK         0.0600 
    128 H128        7.4642  -11.0872  -49.4484 H         1 UNK         0.0600 
    129 H129        6.2210   -9.9790  -48.8586 H         1 UNK         0.0600 
    130 H130        4.5578  -12.6682  -49.9150 H         1 UNK         0.3000 
    131 H131        5.0314  -14.5763  -47.8740 H         1 UNK         0.0600 
    132 H132        4.1007  -15.2220  -50.0449 H         1 UNK         0.0800 
    133 H133        3.1053  -15.7618  -48.7347 H         1 UNK         0.0800 
    134 H134       -0.3104  -14.5184  -49.6310 H         1 UNK         0.0800 
    135 H135        0.7029  -15.2201  -48.3971 H         1 UNK         0.0800 
    136 H136       -0.5160  -15.5996  -51.8918 H         1 UNK         0.1150 
    137 H137        0.3754  -19.7890  -52.0831 H         1 UNK         0.1150 
    138 H138        1.5900  -17.4961  -48.6743 H         1 UNK         0.1150 
    139 H139        1.7724  -20.8127  -50.4017 H         1 UNK         0.0800 
    140 H140        2.6459  -19.7860  -49.2792 H         1 UNK         0.0800 
    141 H141        2.4704  -21.6257  -47.3027 H         1 UNK         0.0800 
    142 H142        1.6931  -22.7105  -48.4221 H         1 UNK         0.0800 
    143 H143        1.4488  -23.4100  -46.0457 H         1 UNK         0.0600 
    144 H144        0.1247  -20.7892  -45.6740 H         1 UNK         0.3000 
    145 H145        0.1416  -21.1602  -42.1157 H         1 UNK         0.0600 
    146 H146        1.4056  -19.0234  -42.3185 H         1 UNK         0.0600 
    147 H147        1.8005  -19.3952  -43.9936 H         1 UNK         0.0600 
    148 H148        2.4437  -20.3900  -42.6913 H         1 UNK         0.0600 
    149 H149       -0.6424  -19.0296  -43.8668 H         1 UNK         0.3000 
    150 H150       -3.9532  -20.0632  -44.4730 H         1 UNK         0.0600 
    151 H151       -3.1154  -18.0826  -42.3073 H         1 UNK         0.0600 
    152 H152       -4.2776  -19.3867  -42.1037 H         1 UNK         0.0600 
    153 H153       -4.6500  -18.0419  -43.1758 H         1 UNK         0.0600 
    154 H154       -2.7673  -17.4994  -44.7245 H         1 UNK         0.3000 
    155 H155       -0.7816  -18.0380  -47.5710 H         1 UNK         0.0600 
    156 H156       -3.0536  -18.2731  -48.6724 H         1 UNK         0.0600 
    157 H157       -2.3209  -16.6988  -48.9264 H         1 UNK         0.0600 
    158 H158       -3.6172  -16.8946  -47.7431 H         1 UNK         0.0600 
    159 H159       -1.8683  -15.6170  -46.6513 H         1 UNK         0.3000 
    160 H160        0.8392  -14.6776  -44.8892 H         1 UNK         0.0600 
    161 H161       -2.0552  -13.9272  -45.6071 H         1 UNK         0.0600 
    162 H162       -0.6355  -13.7124  -46.6337 H         1 UNK         0.0600 
    163 H163       -0.7954  -12.8016  -45.1426 H         1 UNK         0.0600 
    164 H164        0.2003  -14.5984  -42.7970 H         1 UNK         0.3000 
    165 H165       -1.9235  -13.8640  -41.1763 H         1 UNK         0.0600 
    166 H166       -3.1489  -15.2396  -39.6062 H         1 UNK         0.0600 
    167 H167       -3.9688  -15.3433  -41.1526 H         1 UNK         0.0600 
    168 H168       -2.9662  -16.6774  -40.5939 H         1 UNK         0.0600 
    169 H169       -0.0636  -14.5444  -40.2197 H         1 UNK         0.3000 
    170 H170        1.5274  -15.7215  -39.3238 H         1 UNK         0.0600 
    171 H171        1.5552  -18.7542  -39.7551 H         1 UNK         0.0600 
    172 H172        2.5390  -17.8451  -38.6082 H         1 UNK         0.0600 
    173 H173        0.7979  -17.9340  -38.3961 H         1 UNK         0.0600 
    174 H174        3.1381  -17.2986  -40.9666 H         1 UNK         0.3000 
    175 H175        4.7628  -16.0966  -42.1805 H         1 UNK         0.0600 
    176 H176        2.7766  -16.4099  -44.4951 H         1 UNK         0.0600 
    177 H177        4.4970  -16.7758  -44.6012 H         1 UNK         0.0600 
    178 H178        3.4679  -17.6988  -43.5207 H         1 UNK         0.0600 
    179 H179        4.0297  -14.2416  -44.3037 H         1 UNK         0.3000 
    180 H180        5.0809  -11.3194  -42.7071 H         1 UNK         0.0600 
    181 H181        6.9515  -11.0981  -44.3365 H         1 UNK         0.0600 
    182 H182        6.9695  -12.8440  -44.5806 H         1 UNK         0.0600 
    183 H183        7.4042  -12.1653  -43.0161 H         1 UNK         0.0600 
    184 H184        4.8324  -12.0561  -45.4889 H         1 UNK         0.3000 
    185 H185        1.3870  -12.1754  -45.6985 H         1 UNK         0.0600 
    186 H186        2.8405   -9.5844  -46.4522 H         1 UNK         0.0600 
    187 H187        1.3243  -10.1614  -47.1466 H         1 UNK         0.0600 
    188 H188        1.3921   -9.6862  -45.4579 H         1 UNK         0.0600 
    189 H189        3.2873  -11.6444  -47.7377 H         1 UNK         0.3000 
    190 H190       -1.7049  -21.8969  -46.3586 H         1 UNK         0.3000 
    191 H191       -2.9441  -23.2987  -48.2853 H         1 UNK         0.0600 
    192 H192       -4.0365  -21.4399  -47.1781 H         1 UNK         0.0600 
    193 H193       -4.1021  -22.3037  -45.6390 H         1 UNK         0.0600 
    194 H194       -5.0917  -22.8205  -47.0009 H         1 UNK         0.0600 
    195 H195       -2.2134  -24.6880  -45.1565 H         1 UNK         0.3000 
    196 H196       -3.9552  -26.9272  -45.1838 H         1 UNK         0.0600 
    197 H197       -2.7405  -26.1526  -43.1630 H         1 UNK         0.0600 
    198 H198       -1.1919  -26.5601  -43.9035 H         1 UNK         0.0600 
    199 H199       -2.3404  -27.8298  -43.4960 H         1 UNK         0.0600 
    200 H200       -1.0248  -26.3201  -47.0160 H         1 UNK         0.3000 
    201 H201       -1.0603  -29.1253  -48.0865 H         1 UNK         0.0600 
    202 H202        0.9809  -28.7305  -46.7327 H         1 UNK         0.0600 
    203 H203        1.3419  -27.2716  -47.6536 H         1 UNK         0.0600 
    204 H204        1.3893  -28.8475  -48.4377 H         1 UNK         0.0600 
    205 H205       -0.4891  -25.6412  -48.7875 H         1 UNK         0.3000 
    206 H206       -0.0827  -26.1130  -51.6151 H         1 UNK         0.0600 
    207 H207        1.1233  -24.3484  -50.3268 H         1 UNK         0.0600 
    208 H208       -0.3990  -23.5128  -50.0194 H         1 UNK         0.0600 
    209 H209        0.2174  -23.6498  -51.6590 H         1 UNK         0.0600 
    210 H210       -2.9166  -25.5273  -49.6984 H         1 UNK         0.3000 
    211 H211       -5.0154  -24.8991  -50.0381 H         1 UNK         0.0600 
    212 H212       -4.6730  -25.7048  -52.9694 H         1 UNK         0.0600 
    213 H213       -6.1801  -25.5776  -52.0691 H         1 UNK         0.0600 
    214 H214       -5.0190  -26.8265  -51.6531 H         1 UNK         0.0600 
    215 H215       -3.0356  -22.9235  -50.1294 H         1 UNK         0.3000 
    216 H216       -3.3908  -20.9192  -52.0892 H         1 UNK         0.0600 
    217 H217       -2.1075  -19.5415  -50.4653 H         1 UNK         0.0600 
    218 H218       -1.3863  -21.1314  -50.6462 H         1 UNK         0.0600 
    219 H219       -2.3495  -20.7554  -49.2157 H         1 UNK         0.0600 
    220 H220       -4.4902  -19.0265  -52.0797 H         1 UNK         0.3000 
    221 H221       -6.1610  -17.6147  -51.9363 H         1 UNK         0.0600 
    222 H222       -6.3373  -18.2466  -48.9422 H         1 UNK         0.0600 
    223 H223       -5.3033  -17.0198  -49.6747 H         1 UNK         0.0600 
    224 H224       -7.0483  -16.8597  -49.7559 H         1 UNK         0.0600 
    225 H225       -6.6025  -20.2949  -52.7489 H         1 UNK         0.3000 
    226 H226       -9.4974  -20.4690  -52.6821 H         1 UNK         0.0600 
    227 H227       -9.0544  -21.6442  -50.5604 H         1 UNK         0.0600 
    228 H228       -9.5186  -22.8280  -51.7658 H         1 UNK         0.0600 
    229 H229       -7.8237  -22.6507  -51.3045 H         1 UNK         0.0600 
    230 H230       -7.8406  -23.4272  -53.2355 H         1 UNK         0.3000 
    231 H231       -8.4501  -23.4441  -56.0319 H         1 UNK         0.0600 
    232 H232       -7.3255  -25.6506  -55.9990 H         1 UNK         0.0600 
    233 H233       -6.6628  -25.3253  -54.4052 H         1 UNK         0.0600 
    234 H234       -8.4049  -25.5050  -54.6202 H         1 UNK         0.0600 
    235 H235       -5.5202  -22.6984  -54.1834 H         1 UNK         0.3000 
    236 H236       -4.1484  -21.7771  -56.6791 H         1 UNK         0.0600 
    237 H237       -3.0149  -22.3881  -53.8907 H         1 UNK         0.0600 
    238 H238       -2.7413  -23.3381  -55.3440 H         1 UNK         0.0600 
    239 H239       -2.1090  -21.7008  -55.2326 H         1 UNK         0.0600 
    240 H240       -3.9393  -19.6121  -56.8533 H         1 UNK         0.3000 
    241 H241       -4.4152  -17.5039  -56.6862 H         1 UNK         0.0600 
    242 H242       -7.6448  -17.6798  -54.6806 H         1 UNK         0.3800 
    243 H243       -6.7979  -19.0323  -55.3745 H         1 UNK         0.3800 
    244 H244       -3.1107  -16.2355  -55.0709 H         1 UNK         0.0800 
    245 H245       -2.2401  -17.5760  -55.7344 H         1 UNK         0.0800 
    246 H246       -0.5277  -16.8855  -54.0701 H         1 UNK         0.0800 
    247 H247       -0.4435  -18.6301  -54.0623 H         1 UNK         0.0800 
@<TRIPOS>BOND
     1    1    2 1    
     2    1  127 1    
     3    1  128 1    
     4    1  129 1    
     5    2    3 2    
     6    2    4 am   BACKBONE|DICT|INTERRES
     7    4    5 1    
     8    4  130 1    
     9    5    6 1    
    10    5   65 1    
    11    5  131 1    
    12    6    7 1    
    13    6  132 1    
    14    6  133 1    
    15    7    8 1    
    16    8    9 1    
    17    8  134 1    
    18    8  135 1    
    19    9   10 ar   
    20    9   14 ar   
    21   10   11 ar   
    22   10  136 1    
    23   11   12 ar   
    24   11  126 1    
    25   12   13 ar   
    26   12  137 1    
    27   13   14 ar   
    28   13   15 1    
    29   14  138 1    
    30   15   16 1    
    31   15  139 1    
    32   15  140 1    
    33   16   17 1    
    34   17   18 1    
    35   17  141 1    
    36   17  142 1    
    37   18   19 1    
    38   18   67 1    
    39   18  143 1    
    40   19   20 am   BACKBONE|DICT|INTERRES
    41   19  144 1    
    42   20   21 2    
    43   20   22 1    
    44   22   23 1    
    45   22   24 1    
    46   22  145 1    
    47   23  146 1    
    48   23  147 1    
    49   23  148 1    
    50   24   25 am   BACKBONE|DICT|INTERRES
    51   24  149 1    
    52   25   26 2    
    53   25   27 1    
    54   27   28 1    
    55   27   29 1    
    56   27  150 1    
    57   28  151 1    
    58   28  152 1    
    59   28  153 1    
    60   29   30 am   BACKBONE|DICT|INTERRES
    61   29  154 1    
    62   30   31 2    
    63   30   32 1    
    64   32   33 1    
    65   32   34 1    
    66   32  155 1    
    67   33  156 1    
    68   33  157 1    
    69   33  158 1    
    70   34   35 am   BACKBONE|DICT|INTERRES
    71   34  159 1    
    72   35   36 2    
    73   35   37 1    
    74   37   38 1    
    75   37   39 1    
    76   37  160 1    
    77   38  161 1    
    78   38  162 1    
    79   38  163 1    
    80   39   40 am   BACKBONE|DICT|INTERRES
    81   39  164 1    
    82   40   41 2    
    83   40   42 1    
    84   42   43 1    
    85   42   44 1    
    86   42  165 1    
    87   43  166 1    
    88   43  167 1    
    89   43  168 1    
    90   44   45 am   BACKBONE|DICT|INTERRES
    91   44  169 1    
    92   45   46 2    
    93   45   47 1    
    94   47   48 1    
    95   47   49 1    
    96   47  170 1    
    97   48  171 1    
    98   48  172 1    
    99   48  173 1    
   100   49   50 am   BACKBONE|DICT|INTERRES
   101   49  174 1    
   102   50   51 2    
   103   50   52 1    
   104   52   53 1    
   105   52   54 1    
   106   52  175 1    
   107   53  176 1    
   108   53  177 1    
   109   53  178 1    
   110   54   55 am   BACKBONE|DICT|INTERRES
   111   54  179 1    
   112   55   56 2    
   113   55   57 1    
   114   57   58 1    
   115   57   59 1    
   116   57  180 1    
   117   58  181 1    
   118   58  182 1    
   119   58  183 1    
   120   59   60 am   BACKBONE|DICT|INTERRES
   121   59  184 1    
   122   60   61 2    
   123   60   62 1    
   124   62   63 1    
   125   62   64 1    
   126   62  185 1    
   127   63  186 1    
   128   63  187 1    
   129   63  188 1    
   130   64   65 am   BACKBONE|DICT|INTERRES
   131   64  189 1    
   132   65   66 2    
   133   67   68 2    
   134   67   69 am   BACKBONE|DICT|INTERRES
   135   69   70 1    
   136   69  190 1    
   137   70   71 1    
   138   70   72 1    
   139   70  191 1    
   140   71  192 1    
   141   71  193 1    
   142   71  194 1    
   143   72   73 2    
   144   72   74 am   BACKBONE|DICT|INTERRES
   145   74   75 1    
   146   74  195 1    
   147   75   76 1    
   148   75   77 1    
   149   75  196 1    
   150   76  197 1    
   151   76  198 1    
   152   76  199 1    
   153   77   78 2    
   154   77   79 am   BACKBONE|DICT|INTERRES
   155   79   80 1    
   156   79  200 1    
   157   80   81 1    
   158   80   82 1    
   159   80  201 1    
   160   81  202 1    
   161   81  203 1    
   162   81  204 1    
   163   82   83 2    
   164   82   84 am   BACKBONE|DICT|INTERRES
   165   84   85 1    
   166   84  205 1    
   167   85   86 1    
   168   85   87 1    
   169   85  206 1    
   170   86  207 1    
   171   86  208 1    
   172   86  209 1    
   173   87   88 2    
   174   87   89 am   BACKBONE|DICT|INTERRES
   175   89   90 1    
   176   89  210 1    
   177   90   91 1    
   178   90   92 1    
   179   90  211 1    
   180   91  212 1    
   181   91  213 1    
   182   91  214 1    
   183   92   93 2    
   184   92   94 am   BACKBONE|DICT|INTERRES
   185   94   95 1    
   186   94  215 1    
   187   95   96 1    
   188   95   97 1    
   189   95  216 1    
   190   96  217 1    
   191   96  218 1    
   192   96  219 1    
   193   97   98 2    
   194   97   99 am   BACKBONE|DICT|INTERRES
   195   99  100 1    
   196   99  220 1    
   197  100  101 1    
   198  100  102 1    
   199  100  221 1    
   200  101  222 1    
   201  101  223 1    
   202  101  224 1    
   203  102  103 2    
   204  102  104 am   BACKBONE|DICT|INTERRES
   205  104  105 1    
   206  104  225 1    
   207  105  106 1    
   208  105  107 1    
   209  105  226 1    
   210  106  227 1    
   211  106  228 1    
   212  106  229 1    
   213  107  108 2    
   214  107  109 am   BACKBONE|DICT|INTERRES
   215  109  110 1    
   216  109  230 1    
   217  110  111 1    
   218  110  112 1    
   219  110  231 1    
   220  111  232 1    
   221  111  233 1    
   222  111  234 1    
   223  112  113 2    
   224  112  114 am   BACKBONE|DICT|INTERRES
   225  114  115 1    
   226  114  235 1    
   227  115  116 1    
   228  115  117 1    
   229  115  236 1    
   230  116  237 1    
   231  116  238 1    
   232  116  239 1    
   233  117  118 2    
   234  117  119 am   BACKBONE|DICT|INTERRES
   235  119  120 1    
   236  119  240 1    
   237  120  121 1    
   238  120  124 1    
   239  120  241 1    
   240  121  122 am   BACKBONE|DICT|INTERRES
   241  121  123 2    
   242  122  242 1    
   243  122  243 1    
   244  124  125 1    
   245  124  244 1    
   246  124  245 1    
   247  125  126 1    
   248  126  246 1    
   249  126  247 1    
@<TRIPOS>SUBSTRUCTURE
     1 UNK         1 GROUP             0       ****    0 ROOT    
