@<TRIPOS>MOLECULE
3R540
247   249    1
SMALL
USER_CHARGES


@<TRIPOS>ATOM
      1 CA          0.4723  -18.2027  -49.2814 C.3       0 UNK        -0.1800 
      2 C           0.1607  -16.8583  -49.9128 C.2       0 UNK         0.5000 
      3 O          -0.9526  -16.3601  -49.7501 O.2       0 UNK        -0.5000 
      4 N           1.1468  -16.2669  -50.6041 N.am      1 UNK        -0.5000 
      5 CA          1.0742  -14.9748  -51.3036 C.3       1 UNK         0.1400 
      6 C6          2.4217  -14.5975  -51.9713 C.3       23 UNK        -0.0398 
      7 S7          2.7861  -15.5743  -53.4647 S.3       23 UNK        -0.2404 
      8 C8          4.1596  -16.6442  -52.9193 C.3       23 UNK        -0.0205 
      9 C9          3.6799  -17.8828  -52.1748 C.ar      23 UNK        -0.0193 
     10 C10         2.7056  -18.7041  -52.7433 C.ar      23 UNK        -0.1150 
     11 C11         2.2588  -19.8477  -52.0813 C.ar      23 UNK        -0.0193 
     12 C12         2.8264  -20.1962  -50.8530 C.ar      23 UNK        -0.1150 
     13 C13         3.8308  -19.4018  -50.2784 C.ar      23 UNK        -0.0193 
     14 C14         4.2360  -18.2378  -50.9429 C.ar      23 UNK        -0.1150 
     15 C15         4.5331  -19.7557  -48.9650 C.3       23 UNK        -0.0205 
     16 S16         4.0550  -21.3405  -48.1926 S.3       23 UNK        -0.2404 
     17 C17         2.6502  -20.8196  -47.1578 C.3       23 UNK        -0.0398 
     18 CA          1.6741  -21.9856  -46.8527 C.3       11 UNK         0.1400 
     19 N           1.2723  -21.9917  -45.4436 N.am      11 UNK        -0.5000 
     20 C           0.6094  -22.9851  -44.8375 C.2       10 UNK         0.5000 
     21 O           0.2994  -24.0395  -45.3916 O.2       10 UNK        -0.5000 
     22 CA          0.1791  -22.7309  -43.3819 C.3       10 UNK         0.1400 
     23 CB          1.3156  -23.0630  -42.4035 C.3       10 UNK        -0.1800 
     24 N          -0.2626  -21.3496  -43.1784 N.am      10 UNK        -0.5000 
     25 C          -1.4066  -20.8497  -43.6678 C.2       9 UNK         0.5000 
     26 O          -2.2241  -21.5157  -44.3005 O.2       9 UNK        -0.5000 
     27 CA         -1.6584  -19.3456  -43.4537 C.3       9 UNK         0.1400 
     28 CB         -2.2378  -19.0961  -42.0535 C.3       9 UNK        -0.1800 
     29 N          -0.4538  -18.5344  -43.6363 N.am      9 UNK        -0.5000 
     30 C           0.2437  -18.4459  -44.7776 C.2       8 UNK         0.5000 
     31 O          -0.0802  -19.0078  -45.8202 O.2       8 UNK        -0.5000 
     32 CA          1.5680  -17.6658  -44.7295 C.3       8 UNK         0.1400 
     33 CB          1.3387  -16.1754  -45.0121 C.3       8 UNK        -0.1800 
     34 N           2.2581  -17.8272  -43.4498 N.am      8 UNK        -0.5000 
     35 C           2.7333  -18.9847  -42.9740 C.2       7 UNK         0.5000 
     36 O           2.6833  -20.0448  -43.5989 O.2       7 UNK        -0.5000 
     37 CA          3.3005  -18.9713  -41.5414 C.3       7 UNK         0.1400 
     38 CB          4.4925  -18.0039  -41.3999 C.3       7 UNK        -0.1800 
     39 N           2.2771  -18.7298  -40.5124 N.am      7 UNK        -0.5000 
     40 C           1.5263  -17.6340  -40.3248 C.2       6 UNK         0.5000 
     41 O           1.6223  -16.6169  -41.0138 O.2       6 UNK        -0.5000 
     42 CA          0.4974  -17.7152  -39.1769 C.3       6 UNK         0.1400 
     43 CB          1.1228  -17.2979  -37.8315 C.3       6 UNK        -0.1800 
     44 N          -0.7409  -16.9763  -39.4612 N.am      6 UNK        -0.5000 
     45 C          -0.9232  -15.6509  -39.5537 C.2       5 UNK         0.5000 
     46 O          -0.0811  -14.7974  -39.2639 O.2       5 UNK        -0.5000 
     47 CA         -2.3058  -15.1960  -40.0575 C.3       5 UNK         0.1400 
     48 CB         -3.1235  -14.5580  -38.9235 C.3       5 UNK        -0.1800 
     49 N          -2.1605  -14.2351  -41.1499 N.am      5 UNK        -0.5000 
     50 C          -1.7173  -14.5488  -42.3736 C.2       4 UNK         0.5000 
     51 O          -1.4910  -15.7022  -42.7454 O.2       4 UNK        -0.5000 
     52 CA         -1.4428  -13.3654  -43.3176 C.3       4 UNK         0.1400 
     53 CB         -0.0601  -12.7589  -43.0278 C.3       4 UNK        -0.1800 
     54 N          -1.4864  -13.7604  -44.7237 N.am      4 UNK        -0.5000 
     55 C          -2.6001  -13.9773  -45.4351 C.2       3 UNK         0.5000 
     56 O          -3.7330  -13.8824  -44.9596 O.2       3 UNK        -0.5000 
     57 CA         -2.4197  -14.3542  -46.9272 C.3       3 UNK         0.1400 
     58 CB         -3.5473  -13.7895  -47.8169 C.3       3 UNK        -0.1800 
     59 N          -1.1078  -14.0069  -47.4946 N.am      3 UNK        -0.5000 
     60 C          -0.5521  -12.7867  -47.5804 C.2       2 UNK         0.5000 
     61 O          -1.0861  -11.7528  -47.1784 O.2       2 UNK        -0.5000 
     62 CA          0.8577  -12.7089  -48.1935 C.3       2 UNK         0.1400 
     63 CB          1.9237  -12.7492  -47.0876 C.3       2 UNK        -0.1800 
     64 N           1.1318  -13.7732  -49.1607 N.am      2 UNK        -0.5000 
     65 C           0.6187  -13.8106  -50.3986 C.2       1 UNK         0.5000 
     66 O          -0.1652  -12.9704  -50.8413 O.2       1 UNK        -0.5000 
     67 C           0.4514  -21.9943  -47.7995 C.2       11 UNK         0.5000 
     68 O           0.4501  -22.7228  -48.7915 O.2       11 UNK        -0.5000 
     69 N          -0.5886  -21.2267  -47.4423 N.am      12 UNK        -0.5000 
     70 CA         -1.8931  -21.2205  -48.0992 C.3       12 UNK         0.1400 
     71 CB         -2.7377  -20.0489  -47.5779 C.3       12 UNK        -0.1800 
     72 C          -2.6446  -22.5482  -47.9141 C.2       12 UNK         0.5000 
     73 O          -3.1924  -23.0624  -48.8862 O.2       12 UNK        -0.5000 
     74 N          -2.6443  -23.1026  -46.6917 N.am      13 UNK        -0.5000 
     75 CA         -3.2550  -24.3960  -46.3591 C.3       13 UNK         0.1400 
     76 CB         -3.1652  -24.6540  -44.8487 C.3       13 UNK        -0.1800 
     77 C          -2.6530  -25.5703  -47.1523 C.2       13 UNK         0.5000 
     78 O          -3.3972  -26.4406  -47.6051 O.2       13 UNK        -0.5000 
     79 N          -1.3309  -25.5338  -47.3694 N.am      14 UNK        -0.5000 
     80 CA         -0.5958  -26.4606  -48.2343 C.3       14 UNK         0.1400 
     81 CB          0.9121  -26.2417  -48.0393 C.3       14 UNK        -0.1800 
     82 C          -0.9773  -26.3499  -49.7272 C.2       14 UNK         0.5000 
     83 O          -0.7959  -27.3166  -50.4676 O.2       14 UNK        -0.5000 
     84 N          -1.5319  -25.2004  -50.1332 N.am      15 UNK        -0.5000 
     85 CA         -2.0807  -24.9240  -51.4602 C.3       15 UNK         0.1400 
     86 CB         -1.5643  -23.5545  -51.9344 C.3       15 UNK        -0.1800 
     87 C          -3.6234  -25.0016  -51.4469 C.2       15 UNK         0.5000 
     88 O          -4.2867  -24.2311  -52.1416 O.2       15 UNK        -0.5000 
     89 N          -4.1701  -25.9274  -50.6437 N.am      16 UNK        -0.5000 
     90 CA         -5.5934  -26.2571  -50.4952 C.3       16 UNK         0.1400 
     91 CB         -6.1605  -26.8328  -51.8103 C.3       16 UNK        -0.1800 
     92 C          -6.4542  -25.1098  -49.9221 C.2       16 UNK         0.5000 
     93 O          -7.6440  -25.0231  -50.2294 O.2       16 UNK        -0.5000 
     94 N          -5.8366  -24.2600  -49.0892 N.am      17 UNK        -0.5000 
     95 CA         -6.4097  -23.0981  -48.3967 C.3       17 UNK         0.1400 
     96 CB         -7.5854  -23.5016  -47.4827 C.3       17 UNK        -0.1800 
     97 C          -6.7479  -21.9165  -49.3272 C.2       17 UNK         0.5000 
     98 O          -7.4488  -20.9936  -48.9075 O.2       17 UNK        -0.5000 
     99 N          -6.2195  -21.9299  -50.5575 N.am      18 UNK        -0.5000 
    100 CA        -6.3532  -20.8533  -51.5328 C.3       18 UNK         0.1400 
    101 CB        -6.2265  -21.4439  -52.9484 C.3       18 UNK        -0.1800 
    102 C         -5.3060  -19.7608  -51.2552 C.2       18 UNK         0.5000 
    103 O         -4.3128  -19.6647  -51.9735 O.2       18 UNK        -0.5000 
    104 N         -5.5248  -18.9646  -50.2018 N.am      19 UNK        -0.5000 
    105 CA        -4.6732  -17.8305  -49.8333 C.3       19 UNK         0.1400 
    106 CB        -5.1915  -17.2188  -48.5249 C.3       19 UNK        -0.1800 
    107 C         -4.6011  -16.7743  -50.9538 C.2       19 UNK         0.5000 
    108 O         -5.5998  -16.5427  -51.6403 O.2       19 UNK        -0.5000 
    109 N         -3.4113  -16.1908  -51.1411 N.am      20 UNK        -0.5000 
    110 CA        -2.9916  -15.2730  -52.2064 C.3       20 UNK         0.1400 
    111 CB        -3.8347  -13.9836  -52.2212 C.3       20 UNK        -0.1800 
    112 C         -2.9135  -15.9134  -53.6087 C.2       20 UNK         0.5000 
    113 O         -1.9416  -15.6705  -54.3246 O.2       20 UNK        -0.5000 
    114 N         -3.9319  -16.6944  -53.9868 N.am      21 UNK        -0.5000 
    115 CA        -4.0775  -17.3078  -55.3054 C.3       21 UNK         0.1400 
    116 CB        -5.5590  -17.6478  -55.5342 C.3       21 UNK        -0.1800 
    117 C         -3.2019  -18.5582  -55.5033 C.2       21 UNK         0.5000 
    118 O         -2.5847  -18.7007  -56.5594 O.2       21 UNK        -0.5000 
    119 N         -3.1944  -19.4508  -54.5047 N.am      22 UNK        -0.5000 
    120 CA        -2.5345  -20.7700  -54.4991 C.3       22 UNK         0.1400 
    121 C         -3.0782  -21.7841  -55.5550 C.2       22 UNK         0.5000 
    122 N         -4.2690  -21.5890  -56.1089 N.am      22 UNK        -0.7600 
    123 O         -2.4291  -22.7805  -55.8619 O.2       22 UNK        -0.5000 
    124 C124       -0.9855  -20.6748  -54.4938 C.3       23 UNK        -0.0398 
    125 S125       -0.3448  -19.7865  -53.0332 S.3       23 UNK        -0.2404 
    126 C126        1.1912  -20.7178  -52.7240 C.3       23 UNK        -0.0205 
    127 H127       -0.0443  -18.2982  -48.3284 H         1 UNK         0.0600 
    128 H128        1.5392  -18.3046  -49.0949 H         1 UNK         0.0600 
    129 H129        0.1465  -19.0149  -49.9311 H         1 UNK         0.0600 
    130 H130        2.0145  -16.7698  -50.7278 H         1 UNK         0.3000 
    131 H131        0.3240  -15.0799  -52.0889 H         1 UNK         0.0600 
    132 H132        2.4130  -13.5554  -52.2981 H         1 UNK         0.0800 
    133 H133        3.2435  -14.6754  -51.2576 H         1 UNK         0.0800 
    134 H134        4.7109  -16.9719  -53.8015 H         1 UNK         0.0800 
    135 H135        4.8638  -16.0662  -52.3190 H         1 UNK         0.0800 
    136 H136        2.2813  -18.4466  -53.7038 H         1 UNK         0.1150 
    137 H137        2.4834  -21.0950  -50.3622 H         1 UNK         0.1150 
    138 H138        5.0094  -17.6191  -50.5088 H         1 UNK         0.1150 
    139 H139        5.6057  -19.8009  -49.1595 H         1 UNK         0.0800 
    140 H140        4.3892  -18.9460  -48.2481 H         1 UNK         0.0800 
    141 H141        2.1387  -19.9708  -47.6117 H         1 UNK         0.0800 
    142 H142        3.0871  -20.4320  -46.2368 H         1 UNK         0.0800 
    143 H143        2.1974  -22.9313  -47.0116 H         1 UNK         0.0600 
    144 H144        1.5266  -21.1795  -44.8930 H         1 UNK         0.3000 
    145 H145       -0.6588  -23.3939  -43.1584 H         1 UNK         0.0600 
    146 H146        0.9998  -22.9219  -41.3698 H         1 UNK         0.0600 
    147 H147        1.6254  -24.1035  -42.5089 H         1 UNK         0.0600 
    148 H148        2.1956  -22.4426  -42.5734 H         1 UNK         0.0600 
    149 H149        0.3811  -20.7289  -42.7117 H         1 UNK         0.3000 
    150 H150       -2.3940  -19.0217  -44.1928 H         1 UNK         0.0600 
    151 H151       -3.1362  -19.6932  -41.8912 H         1 UNK         0.0600 
    152 H152       -2.5195  -18.0516  -41.9262 H         1 UNK         0.0600 
    153 H153       -1.5249  -19.3551  -41.2703 H         1 UNK         0.0600 
    154 H154       -0.1523  -17.9770  -42.8501 H         1 UNK         0.3000 
    155 H155        2.2148  -18.0647  -45.5135 H         1 UNK         0.0600 
    156 H156        2.2854  -15.6384  -45.0691 H         1 UNK         0.0600 
    157 H157        0.8207  -16.0316  -45.9612 H         1 UNK         0.0600 
    158 H158        0.7376  -15.7108  -44.2316 H         1 UNK         0.0600 
    159 H159        2.2389  -17.0382  -42.8099 H         1 UNK         0.3000 
    160 H160        3.6811  -19.9764  -41.3519 H         1 UNK         0.0600 
    161 H161        4.2062  -16.9636  -41.5553 H         1 UNK         0.0600 
    162 H162        5.2704  -18.2383  -42.1276 H         1 UNK         0.0600 
    163 H163        4.9418  -18.0798  -40.4098 H         1 UNK         0.0600 
    164 H164        2.1188  -19.5135  -39.8941 H         1 UNK         0.3000 
    165 H165        0.1919  -18.7589  -39.0860 H         1 UNK         0.0600 
    166 H166        0.3892  -17.3335  -37.0260 H         1 UNK         0.0600 
    167 H167        1.9378  -17.9690  -37.5584 H         1 UNK         0.0600 
    168 H168        1.5365  -16.2899  -37.8663 H         1 UNK         0.0600 
    169 H169       -1.5229  -17.5620  -39.7154 H         1 UNK         0.3000 
    170 H170       -2.8591  -16.0601  -40.4311 H         1 UNK         0.0600 
    171 H171       -2.6313  -13.6724  -38.5194 H         1 UNK         0.0600 
    172 H172       -4.1146  -14.2634  -39.2689 H         1 UNK         0.0600 
    173 H173       -3.2615  -15.2606  -38.1007 H         1 UNK         0.0600 
    174 H174       -2.2808  -13.2628  -40.9064 H         1 UNK         0.3000 
    175 H175       -2.2028  -12.5997  -43.1479 H         1 UNK         0.0600 
    176 H176        0.1415  -11.9068  -43.6774 H         1 UNK         0.0600 
    177 H177        0.7392  -13.4871  -43.1712 H         1 UNK         0.0600 
    178 H178        0.0048  -12.4040  -41.9984 H         1 UNK         0.0600 
    179 H179       -0.5989  -13.8861  -45.1833 H         1 UNK         0.3000 
    180 H180       -2.4835  -15.4426  -46.9664 H         1 UNK         0.0600 
    181 H181       -3.5591  -12.6995  -47.8126 H         1 UNK         0.0600 
    182 H182       -4.5278  -14.1249  -47.4777 H         1 UNK         0.0600 
    183 H183       -3.4318  -14.1192  -48.8494 H         1 UNK         0.0600 
    184 H184       -0.6027  -14.7774  -47.9106 H         1 UNK         0.3000 
    185 H185        0.9395  -11.7476  -48.7057 H         1 UNK         0.0600 
    186 H186        2.9229  -12.6022  -47.4981 H         1 UNK         0.0600 
    187 H187        1.7568  -11.9597  -46.3534 H         1 UNK         0.0600 
    188 H188        1.9169  -13.6992  -46.5543 H         1 UNK         0.0600 
    189 H189        1.7697  -14.5016  -48.8756 H         1 UNK         0.3000 
    190 H190       -0.4751  -20.5867  -46.6593 H         1 UNK         0.3000 
    191 H191       -1.7324  -21.0740  -49.1697 H         1 UNK         0.0600 
    192 H192       -2.2717  -19.0911  -47.8074 H         1 UNK         0.0600 
    193 H193       -3.7278  -20.0523  -48.0347 H         1 UNK         0.0600 
    194 H194       -2.8782  -20.0988  -46.4986 H         1 UNK         0.0600 
    195 H195       -2.2337  -22.5860  -45.9192 H         1 UNK         0.3000 
    196 H196       -4.3128  -24.3378  -46.6170 H         1 UNK         0.0600 
    197 H197       -3.6620  -25.5882  -44.5840 H         1 UNK         0.0600 
    198 H198       -3.6492  -23.8587  -44.2820 H         1 UNK         0.0600 
    199 H199       -2.1323  -24.7282  -44.5119 H         1 UNK         0.0600 
    200 H200       -0.7853  -24.8124  -46.9076 H         1 UNK         0.3000 
    201 H201       -0.8355  -27.4759  -47.9121 H         1 UNK         0.0600 
    202 H202        1.1992  -26.3788  -46.9966 H         1 UNK         0.0600 
    203 H203        1.2159  -25.2391  -48.3401 H         1 UNK         0.0600 
    204 H204        1.4903  -26.9514  -48.6324 H         1 UNK         0.0600 
    205 H205       -1.6790  -24.4683  -49.4490 H         1 UNK         0.3000 
    206 H206       -1.7324  -25.6741  -52.1725 H         1 UNK         0.0600 
    207 H207       -0.4762  -23.5123  -51.8965 H         1 UNK         0.0600 
    208 H208       -1.8593  -23.3671  -52.9665 H         1 UNK         0.0600 
    209 H209       -1.9525  -22.7384  -51.3237 H         1 UNK         0.0600 
    210 H210       -3.5435  -26.4660  -50.0608 H         1 UNK         0.3000 
    211 H211       -5.6343  -27.0522  -49.7495 H         1 UNK         0.0600 
    212 H212       -6.2199  -26.0748  -52.5919 H         1 UNK         0.0600 
    213 H213       -7.1658  -27.2293  -51.6638 H         1 UNK         0.0600 
    214 H214       -5.5431  -27.6507  -52.1817 H         1 UNK         0.0600 
    215 H215       -4.8328  -24.3578  -48.9858 H         1 UNK         0.3000 
    216 H216       -5.6242  -22.7217  -47.7427 H         1 UNK         0.0600 
    217 H217       -7.8793  -22.6732  -46.8372 H         1 UNK         0.0600 
    218 H218       -7.3133  -24.3344  -46.8342 H         1 UNK         0.0600 
    219 H219       -8.4664  -23.7927  -48.0547 H         1 UNK         0.0600 
    220 H220       -5.6205  -22.7026  -50.8203 H         1 UNK         0.3000 
    221 H221       -7.3439  -20.4014  -51.4501 H         1 UNK         0.0600 
    222 H222       -5.2571  -21.9173  -53.1054 H         1 UNK         0.0600 
    223 H223       -6.9953  -22.1945  -53.1321 H         1 UNK         0.0600 
    224 H224       -6.3399  -20.6684  -53.7063 H         1 UNK         0.0600 
    225 H225       -6.3544  -19.1209  -49.6442 H         1 UNK         0.3000 
    226 H226       -3.6662  -18.2160  -49.6641 H         1 UNK         0.0600 
    227 H227       -5.2530  -17.9660  -47.7335 H         1 UNK         0.0600 
    228 H228       -4.5215  -16.4354  -48.1750 H         1 UNK         0.0600 
    229 H229       -6.1814  -16.7782  -48.6503 H         1 UNK         0.0600 
    230 H230       -2.6456  -16.4461  -50.5202 H         1 UNK         0.3000 
    231 H231       -1.9761  -14.9802  -51.9436 H         1 UNK         0.0600 
    232 H232       -4.8703  -14.1710  -52.5046 H         1 UNK         0.0600 
    233 H233       -3.4287  -13.2665  -52.9356 H         1 UNK         0.0600 
    234 H234       -3.8342  -13.5014  -51.2439 H         1 UNK         0.0600 
    235 H235       -4.6896  -16.8261  -53.3235 H         1 UNK         0.3000 
    236 H236       -3.7829  -16.5751  -56.0599 H         1 UNK         0.0600 
    237 H237       -6.1771  -16.7504  -55.5012 H         1 UNK         0.0600 
    238 H238       -5.7094  -18.1090  -56.5112 H         1 UNK         0.0600 
    239 H239       -5.9358  -18.3396  -54.7799 H         1 UNK         0.0600 
    240 H240       -3.7048  -19.2485  -53.6482 H         1 UNK         0.3000 
    241 H241       -2.8201  -21.2187  -53.5478 H         1 UNK         0.0600 
    242 H242       -4.8211  -20.7833  -55.8679 H         1 UNK         0.3800 
    243 H243       -4.6158  -22.2542  -56.7819 H         1 UNK         0.3800 
    244 H244       -0.5496  -21.6749  -54.4981 H         1 UNK         0.0800 
    245 H245       -0.6229  -20.1810  -55.3959 H         1 UNK         0.0800 
    246 H246        1.5911  -21.1032  -53.6628 H         1 UNK         0.0800 
    247 H247        0.9626  -21.5826  -52.0999 H         1 UNK         0.0800 
@<TRIPOS>BOND
     1    1    2 1    
     2    1  127 1    
     3    1  128 1    
     4    1  129 1    
     5    2    3 2    
     6    2    4 am   BACKBONE|DICT|INTERRES
     7    4    5 1    
     8    4  130 1    
     9    5    6 1    
    10    5   65 1    
    11    5  131 1    
    12    6    7 1    
    13    6  132 1    
    14    6  133 1    
    15    7    8 1    
    16    8    9 1    
    17    8  134 1    
    18    8  135 1    
    19    9   10 ar   
    20    9   14 ar   
    21   10   11 ar   
    22   10  136 1    
    23   11   12 ar   
    24   11  126 1    
    25   12   13 ar   
    26   12  137 1    
    27   13   14 ar   
    28   13   15 1    
    29   14  138 1    
    30   15   16 1    
    31   15  139 1    
    32   15  140 1    
    33   16   17 1    
    34   17   18 1    
    35   17  141 1    
    36   17  142 1    
    37   18   19 1    
    38   18   67 1    
    39   18  143 1    
    40   19   20 am   BACKBONE|DICT|INTERRES
    41   19  144 1    
    42   20   21 2    
    43   20   22 1    
    44   22   23 1    
    45   22   24 1    
    46   22  145 1    
    47   23  146 1    
    48   23  147 1    
    49   23  148 1    
    50   24   25 am   BACKBONE|DICT|INTERRES
    51   24  149 1    
    52   25   26 2    
    53   25   27 1    
    54   27   28 1    
    55   27   29 1    
    56   27  150 1    
    57   28  151 1    
    58   28  152 1    
    59   28  153 1    
    60   29   30 am   BACKBONE|DICT|INTERRES
    61   29  154 1    
    62   30   31 2    
    63   30   32 1    
    64   32   33 1    
    65   32   34 1    
    66   32  155 1    
    67   33  156 1    
    68   33  157 1    
    69   33  158 1    
    70   34   35 am   BACKBONE|DICT|INTERRES
    71   34  159 1    
    72   35   36 2    
    73   35   37 1    
    74   37   38 1    
    75   37   39 1    
    76   37  160 1    
    77   38  161 1    
    78   38  162 1    
    79   38  163 1    
    80   39   40 am   BACKBONE|DICT|INTERRES
    81   39  164 1    
    82   40   41 2    
    83   40   42 1    
    84   42   43 1    
    85   42   44 1    
    86   42  165 1    
    87   43  166 1    
    88   43  167 1    
    89   43  168 1    
    90   44   45 am   BACKBONE|DICT|INTERRES
    91   44  169 1    
    92   45   46 2    
    93   45   47 1    
    94   47   48 1    
    95   47   49 1    
    96   47  170 1    
    97   48  171 1    
    98   48  172 1    
    99   48  173 1    
   100   49   50 am   BACKBONE|DICT|INTERRES
   101   49  174 1    
   102   50   51 2    
   103   50   52 1    
   104   52   53 1    
   105   52   54 1    
   106   52  175 1    
   107   53  176 1    
   108   53  177 1    
   109   53  178 1    
   110   54   55 am   BACKBONE|DICT|INTERRES
   111   54  179 1    
   112   55   56 2    
   113   55   57 1    
   114   57   58 1    
   115   57   59 1    
   116   57  180 1    
   117   58  181 1    
   118   58  182 1    
   119   58  183 1    
   120   59   60 am   BACKBONE|DICT|INTERRES
   121   59  184 1    
   122   60   61 2    
   123   60   62 1    
   124   62   63 1    
   125   62   64 1    
   126   62  185 1    
   127   63  186 1    
   128   63  187 1    
   129   63  188 1    
   130   64   65 am   BACKBONE|DICT|INTERRES
   131   64  189 1    
   132   65   66 2    
   133   67   68 2    
   134   67   69 am   BACKBONE|DICT|INTERRES
   135   69   70 1    
   136   69  190 1    
   137   70   71 1    
   138   70   72 1    
   139   70  191 1    
   140   71  192 1    
   141   71  193 1    
   142   71  194 1    
   143   72   73 2    
   144   72   74 am   BACKBONE|DICT|INTERRES
   145   74   75 1    
   146   74  195 1    
   147   75   76 1    
   148   75   77 1    
   149   75  196 1    
   150   76  197 1    
   151   76  198 1    
   152   76  199 1    
   153   77   78 2    
   154   77   79 am   BACKBONE|DICT|INTERRES
   155   79   80 1    
   156   79  200 1    
   157   80   81 1    
   158   80   82 1    
   159   80  201 1    
   160   81  202 1    
   161   81  203 1    
   162   81  204 1    
   163   82   83 2    
   164   82   84 am   BACKBONE|DICT|INTERRES
   165   84   85 1    
   166   84  205 1    
   167   85   86 1    
   168   85   87 1    
   169   85  206 1    
   170   86  207 1    
   171   86  208 1    
   172   86  209 1    
   173   87   88 2    
   174   87   89 am   BACKBONE|DICT|INTERRES
   175   89   90 1    
   176   89  210 1    
   177   90   91 1    
   178   90   92 1    
   179   90  211 1    
   180   91  212 1    
   181   91  213 1    
   182   91  214 1    
   183   92   93 2    
   184   92   94 am   BACKBONE|DICT|INTERRES
   185   94   95 1    
   186   94  215 1    
   187   95   96 1    
   188   95   97 1    
   189   95  216 1    
   190   96  217 1    
   191   96  218 1    
   192   96  219 1    
   193   97   98 2    
   194   97   99 am   BACKBONE|DICT|INTERRES
   195   99  100 1    
   196   99  220 1    
   197  100  101 1    
   198  100  102 1    
   199  100  221 1    
   200  101  222 1    
   201  101  223 1    
   202  101  224 1    
   203  102  103 2    
   204  102  104 am   BACKBONE|DICT|INTERRES
   205  104  105 1    
   206  104  225 1    
   207  105  106 1    
   208  105  107 1    
   209  105  226 1    
   210  106  227 1    
   211  106  228 1    
   212  106  229 1    
   213  107  108 2    
   214  107  109 am   BACKBONE|DICT|INTERRES
   215  109  110 1    
   216  109  230 1    
   217  110  111 1    
   218  110  112 1    
   219  110  231 1    
   220  111  232 1    
   221  111  233 1    
   222  111  234 1    
   223  112  113 2    
   224  112  114 am   BACKBONE|DICT|INTERRES
   225  114  115 1    
   226  114  235 1    
   227  115  116 1    
   228  115  117 1    
   229  115  236 1    
   230  116  237 1    
   231  116  238 1    
   232  116  239 1    
   233  117  118 2    
   234  117  119 am   BACKBONE|DICT|INTERRES
   235  119  120 1    
   236  119  240 1    
   237  120  121 1    
   238  120  124 1    
   239  120  241 1    
   240  121  122 am   BACKBONE|DICT|INTERRES
   241  121  123 2    
   242  122  242 1    
   243  122  243 1    
   244  124  125 1    
   245  124  244 1    
   246  124  245 1    
   247  125  126 1    
   248  126  246 1    
   249  126  247 1    
@<TRIPOS>SUBSTRUCTURE
     1 UNK         1 GROUP             0       ****    0 ROOT    
