@<TRIPOS>MOLECULE
3R540
247   249    1
SMALL
USER_CHARGES


@<TRIPOS>ATOM
      1 CA          1.4545  -15.1890  -48.9206 C.3       0 UNK        -0.1800 
      2 C           0.6325  -14.2374  -48.0634 C.2       0 UNK         0.5000 
      3 O           0.7054  -14.2946  -46.8361 O.2       0 UNK        -0.5000 
      4 N          -0.1182  -13.3261  -48.6967 N.am      1 UNK        -0.5000 
      5 CA         -0.9455  -12.2932  -48.0520 C.3       1 UNK         0.1400 
      6 C6         -2.1226  -11.8447  -48.9603 C.3       23 UNK        -0.0398 
      7 S7         -3.3977  -13.1430  -49.1100 S.3       23 UNK        -0.2404 
      8 C8         -3.0156  -13.9064  -50.7174 C.3       23 UNK        -0.0205 
      9 C9         -3.1900  -15.4141  -50.6351 C.ar      23 UNK        -0.0193 
     10 C10        -4.3966  -16.0207  -51.0019 C.ar      23 UNK        -0.1150 
     11 C11        -4.5581  -17.4053  -50.8770 C.ar      23 UNK        -0.0193 
     12 C12        -3.5073  -18.1762  -50.3730 C.ar      23 UNK        -0.1150 
     13 C13        -2.2915  -17.5847  -50.0278 C.ar      23 UNK        -0.0193 
     14 C14        -2.1382  -16.2046  -50.1661 C.ar      23 UNK        -0.1150 
     15 C15        -1.1399  -18.4350  -49.5180 C.3       23 UNK        -0.0205 
     16 S16        -0.7976  -18.1453  -47.7557 S.3       23 UNK        -0.2404 
     17 C17        -2.2422  -18.9058  -46.9420 C.3       23 UNK        -0.0398 
     18 CA         -2.0723  -20.4287  -46.7400 C.3       11 UNK         0.1400 
     19 N          -0.8944  -20.7720  -45.9321 N.am      11 UNK        -0.5000 
     20 C          -0.3606  -21.9982  -45.8426 C.2       10 UNK         0.5000 
     21 O          -0.8011  -22.9782  -46.4442 O.2       10 UNK        -0.5000 
     22 CA          0.8467  -22.1700  -44.9055 C.3       10 UNK         0.1400 
     23 CB          2.1436  -21.7036  -45.5837 C.3       10 UNK        -0.1800 
     24 N           0.6614  -21.4646  -43.6377 N.am      10 UNK        -0.5000 
     25 C          -0.1958  -21.8535  -42.6831 C.2       9 UNK         0.5000 
     26 O          -0.8750  -22.8775  -42.7542 O.2       9 UNK        -0.5000 
     27 CA         -0.3426  -20.9378  -41.4528 C.3       9 UNK         0.1400 
     28 CB          0.7262  -21.2722  -40.4019 C.3       9 UNK        -0.1800 
     29 N          -0.2779  -19.5123  -41.7790 N.am      9 UNK        -0.5000 
     30 C          -1.1585  -18.8691  -42.5592 C.2       8 UNK         0.5000 
     31 O          -2.1465  -19.4044  -43.0596 O.2       8 UNK        -0.5000 
     32 CA         -0.8529  -17.3970  -42.8899 C.3       8 UNK         0.1400 
     33 CB         -1.2920  -16.4738  -41.7440 C.3       8 UNK        -0.1800 
     34 N           0.5577  -17.1604  -43.1977 N.am      8 UNK        -0.5000 
     35 C           1.2384  -17.7662  -44.1812 C.2       7 UNK         0.5000 
     36 O           0.7487  -18.6045  -44.9346 O.2       7 UNK        -0.5000 
     37 CA          2.7356  -17.4401  -44.2888 C.3       7 UNK         0.1400 
     38 CB          2.9658  -16.0584  -44.9187 C.3       7 UNK        -0.1800 
     39 N           3.3826  -17.5089  -42.9803 N.am      7 UNK        -0.5000 
     40 C           3.6086  -18.6505  -42.3143 C.2       6 UNK         0.5000 
     41 O           3.3454  -19.7681  -42.7593 O.2       6 UNK        -0.5000 
     42 CA          4.1997  -18.5159  -40.8992 C.3       6 UNK         0.1400 
     43 CB          5.7314  -18.4177  -40.9589 C.3       6 UNK        -0.1800 
     44 N           3.6682  -17.3619  -40.1714 N.am      6 UNK        -0.5000 
     45 C           2.3967  -17.2477  -39.7632 C.2       5 UNK         0.5000 
     46 O           1.5375  -18.1088  -39.9494 O.2       5 UNK        -0.5000 
     47 CA          2.0119  -15.9293  -39.0678 C.3       5 UNK         0.1400 
     48 CB          2.3788  -15.9768  -37.5770 C.3       5 UNK        -0.1800 
     49 N           2.6142  -14.7411  -39.6815 N.am      5 UNK        -0.5000 
     50 C           2.3971  -14.3485  -40.9430 C.2       4 UNK         0.5000 
     51 O           1.7361  -14.9965  -41.7575 O.2       4 UNK        -0.5000 
     52 CA          3.0451  -13.0269  -41.3852 C.3       4 UNK         0.1400 
     53 CB          4.3319  -13.2968  -42.1801 C.3       4 UNK        -0.1800 
     54 N           2.1135  -12.2776  -42.2248 N.am      4 UNK        -0.5000 
     55 C           1.0666  -11.5791  -41.7650 C.2       3 UNK         0.5000 
     56 O           0.8592  -11.3858  -40.5656 O.2       3 UNK        -0.5000 
     57 CA          0.0648  -11.0391  -42.8102 C.3       3 UNK         0.1400 
     58 CB         -0.5237   -9.6668  -42.4197 C.3       3 UNK        -0.1800 
     59 N           0.5780  -11.0313  -44.1870 N.am      3 UNK        -0.5000 
     60 C           1.5501  -10.2623  -44.7045 C.2       2 UNK         0.5000 
     61 O           2.1591   -9.4027  -44.0674 O.2       2 UNK        -0.5000 
     62 CA          1.9291  -10.5148  -46.1780 C.3       2 UNK         0.1400 
     63 CB          3.3467  -11.1036  -46.2707 C.3       2 UNK        -0.1800 
     64 N           1.0064  -11.4404  -46.8365 N.am      2 UNK        -0.5000 
     65 C          -0.0846  -11.1103  -47.5380 C.2       1 UNK         0.5000 
     66 O          -0.4112   -9.9456  -47.7716 O.2       1 UNK        -0.5000 
     67 C          -3.3662  -21.0610  -46.1910 C.2       11 UNK         0.5000 
     68 O          -4.2475  -21.4036  -46.9762 O.2       11 UNK        -0.5000 
     69 N          -3.4480  -21.2522  -44.8674 N.am      12 UNK        -0.5000 
     70 CA         -4.5066  -22.0182  -44.2050 C.3       12 UNK         0.1400 
     71 CB         -4.4609  -21.7334  -42.6956 C.3       12 UNK        -0.1800 
     72 C          -4.4172  -23.5365  -44.4725 C.2       12 UNK         0.5000 
     73 O          -5.4029  -24.2434  -44.2567 O.2       12 UNK        -0.5000 
     74 N          -3.2486  -24.0054  -44.9265 N.am      13 UNK        -0.5000 
     75 CA         -2.9649  -25.3803  -45.3119 C.3       13 UNK         0.1400 
     76 CB         -1.6739  -25.8340  -44.5991 C.3       13 UNK        -0.1800 
     77 C          -2.9081  -25.4812  -46.8510 C.2       13 UNK         0.5000 
     78 O          -3.8218  -25.0084  -47.5304 O.2       13 UNK        -0.5000 
     79 N          -1.8631  -26.1292  -47.3803 N.am      14 UNK        -0.5000 
     80 CA         -1.7336  -26.5051  -48.7871 C.3       14 UNK         0.1400 
     81 CB         -0.6267  -27.5625  -48.9157 C.3       14 UNK        -0.1800 
     82 C          -1.4636  -25.3422  -49.7580 C.2       14 UNK         0.5000 
     83 O          -1.7542  -25.4953  -50.9448 O.2       14 UNK        -0.5000 
     84 N          -0.9154  -24.2138  -49.2810 N.am      15 UNK        -0.5000 
     85 CA         -0.4488  -23.1196  -50.1455 C.3       15 UNK         0.1400 
     86 CB          0.5251  -22.2114  -49.3789 C.3       15 UNK        -0.1800 
     87 C          -1.5724  -22.3015  -50.8139 C.2       15 UNK         0.5000 
     88 O          -1.2767  -21.4977  -51.6953 O.2       15 UNK        -0.5000 
     89 N          -2.8319  -22.5132  -50.4080 N.am      16 UNK        -0.5000 
     90 CA         -4.0057  -22.0061  -51.1202 C.3       16 UNK         0.1400 
     91 CB         -5.1989  -21.9288  -50.1581 C.3       16 UNK        -0.1800 
     92 C          -4.3580  -22.8533  -52.3539 C.2       16 UNK         0.5000 
     93 O          -4.8844  -22.3096  -53.3234 O.2       16 UNK        -0.5000 
     94 N          -4.0668  -24.1588  -52.3073 N.am      17 UNK        -0.5000 
     95 CA         -4.3002  -25.0851  -53.4111 C.3       17 UNK         0.1400 
     96 CB         -4.5982  -26.4858  -52.8518 C.3       17 UNK        -0.1800 
     97 C          -3.0907  -25.1098  -54.3554 C.2       17 UNK         0.5000 
     98 O          -3.2542  -24.9321  -55.5628 O.2       17 UNK        -0.5000 
     99 N          -1.8981  -25.3159  -53.7823 N.am      18 UNK        -0.5000 
    100 CA        -0.6257  -25.3708  -54.4930 C.3       18 UNK         0.1400 
    101 CB         0.4502  -25.9404  -53.5548 C.3       18 UNK        -0.1800 
    102 C         -0.2249  -23.9814  -55.0136 C.2       18 UNK         0.5000 
    103 O         -0.0762  -23.0552  -54.2159 O.2       18 UNK        -0.5000 
    104 N         -0.0641  -23.8696  -56.3382 N.am      19 UNK        -0.5000 
    105 CA         0.3445  -22.6972  -57.1244 C.3       19 UNK         0.1400 
    106 CB         1.7515  -22.2137  -56.7228 C.3       19 UNK        -0.1800 
    107 C         -0.6606  -21.5268  -57.1388 C.2       19 UNK         0.5000 
    108 O         -0.9130  -20.9752  -58.2107 O.2       19 UNK        -0.5000 
    109 N         -1.2084  -21.1576  -55.9739 N.am      20 UNK        -0.5000 
    110 CA        -2.1561  -20.0534  -55.8109 C.3       20 UNK         0.1400 
    111 CB        -2.3049  -19.7186  -54.3202 C.3       20 UNK        -0.1800 
    112 C         -3.5278  -20.3438  -56.4466 C.2       20 UNK         0.5000 
    113 O         -4.0967  -19.4526  -57.0786 O.2       20 UNK        -0.5000 
    114 N         -4.0078  -21.5877  -56.2851 N.am      21 UNK        -0.5000 
    115 CA        -5.2695  -22.1317  -56.8018 C.3       21 UNK         0.1400 
    116 CB        -5.1576  -22.3665  -58.3220 C.3       21 UNK        -0.1800 
    117 C         -6.5049  -21.2904  -56.4072 C.2       21 UNK         0.5000 
    118 O         -7.3297  -20.9536  -57.2601 O.2       21 UNK        -0.5000 
    119 N         -6.5850  -20.9400  -55.1191 N.am      22 UNK        -0.5000 
    120 CA        -7.6502  -20.1244  -54.5188 C.3       22 UNK         0.1400 
    121 C         -9.0368  -20.8265  -54.5486 C.2       22 UNK         0.5000 
    122 N        -10.1127  -20.0783  -54.7527 N.am      22 UNK        -0.7600 
    123 O         -9.1520  -22.0333  -54.3441 O.2       22 UNK        -0.5000 
    124 C124       -7.2955  -19.7030  -53.0702 C.3       23 UNK        -0.0398 
    125 S125       -5.7408  -18.7547  -52.9669 S.3       23 UNK        -0.2404 
    126 C126       -5.8599  -18.0782  -51.2831 C.3       23 UNK        -0.0205 
    127 H127        1.2155  -15.0918  -49.9798 H         1 UNK         0.0600 
    128 H128        1.2704  -16.2204  -48.6231 H         1 UNK         0.0600 
    129 H129        2.5168  -14.9841  -48.7899 H         1 UNK         0.0600 
    130 H130       -0.0953  -13.2920  -49.7051 H         1 UNK         0.3000 
    131 H131       -1.3876  -12.7310  -47.1540 H         1 UNK         0.0600 
    132 H132       -1.7691  -11.5341  -49.9446 H         1 UNK         0.0800 
    133 H133       -2.6296  -10.9766  -48.5355 H         1 UNK         0.0800 
    134 H134       -3.6676  -13.4842  -51.4835 H         1 UNK         0.0800 
    135 H135       -1.9939  -13.6748  -51.0203 H         1 UNK         0.0800 
    136 H136       -5.2106  -15.4156  -51.3754 H         1 UNK         0.1150 
    137 H137       -3.6322  -19.2400  -50.2530 H         1 UNK         0.1150 
    138 H138       -1.2038  -15.7437  -49.8858 H         1 UNK         0.1150 
    139 H139       -1.3338  -19.4949  -49.6827 H         1 UNK         0.0800 
    140 H140       -0.2434  -18.1988  -50.0926 H         1 UNK         0.0800 
    141 H141       -3.1356  -18.6859  -47.5286 H         1 UNK         0.0800 
    142 H142       -2.3820  -18.4122  -45.9788 H         1 UNK         0.0800 
    143 H143       -1.9291  -20.8704  -47.7271 H         1 UNK         0.0600 
    144 H144       -0.4280  -20.0003  -45.4600 H         1 UNK         0.3000 
    145 H145        0.9495  -23.2355  -44.6892 H         1 UNK         0.0600 
    146 H146        3.0041  -21.8501  -44.9306 H         1 UNK         0.0600 
    147 H147        2.3280  -22.2688  -46.4979 H         1 UNK         0.0600 
    148 H148        2.1070  -20.6488  -45.8550 H         1 UNK         0.0600 
    149 H149        1.1810  -20.6053  -43.5124 H         1 UNK         0.3000 
    150 H150       -1.3232  -21.1325  -41.0136 H         1 UNK         0.0600 
    151 H151        0.6988  -22.3301  -40.1376 H         1 UNK         0.0600 
    152 H152        0.5679  -20.7045  -39.4849 H         1 UNK         0.0600 
    153 H153        1.7301  -21.0486  -40.7648 H         1 UNK         0.0600 
    154 H154        0.4834  -18.9850  -41.3614 H         1 UNK         0.3000 
    155 H155       -1.4282  -17.1327  -43.7796 H         1 UNK         0.0600 
    156 H156       -0.7330  -16.6744  -40.8299 H         1 UNK         0.0600 
    157 H157       -2.3508  -16.6072  -41.5187 H         1 UNK         0.0600 
    158 H158       -1.1428  -15.4254  -42.0033 H         1 UNK         0.0600 
    159 H159        1.0355  -16.4653  -42.6282 H         1 UNK         0.3000 
    160 H160        3.1975  -18.1864  -44.9389 H         1 UNK         0.0600 
    161 H161        2.4694  -15.2647  -44.3598 H         1 UNK         0.0600 
    162 H162        2.5742  -16.0337  -45.9359 H         1 UNK         0.0600 
    163 H163        4.0277  -15.8193  -44.9751 H         1 UNK         0.0600 
    164 H164        3.5738  -16.6323  -42.5192 H         1 UNK         0.3000 
    165 H165        3.9367  -19.4184  -40.3432 H         1 UNK         0.0600 
    166 H166        6.1646  -18.4006  -39.9587 H         1 UNK         0.0600 
    167 H167        6.1568  -19.2756  -41.4815 H         1 UNK         0.0600 
    168 H168        6.0586  -17.5187  -41.4828 H         1 UNK         0.0600 
    169 H169        4.3070  -16.6043  -39.9803 H         1 UNK         0.3000 
    170 H170        0.9278  -15.8247  -39.1449 H         1 UNK         0.0600 
    171 H171        1.9285  -16.8439  -37.0917 H         1 UNK         0.0600 
    172 H172        3.4574  -16.0405  -37.4281 H         1 UNK         0.0600 
    173 H173        2.0188  -15.0908  -37.0537 H         1 UNK         0.0600 
    174 H174        3.1776  -14.1604  -39.0771 H         1 UNK         0.3000 
    175 H175        3.2951  -12.4312  -40.5046 H         1 UNK         0.0600 
    176 H176        5.0562  -13.8462  -41.5774 H         1 UNK         0.0600 
    177 H177        4.1388  -13.8840  -43.0783 H         1 UNK         0.0600 
    178 H178        4.8062  -12.3645  -42.4873 H         1 UNK         0.0600 
    179 H179        2.1821  -12.4291  -43.2191 H         1 UNK         0.3000 
    180 H180       -0.7611  -11.7518  -42.8120 H         1 UNK         0.0600 
    181 H181        0.2518   -8.9104  -42.2979 H         1 UNK         0.0600 
    182 H182       -1.0661   -9.7286  -41.4756 H         1 UNK         0.0600 
    183 H183       -1.2269   -9.3100  -43.1723 H         1 UNK         0.0600 
    184 H184        0.1578  -11.7110  -44.8045 H         1 UNK         0.3000 
    185 H185        1.9197   -9.5522  -46.6933 H         1 UNK         0.0600 
    186 H186        4.0805  -10.4355  -45.8178 H         1 UNK         0.0600 
    187 H187        3.4186  -12.0653  -45.7607 H         1 UNK         0.0600 
    188 H188        3.6433  -11.2527  -47.3091 H         1 UNK         0.0600 
    189 H189        1.1815  -12.4328  -46.7038 H         1 UNK         0.3000 
    190 H190       -2.7304  -20.8567  -44.2672 H         1 UNK         0.3000 
    191 H191       -5.4697  -21.6744  -44.5875 H         1 UNK         0.0600 
    192 H192       -3.5099  -22.0392  -42.2587 H         1 UNK         0.0600 
    193 H193       -5.2519  -22.2703  -42.1707 H         1 UNK         0.0600 
    194 H194       -4.5982  -20.6717  -42.4903 H         1 UNK         0.0600 
    195 H195       -2.5101  -23.3427  -45.1240 H         1 UNK         0.3000 
    196 H196       -3.7721  -26.0385  -44.9855 H         1 UNK         0.0600 
    197 H197       -1.4628  -26.8876  -44.7855 H         1 UNK         0.0600 
    198 H198       -1.7677  -25.7169  -43.5191 H         1 UNK         0.0600 
    199 H199       -0.8065  -25.2524  -44.9134 H         1 UNK         0.0600 
    200 H200       -1.1408  -26.4615  -46.7582 H         1 UNK         0.3000 
    201 H201       -2.6740  -26.9656  -49.0977 H         1 UNK         0.0600 
    202 H202       -0.8508  -28.4447  -48.3156 H         1 UNK         0.0600 
    203 H203        0.3404  -27.1732  -48.5947 H         1 UNK         0.0600 
    204 H204       -0.5195  -27.8946  -49.9495 H         1 UNK         0.0600 
    205 H205       -0.7662  -24.1096  -48.2832 H         1 UNK         0.3000 
    206 H206        0.1195  -23.5740  -50.9600 H         1 UNK         0.0600 
    207 H207        1.2897  -22.7905  -48.8613 H         1 UNK         0.0600 
    208 H208        1.0383  -21.5343  -50.0627 H         1 UNK         0.0600 
    209 H209        0.0136  -21.5918  -48.6471 H         1 UNK         0.0600 
    210 H210       -2.9950  -23.1603  -49.6491 H         1 UNK         0.3000 
    211 H211       -3.8016  -21.0020  -51.4924 H         1 UNK         0.0600 
    212 H212       -5.3550  -22.8699  -49.6291 H         1 UNK         0.0600 
    213 H213       -6.1222  -21.6926  -50.6863 H         1 UNK         0.0600 
    214 H214       -5.0488  -21.1453  -49.4171 H         1 UNK         0.0600 
    215 H215       -3.5545  -24.5224  -51.5142 H         1 UNK         0.3000 
    216 H216       -5.1726  -24.7645  -53.9852 H         1 UNK         0.0600 
    217 H217       -3.7744  -26.8706  -52.2497 H         1 UNK         0.0600 
    218 H218       -4.7751  -27.1975  -53.6592 H         1 UNK         0.0600 
    219 H219       -5.4910  -26.4757  -52.2264 H         1 UNK         0.0600 
    220 H220       -1.8504  -25.4068  -52.7699 H         1 UNK         0.3000 
    221 H221       -0.7354  -26.0553  -55.3369 H         1 UNK         0.0600 
    222 H222        0.1836  -26.9396  -53.2098 H         1 UNK         0.0600 
    223 H223        0.5920  -25.3117  -52.6750 H         1 UNK         0.0600 
    224 H224        1.4118  -26.0158  -54.0637 H         1 UNK         0.0600 
    225 H225       -0.2645  -24.6890  -56.8950 H         1 UNK         0.3000 
    226 H226        0.4116  -23.0537  -58.1536 H         1 UNK         0.0600 
    227 H227        2.4800  -23.0217  -56.7889 H         1 UNK         0.0600 
    228 H228        2.0907  -21.4156  -57.3843 H         1 UNK         0.0600 
    229 H229        1.7752  -21.8226  -55.7053 H         1 UNK         0.0600 
    230 H230       -0.9257  -21.6642  -55.1380 H         1 UNK         0.3000 
    231 H231       -1.7365  -19.1773  -56.3099 H         1 UNK         0.0600 
    232 H232       -1.3408  -19.4945  -53.8634 H         1 UNK         0.0600 
    233 H233       -2.7522  -20.5441  -53.7674 H         1 UNK         0.0600 
    234 H234       -2.9423  -18.8455  -54.1783 H         1 UNK         0.0600 
    235 H235       -3.4614  -22.2299  -55.7289 H         1 UNK         0.3000 
    236 H236       -5.4007  -23.1048  -56.3263 H         1 UNK         0.0600 
    237 H237       -6.0484  -22.8630  -58.7086 H         1 UNK         0.0600 
    238 H238       -5.0395  -21.4298  -58.8677 H         1 UNK         0.0600 
    239 H239       -4.3041  -23.0020  -58.5589 H         1 UNK         0.0600 
    240 H240       -5.8839  -21.3008  -54.4749 H         1 UNK         0.3000 
    241 H241       -7.7260  -19.2167  -55.1208 H         1 UNK         0.0600 
    242 H242      -11.0203  -20.5178  -54.7595 H         1 UNK         0.3800 
    243 H243      -10.0449  -19.0854  -54.9167 H         1 UNK         0.3800 
    244 H244       -7.2097  -20.5822  -52.4309 H         1 UNK         0.0800 
    245 H245       -8.0950  -19.0908  -52.6489 H         1 UNK         0.0800 
    246 H246       -6.6880  -17.3697  -51.2325 H         1 UNK         0.0800 
    247 H247       -6.0932  -18.8811  -50.5820 H         1 UNK         0.0800 
@<TRIPOS>BOND
     1    1    2 1    
     2    1  127 1    
     3    1  128 1    
     4    1  129 1    
     5    2    3 2    
     6    2    4 am   BACKBONE|DICT|INTERRES
     7    4    5 1    
     8    4  130 1    
     9    5    6 1    
    10    5   65 1    
    11    5  131 1    
    12    6    7 1    
    13    6  132 1    
    14    6  133 1    
    15    7    8 1    
    16    8    9 1    
    17    8  134 1    
    18    8  135 1    
    19    9   10 ar   
    20    9   14 ar   
    21   10   11 ar   
    22   10  136 1    
    23   11   12 ar   
    24   11  126 1    
    25   12   13 ar   
    26   12  137 1    
    27   13   14 ar   
    28   13   15 1    
    29   14  138 1    
    30   15   16 1    
    31   15  139 1    
    32   15  140 1    
    33   16   17 1    
    34   17   18 1    
    35   17  141 1    
    36   17  142 1    
    37   18   19 1    
    38   18   67 1    
    39   18  143 1    
    40   19   20 am   BACKBONE|DICT|INTERRES
    41   19  144 1    
    42   20   21 2    
    43   20   22 1    
    44   22   23 1    
    45   22   24 1    
    46   22  145 1    
    47   23  146 1    
    48   23  147 1    
    49   23  148 1    
    50   24   25 am   BACKBONE|DICT|INTERRES
    51   24  149 1    
    52   25   26 2    
    53   25   27 1    
    54   27   28 1    
    55   27   29 1    
    56   27  150 1    
    57   28  151 1    
    58   28  152 1    
    59   28  153 1    
    60   29   30 am   BACKBONE|DICT|INTERRES
    61   29  154 1    
    62   30   31 2    
    63   30   32 1    
    64   32   33 1    
    65   32   34 1    
    66   32  155 1    
    67   33  156 1    
    68   33  157 1    
    69   33  158 1    
    70   34   35 am   BACKBONE|DICT|INTERRES
    71   34  159 1    
    72   35   36 2    
    73   35   37 1    
    74   37   38 1    
    75   37   39 1    
    76   37  160 1    
    77   38  161 1    
    78   38  162 1    
    79   38  163 1    
    80   39   40 am   BACKBONE|DICT|INTERRES
    81   39  164 1    
    82   40   41 2    
    83   40   42 1    
    84   42   43 1    
    85   42   44 1    
    86   42  165 1    
    87   43  166 1    
    88   43  167 1    
    89   43  168 1    
    90   44   45 am   BACKBONE|DICT|INTERRES
    91   44  169 1    
    92   45   46 2    
    93   45   47 1    
    94   47   48 1    
    95   47   49 1    
    96   47  170 1    
    97   48  171 1    
    98   48  172 1    
    99   48  173 1    
   100   49   50 am   BACKBONE|DICT|INTERRES
   101   49  174 1    
   102   50   51 2    
   103   50   52 1    
   104   52   53 1    
   105   52   54 1    
   106   52  175 1    
   107   53  176 1    
   108   53  177 1    
   109   53  178 1    
   110   54   55 am   BACKBONE|DICT|INTERRES
   111   54  179 1    
   112   55   56 2    
   113   55   57 1    
   114   57   58 1    
   115   57   59 1    
   116   57  180 1    
   117   58  181 1    
   118   58  182 1    
   119   58  183 1    
   120   59   60 am   BACKBONE|DICT|INTERRES
   121   59  184 1    
   122   60   61 2    
   123   60   62 1    
   124   62   63 1    
   125   62   64 1    
   126   62  185 1    
   127   63  186 1    
   128   63  187 1    
   129   63  188 1    
   130   64   65 am   BACKBONE|DICT|INTERRES
   131   64  189 1    
   132   65   66 2    
   133   67   68 2    
   134   67   69 am   BACKBONE|DICT|INTERRES
   135   69   70 1    
   136   69  190 1    
   137   70   71 1    
   138   70   72 1    
   139   70  191 1    
   140   71  192 1    
   141   71  193 1    
   142   71  194 1    
   143   72   73 2    
   144   72   74 am   BACKBONE|DICT|INTERRES
   145   74   75 1    
   146   74  195 1    
   147   75   76 1    
   148   75   77 1    
   149   75  196 1    
   150   76  197 1    
   151   76  198 1    
   152   76  199 1    
   153   77   78 2    
   154   77   79 am   BACKBONE|DICT|INTERRES
   155   79   80 1    
   156   79  200 1    
   157   80   81 1    
   158   80   82 1    
   159   80  201 1    
   160   81  202 1    
   161   81  203 1    
   162   81  204 1    
   163   82   83 2    
   164   82   84 am   BACKBONE|DICT|INTERRES
   165   84   85 1    
   166   84  205 1    
   167   85   86 1    
   168   85   87 1    
   169   85  206 1    
   170   86  207 1    
   171   86  208 1    
   172   86  209 1    
   173   87   88 2    
   174   87   89 am   BACKBONE|DICT|INTERRES
   175   89   90 1    
   176   89  210 1    
   177   90   91 1    
   178   90   92 1    
   179   90  211 1    
   180   91  212 1    
   181   91  213 1    
   182   91  214 1    
   183   92   93 2    
   184   92   94 am   BACKBONE|DICT|INTERRES
   185   94   95 1    
   186   94  215 1    
   187   95   96 1    
   188   95   97 1    
   189   95  216 1    
   190   96  217 1    
   191   96  218 1    
   192   96  219 1    
   193   97   98 2    
   194   97   99 am   BACKBONE|DICT|INTERRES
   195   99  100 1    
   196   99  220 1    
   197  100  101 1    
   198  100  102 1    
   199  100  221 1    
   200  101  222 1    
   201  101  223 1    
   202  101  224 1    
   203  102  103 2    
   204  102  104 am   BACKBONE|DICT|INTERRES
   205  104  105 1    
   206  104  225 1    
   207  105  106 1    
   208  105  107 1    
   209  105  226 1    
   210  106  227 1    
   211  106  228 1    
   212  106  229 1    
   213  107  108 2    
   214  107  109 am   BACKBONE|DICT|INTERRES
   215  109  110 1    
   216  109  230 1    
   217  110  111 1    
   218  110  112 1    
   219  110  231 1    
   220  111  232 1    
   221  111  233 1    
   222  111  234 1    
   223  112  113 2    
   224  112  114 am   BACKBONE|DICT|INTERRES
   225  114  115 1    
   226  114  235 1    
   227  115  116 1    
   228  115  117 1    
   229  115  236 1    
   230  116  237 1    
   231  116  238 1    
   232  116  239 1    
   233  117  118 2    
   234  117  119 am   BACKBONE|DICT|INTERRES
   235  119  120 1    
   236  119  240 1    
   237  120  121 1    
   238  120  124 1    
   239  120  241 1    
   240  121  122 am   BACKBONE|DICT|INTERRES
   241  121  123 2    
   242  122  242 1    
   243  122  243 1    
   244  124  125 1    
   245  124  244 1    
   246  124  245 1    
   247  125  126 1    
   248  126  246 1    
   249  126  247 1    
@<TRIPOS>SUBSTRUCTURE
     1 UNK         1 GROUP             0       ****    0 ROOT    
