@<TRIPOS>MOLECULE
3R540
247   249    1
SMALL
USER_CHARGES


@<TRIPOS>ATOM
      1 CA         -1.2974   -9.2550  -43.2288 C.3       0 UNK        -0.1800 
      2 C          -0.5360  -10.4739  -43.7268 C.2       0 UNK         0.5000 
      3 O           0.6725  -10.3905  -43.9458 O.2       0 UNK        -0.5000 
      4 N          -1.2267  -11.6123  -43.8716 N.am      1 UNK        -0.5000 
      5 CA         -0.7541  -12.8977  -44.4213 C.3       1 UNK         0.1400 
      6 C6         -1.9541  -13.8015  -44.8221 C.3       23 UNK        -0.0398 
      7 S7         -2.9511  -13.0348  -46.1445 S.3       23 UNK        -0.2404 
      8 C8         -4.4650  -14.0544  -46.1247 C.3       23 UNK        -0.0205 
      9 C9         -4.2948  -15.4555  -46.7093 C.ar      23 UNK        -0.0193 
     10 C10        -3.5158  -15.6827  -47.8503 C.ar      23 UNK        -0.1150 
     11 C11        -3.3938  -16.9670  -48.3901 C.ar      23 UNK        -0.0193 
     12 C12        -4.0729  -18.0309  -47.7921 C.ar      23 UNK        -0.1150 
     13 C13        -4.8803  -17.8143  -46.6719 C.ar      23 UNK        -0.0193 
     14 C14        -4.9803  -16.5288  -46.1319 C.ar      23 UNK        -0.1150 
     15 C15        -5.6658  -18.9655  -46.0619 C.3       23 UNK        -0.0205 
     16 S16        -5.0031  -19.5047  -44.4525 S.3       23 UNK        -0.2404 
     17 C17        -3.2548  -19.8586  -44.8343 C.3       23 UNK        -0.0398 
     18 CA         -3.0392  -21.1217  -45.7006 C.3       11 UNK         0.1400 
     19 N          -1.7531  -21.0747  -46.4056 N.am      11 UNK        -0.5000 
     20 C          -1.3055  -21.9836  -47.2835 C.2       10 UNK         0.5000 
     21 O          -1.9473  -22.9764  -47.6236 O.2       10 UNK        -0.5000 
     22 CA          0.1121  -21.7748  -47.8379 C.3       10 UNK         0.1400 
     23 CB          0.1049  -20.7839  -49.0126 C.3       10 UNK        -0.1800 
     24 N           1.0155  -21.3043  -46.7885 N.am      10 UNK        -0.5000 
     25 C           1.5582  -22.0998  -45.8551 C.2       9 UNK         0.5000 
     26 O           1.4409  -23.3252  -45.8517 O.2       9 UNK        -0.5000 
     27 CA          2.3337  -21.4120  -44.7147 C.3       9 UNK         0.1400 
     28 CB          3.8116  -21.2390  -45.0941 C.3       9 UNK        -0.1800 
     29 N           1.7694  -20.1119  -44.3455 N.am      9 UNK        -0.5000 
     30 C           0.5720  -19.9482  -43.7610 C.2       8 UNK         0.5000 
     31 O          -0.1596  -20.8845  -43.4405 O.2       8 UNK        -0.5000 
     32 CA          0.0790  -18.5024  -43.5423 C.3       8 UNK         0.1400 
     33 CB          0.5134  -17.9973  -42.1587 C.3       8 UNK        -0.1800 
     34 N           0.5335  -17.5579  -44.5624 N.am      8 UNK        -0.5000 
     35 C           0.3926  -17.6907  -45.8879 C.2       7 UNK         0.5000 
     36 O          -0.2571  -18.5956  -46.4114 O.2       7 UNK        -0.5000 
     37 CA          1.1785  -16.7097  -46.7810 C.3       7 UNK         0.1400 
     38 CB          0.2754  -15.6196  -47.3707 C.3       7 UNK        -0.1800 
     39 N           2.3180  -16.0736  -46.1168 N.am      7 UNK        -0.5000 
     40 C           3.3988  -16.6953  -45.6299 C.2       6 UNK         0.5000 
     41 O           3.5428  -17.9188  -45.6633 O.2       6 UNK        -0.5000 
     42 CA          4.4859  -15.7949  -44.9990 C.3       6 UNK         0.1400 
     43 CB          5.7797  -16.5664  -44.6836 C.3       6 UNK        -0.1800 
     44 N           4.8195  -14.6325  -45.8306 N.am      6 UNK        -0.5000 
     45 C           4.0796  -13.5237  -45.9499 C.2       5 UNK         0.5000 
     46 O           2.9939  -13.3685  -45.3866 O.2       5 UNK        -0.5000 
     47 CA          4.6013  -12.4396  -46.9084 C.3       5 UNK         0.1400 
     48 CB          4.0582  -12.6783  -48.3257 C.3       5 UNK        -0.1800 
     49 N           4.1812  -11.1140  -46.4586 N.am      5 UNK        -0.5000 
     50 C           4.7227  -10.4623  -45.4226 C.2       4 UNK         0.5000 
     51 O           5.7353  -10.8499  -44.8368 O.2       4 UNK        -0.5000 
     52 CA          4.0188   -9.1756  -44.9488 C.3       4 UNK         0.1400 
     53 CB          2.9284   -8.6601  -45.9104 C.3       4 UNK        -0.1800 
     54 N           3.4149   -9.4296  -43.6447 N.am      4 UNK        -0.5000 
     55 C           4.0190   -9.2379  -42.4643 C.2       3 UNK         0.5000 
     56 O           5.1199   -8.7011  -42.3319 O.2       3 UNK        -0.5000 
     57 CA          3.2678   -9.7363  -41.2151 C.3       3 UNK         0.1400 
     58 CB          2.2739   -8.6721  -40.7243 C.3       3 UNK        -0.1800 
     59 N           2.5501  -10.9912  -41.4450 N.am      3 UNK        -0.5000 
     60 C           3.1303  -12.1861  -41.6413 C.2       2 UNK         0.5000 
     61 O           4.3454  -12.3751  -41.5911 O.2       2 UNK        -0.5000 
     62 CA          2.1944  -13.3621  -41.9588 C.3       2 UNK         0.1400 
     63 CB          1.6982  -14.0433  -40.6709 C.3       2 UNK        -0.1800 
     64 N           1.0728  -12.8972  -42.7679 N.am      2 UNK        -0.5000 
     65 C           0.2735  -13.6447  -43.5293 C.2       1 UNK         0.5000 
     66 O           0.3453  -14.8724  -43.5640 O.2       1 UNK        -0.5000 
     67 C          -3.2227  -22.4138  -44.8757 C.2       11 UNK         0.5000 
     68 O          -4.3039  -23.0015  -44.9010 O.2       11 UNK        -0.5000 
     69 N          -2.1436  -22.8784  -44.2299 N.am      12 UNK        -0.5000 
     70 CA         -2.0728  -24.1462  -43.4970 C.3       12 UNK         0.1400 
     71 CB         -0.7033  -24.2433  -42.8081 C.3       12 UNK        -0.1800 
     72 C          -2.3279  -25.3973  -44.3665 C.2       12 UNK         0.5000 
     73 O          -2.7502  -26.4240  -43.8339 O.2       12 UNK        -0.5000 
     74 N          -2.0921  -25.2847  -45.6801 N.am      13 UNK        -0.5000 
     75 CA         -2.3689  -26.3081  -46.6882 C.3       13 UNK         0.1400 
     76 CB         -1.1425  -26.4189  -47.6115 C.3       13 UNK        -0.1800 
     77 C          -3.6413  -25.9881  -47.5010 C.2       13 UNK         0.5000 
     78 O          -3.8860  -26.6471  -48.5125 O.2       13 UNK        -0.5000 
     79 N          -4.4070  -24.9643  -47.0889 N.am      14 UNK        -0.5000 
     80 CA         -5.5937  -24.4167  -47.7567 C.3       14 UNK         0.1400 
     81 CB         -6.7626  -25.4220  -47.6978 C.3       14 UNK        -0.1800 
     82 C          -5.2940  -23.9227  -49.1879 C.2       14 UNK         0.5000 
     83 O          -6.0783  -24.1702  -50.1040 O.2       14 UNK        -0.5000 
     84 N          -4.1306  -23.2765  -49.3607 N.am      15 UNK        -0.5000 
     85 CA         -3.5448  -22.8335  -50.6306 C.3       15 UNK         0.1400 
     86 CB         -4.3836  -21.7074  -51.2654 C.3       15 UNK        -0.1800 
     87 C          -3.2727  -24.0174  -51.5819 C.2       15 UNK         0.5000 
     88 O          -3.5635  -23.9379  -52.7785 O.2       15 UNK        -0.5000 
     89 N          -2.7458  -25.1044  -50.9964 N.am      16 UNK        -0.5000 
     90 CA         -2.5128  -26.4262  -51.5867 C.3       16 UNK         0.1400 
     91 CB         -1.4155  -26.3599  -52.6679 C.3       16 UNK        -0.1800 
     92 C          -3.8257  -27.0537  -52.0928 C.2       16 UNK         0.5000 
     93 O          -3.9125  -27.4523  -53.2531 O.2       16 UNK        -0.5000 
     94 N          -4.8483  -27.0631  -51.2245 N.am      17 UNK        -0.5000 
     95 CA         -6.2406  -27.4367  -51.5132 C.3       17 UNK         0.1400 
     96 CB         -6.3603  -28.9617  -51.7088 C.3       17 UNK        -0.1800 
     97 C          -6.8322  -26.6254  -52.6898 C.2       17 UNK         0.5000 
     98 O          -7.4733  -27.1853  -53.5806 O.2       17 UNK        -0.5000 
     99 N          -6.5476  -25.3163  -52.6768 N.am      18 UNK        -0.5000 
    100 CA        -6.8517  -24.2964  -53.6829 C.3       18 UNK         0.1400 
    101 CB        -8.3757  -24.1168  -53.8364 C.3       18 UNK        -0.1800 
    102 C         -6.1442  -24.4777  -55.0454 C.2       18 UNK         0.5000 
    103 O         -6.4624  -23.7355  -55.9757 O.2       18 UNK        -0.5000 
    104 N         -5.1957  -25.4201  -55.1643 N.am      19 UNK        -0.5000 
    105 CA        -4.4594  -25.6739  -56.4053 C.3       19 UNK         0.1400 
    106 CB        -3.8648  -27.0897  -56.3889 C.3       19 UNK        -0.1800 
    107 C         -3.3566  -24.6340  -56.6675 C.2       19 UNK         0.5000 
    108 O         -3.1003  -24.3165  -57.8299 O.2       19 UNK        -0.5000 
    109 N         -2.7259  -24.1200  -55.6010 N.am      20 UNK        -0.5000 
    110 CA        -1.7154  -23.0638  -55.6925 C.3       20 UNK         0.1400 
    111 CB        -0.7209  -23.1769  -54.5263 C.3       20 UNK        -0.1800 
    112 C         -2.3632  -21.6712  -55.7175 C.2       20 UNK         0.5000 
    113 O         -1.8213  -20.7670  -56.3539 O.2       20 UNK        -0.5000 
    114 N         -3.5027  -21.5253  -55.0209 N.am      21 UNK        -0.5000 
    115 CA        -4.3576  -20.3304  -54.9584 C.3       21 UNK         0.1400 
    116 CB        -5.1080  -20.1532  -56.2940 C.3       21 UNK        -0.1800 
    117 C         -3.6071  -19.0508  -54.5203 C.2       21 UNK         0.5000 
    118 O         -3.8886  -17.9636  -55.0273 O.2       21 UNK        -0.5000 
    119 N         -2.6448  -19.2234  -53.6033 N.am      22 UNK        -0.5000 
    120 CA        -1.7038  -18.2033  -53.1048 C.3       22 UNK         0.1400 
    121 C         -0.6125  -17.7683  -54.1332 C.2       22 UNK         0.5000 
    122 N         -0.4565  -18.4273  -55.2755 N.am      22 UNK        -0.7600 
    123 O          0.1385  -16.8307  -53.8780 O.2       22 UNK        -0.5000 
    124 C124       -2.3925  -16.9778  -52.4370 C.3       23 UNK        -0.0398 
    125 S125       -3.5668  -17.4191  -51.1090 S.3       23 UNK        -0.2404 
    126 C126       -2.5370  -17.2009  -49.6245 C.3       23 UNK        -0.0205 
    127 H127       -1.1741   -8.4271  -43.9269 H         1 UNK         0.0600 
    128 H128       -0.9135   -8.9434  -42.2576 H         1 UNK         0.0600 
    129 H129       -2.3638   -9.4571  -43.1260 H         1 UNK         0.0600 
    130 H130       -2.2105  -11.5988  -43.6436 H         1 UNK         0.3000 
    131 H131       -0.2037  -12.6642  -45.3353 H         1 UNK         0.0600 
    132 H132       -1.6316  -14.7799  -45.1795 H         1 UNK         0.0800 
    133 H133       -2.5882  -13.9938  -43.9553 H         1 UNK         0.0800 
    134 H134       -4.8387  -14.1070  -45.1009 H         1 UNK         0.0800 
    135 H135       -5.2321  -13.5391  -46.7037 H         1 UNK         0.0800 
    136 H136       -3.0039  -14.8570  -48.3235 H         1 UNK         0.1150 
    137 H137       -3.9869  -19.0221  -48.2150 H         1 UNK         0.1150 
    138 H138       -5.6063  -16.3653  -45.2657 H         1 UNK         0.1150 
    139 H139       -6.7020  -18.6537  -45.9235 H         1 UNK         0.0800 
    140 H140       -5.7014  -19.8150  -46.7450 H         1 UNK         0.0800 
    141 H141       -2.7233  -19.9510  -43.8870 H         1 UNK         0.0800 
    142 H142       -2.8301  -18.9809  -45.3228 H         1 UNK         0.0800 
    143 H143       -3.7973  -21.1380  -46.4849 H         1 UNK         0.0600 
    144 H144       -1.1743  -20.2566  -46.2373 H         1 UNK         0.3000 
    145 H145        0.4714  -22.7360  -48.2121 H         1 UNK         0.0600 
    146 H146        1.1083  -20.6452  -49.4152 H         1 UNK         0.0600 
    147 H147       -0.5226  -21.1483  -49.8263 H         1 UNK         0.0600 
    148 H148       -0.2757  -19.8053  -48.7217 H         1 UNK         0.0600 
    149 H149        1.1081  -20.3023  -46.6881 H         1 UNK         0.3000 
    150 H150        2.2813  -22.0626  -43.8390 H         1 UNK         0.0600 
    151 H151        4.2733  -22.2027  -45.3124 H         1 UNK         0.0600 
    152 H152        4.3778  -20.7828  -44.2819 H         1 UNK         0.0600 
    153 H153        3.9295  -20.6114  -45.9783 H         1 UNK         0.0600 
    154 H154        2.3049  -19.2933  -44.6140 H         1 UNK         0.3000 
    155 H155       -1.0096  -18.5075  -43.5713 H         1 UNK         0.0600 
    156 H156        0.2061  -18.6895  -41.3736 H         1 UNK         0.0600 
    157 H157        0.0598  -17.0326  -41.9318 H         1 UNK         0.0600 
    158 H158        1.5961  -17.8832  -42.0935 H         1 UNK         0.0600 
    159 H159        0.9727  -16.7108  -44.2197 H         1 UNK         0.3000 
    160 H160        1.5696  -17.3025  -47.6103 H         1 UNK         0.0600 
    161 H161        0.0723  -14.8313  -46.6491 H         1 UNK         0.0600 
    162 H162       -0.6796  -16.0296  -47.6940 H         1 UNK         0.0600 
    163 H163        0.7422  -15.1549  -48.2392 H         1 UNK         0.0600 
    164 H164        2.2746  -15.0666  -45.9940 H         1 UNK         0.3000 
    165 H165        4.0814  -15.4359  -44.0510 H         1 UNK         0.0600 
    166 H166        6.5131  -15.9240  -44.1958 H         1 UNK         0.0600 
    167 H167        5.5852  -17.4014  -44.0091 H         1 UNK         0.0600 
    168 H168        6.2359  -16.9726  -45.5872 H         1 UNK         0.0600 
    169 H169        5.6737  -14.7047  -46.3645 H         1 UNK         0.3000 
    170 H170        5.6924  -12.4796  -46.9366 H         1 UNK         0.0600 
    171 H171        4.3725  -13.6508  -48.7069 H         1 UNK         0.0600 
    172 H172        2.9678  -12.6543  -48.3493 H         1 UNK         0.0600 
    173 H173        4.4258  -11.9235  -49.0213 H         1 UNK         0.0600 
    174 H174        3.3257  -10.7559  -46.8564 H         1 UNK         0.3000 
    175 H175        4.7819   -8.3992  -44.8649 H         1 UNK         0.0600 
    176 H176        2.4995   -7.7276  -45.5431 H         1 UNK         0.0600 
    177 H177        3.3399   -8.4549  -46.8995 H         1 UNK         0.0600 
    178 H178        2.1094   -9.3709  -46.0266 H         1 UNK         0.0600 
    179 H179        2.4994   -9.8704  -43.6610 H         1 UNK         0.3000 
    180 H180        4.0047   -9.9051  -40.4270 H         1 UNK         0.0600 
    181 H181        1.5018   -8.4691  -41.4674 H         1 UNK         0.0600 
    182 H182        2.7833   -7.7304  -40.5154 H         1 UNK         0.0600 
    183 H183        1.7815   -8.9853  -39.8035 H         1 UNK         0.0600 
    184 H184        1.5437  -10.9312  -41.4526 H         1 UNK         0.3000 
    185 H185        2.7649  -14.0851  -42.5444 H         1 UNK         0.0600 
    186 H186        2.5368  -14.3595  -40.0493 H         1 UNK         0.0600 
    187 H187        1.0799  -13.3715  -40.0748 H         1 UNK         0.0600 
    188 H188        1.1083  -14.9324  -40.8927 H         1 UNK         0.0600 
    189 H189        1.0280  -11.8978  -42.9412 H         1 UNK         0.3000 
    190 H190       -1.3099  -22.2986  -44.2043 H         1 UNK         0.3000 
    191 H191       -2.8444  -24.1241  -42.7250 H         1 UNK         0.0600 
    192 H192        0.1113  -24.2358  -43.5333 H         1 UNK         0.0600 
    193 H193       -0.5471  -23.4113  -42.1212 H         1 UNK         0.0600 
    194 H194       -0.6195  -25.1632  -42.2280 H         1 UNK         0.0600 
    195 H195       -1.7734  -24.3938  -46.0418 H         1 UNK         0.3000 
    196 H196       -2.5263  -27.2784  -46.2137 H         1 UNK         0.0600 
    197 H197       -0.2413  -26.6440  -47.0408 H         1 UNK         0.0600 
    198 H198       -0.9650  -25.4943  -48.1617 H         1 UNK         0.0600 
    199 H199       -1.2684  -27.2192  -48.3416 H         1 UNK         0.0600 
    200 H200       -4.1336  -24.4721  -46.2450 H         1 UNK         0.3000 
    201 H201       -5.8885  -23.5338  -47.1880 H         1 UNK         0.0600 
    202 H202       -7.6777  -24.9825  -48.0963 H         1 UNK         0.0600 
    203 H203       -6.9694  -25.7230  -46.6708 H         1 UNK         0.0600 
    204 H204       -6.5547  -26.3231  -48.2747 H         1 UNK         0.0600 
    205 H205       -3.5166  -23.1748  -48.5553 H         1 UNK         0.3000 
    206 H206       -2.5681  -22.4140  -50.3883 H         1 UNK         0.0600 
    207 H207       -4.5166  -20.8773  -50.5713 H         1 UNK         0.0600 
    208 H208       -5.3717  -22.0516  -51.5690 H         1 UNK         0.0600 
    209 H209       -3.8882  -21.3107  -52.1487 H         1 UNK         0.0600 
    210 H210       -2.6000  -25.0573  -49.9985 H         1 UNK         0.3000 
    211 H211       -2.1494  -27.0688  -50.7838 H         1 UNK         0.0600 
    212 H212       -0.5116  -25.8851  -52.2867 H         1 UNK         0.0600 
    213 H213       -1.1421  -27.3605  -53.0042 H         1 UNK         0.0600 
    214 H214       -1.7438  -25.8038  -53.5446 H         1 UNK         0.0600 
    215 H215       -4.6609  -26.7448  -50.2770 H         1 UNK         0.3000 
    216 H216       -6.8232  -27.1670  -50.6314 H         1 UNK         0.0600 
    217 H217       -7.4035  -29.2613  -51.8150 H         1 UNK         0.0600 
    218 H218       -5.8303  -29.2988  -52.6002 H         1 UNK         0.0600 
    219 H219       -5.9538  -29.5008  -50.8531 H         1 UNK         0.0600 
    220 H220       -6.0684  -24.9614  -51.8532 H         1 UNK         0.3000 
    221 H221       -6.4567  -23.3655  -53.2756 H         1 UNK         0.0600 
    222 H222       -8.8411  -24.9844  -54.3047 H         1 UNK         0.0600 
    223 H223       -8.8530  -23.9597  -52.8691 H         1 UNK         0.0600 
    224 H224       -8.6089  -23.2493  -54.4549 H         1 UNK         0.0600 
    225 H225       -4.9583  -25.9977  -54.3654 H         1 UNK         0.3000 
    226 H226       -5.1663  -25.6265  -57.2367 H         1 UNK         0.0600 
    227 H227       -4.6185  -27.8357  -56.1360 H         1 UNK         0.0600 
    228 H228       -3.4624  -27.3505  -57.3684 H         1 UNK         0.0600 
    229 H229       -3.0480  -27.1769  -55.6721 H         1 UNK         0.0600 
    230 H230       -3.0243  -24.3897  -54.6689 H         1 UNK         0.3000 
    231 H231       -1.1489  -23.1829  -56.6187 H         1 UNK         0.0600 
    232 H232        0.0563  -22.4157  -54.6057 H         1 UNK         0.0600 
    233 H233       -0.2226  -24.1461  -54.5266 H         1 UNK         0.0600 
    234 H234       -1.2042  -23.0457  -53.5591 H         1 UNK         0.0600 
    235 H235       -3.8325  -22.3310  -54.5059 H         1 UNK         0.3000 
    236 H236       -5.1041  -20.5238  -54.1870 H         1 UNK         0.0600 
    237 H237       -5.6467  -21.0611  -56.5659 H         1 UNK         0.0600 
    238 H238       -5.8423  -19.3495  -56.2297 H         1 UNK         0.0600 
    239 H239       -4.4261  -19.9118  -57.1101 H         1 UNK         0.0600 
    240 H240       -2.4763  -20.1614  -53.2745 H         1 UNK         0.3000 
    241 H241       -1.1399  -18.7081  -52.3197 H         1 UNK         0.0600 
    242 H242        0.2637  -18.1314  -55.9147 H         1 UNK         0.3800 
    243 H243       -1.0546  -19.2073  -55.5317 H         1 UNK         0.3800 
    244 H244       -1.6453  -16.2949  -52.0308 H         1 UNK         0.0800 
    245 H245       -2.9349  -16.3953  -53.1822 H         1 UNK         0.0800 
    246 H246       -1.9125  -18.0836  -49.4815 H         1 UNK         0.0800 
    247 H247       -1.8571  -16.3600  -49.7652 H         1 UNK         0.0800 
@<TRIPOS>BOND
     1    1    2 1    
     2    1  127 1    
     3    1  128 1    
     4    1  129 1    
     5    2    3 2    
     6    2    4 am   BACKBONE|DICT|INTERRES
     7    4    5 1    
     8    4  130 1    
     9    5    6 1    
    10    5   65 1    
    11    5  131 1    
    12    6    7 1    
    13    6  132 1    
    14    6  133 1    
    15    7    8 1    
    16    8    9 1    
    17    8  134 1    
    18    8  135 1    
    19    9   10 ar   
    20    9   14 ar   
    21   10   11 ar   
    22   10  136 1    
    23   11   12 ar   
    24   11  126 1    
    25   12   13 ar   
    26   12  137 1    
    27   13   14 ar   
    28   13   15 1    
    29   14  138 1    
    30   15   16 1    
    31   15  139 1    
    32   15  140 1    
    33   16   17 1    
    34   17   18 1    
    35   17  141 1    
    36   17  142 1    
    37   18   19 1    
    38   18   67 1    
    39   18  143 1    
    40   19   20 am   BACKBONE|DICT|INTERRES
    41   19  144 1    
    42   20   21 2    
    43   20   22 1    
    44   22   23 1    
    45   22   24 1    
    46   22  145 1    
    47   23  146 1    
    48   23  147 1    
    49   23  148 1    
    50   24   25 am   BACKBONE|DICT|INTERRES
    51   24  149 1    
    52   25   26 2    
    53   25   27 1    
    54   27   28 1    
    55   27   29 1    
    56   27  150 1    
    57   28  151 1    
    58   28  152 1    
    59   28  153 1    
    60   29   30 am   BACKBONE|DICT|INTERRES
    61   29  154 1    
    62   30   31 2    
    63   30   32 1    
    64   32   33 1    
    65   32   34 1    
    66   32  155 1    
    67   33  156 1    
    68   33  157 1    
    69   33  158 1    
    70   34   35 am   BACKBONE|DICT|INTERRES
    71   34  159 1    
    72   35   36 2    
    73   35   37 1    
    74   37   38 1    
    75   37   39 1    
    76   37  160 1    
    77   38  161 1    
    78   38  162 1    
    79   38  163 1    
    80   39   40 am   BACKBONE|DICT|INTERRES
    81   39  164 1    
    82   40   41 2    
    83   40   42 1    
    84   42   43 1    
    85   42   44 1    
    86   42  165 1    
    87   43  166 1    
    88   43  167 1    
    89   43  168 1    
    90   44   45 am   BACKBONE|DICT|INTERRES
    91   44  169 1    
    92   45   46 2    
    93   45   47 1    
    94   47   48 1    
    95   47   49 1    
    96   47  170 1    
    97   48  171 1    
    98   48  172 1    
    99   48  173 1    
   100   49   50 am   BACKBONE|DICT|INTERRES
   101   49  174 1    
   102   50   51 2    
   103   50   52 1    
   104   52   53 1    
   105   52   54 1    
   106   52  175 1    
   107   53  176 1    
   108   53  177 1    
   109   53  178 1    
   110   54   55 am   BACKBONE|DICT|INTERRES
   111   54  179 1    
   112   55   56 2    
   113   55   57 1    
   114   57   58 1    
   115   57   59 1    
   116   57  180 1    
   117   58  181 1    
   118   58  182 1    
   119   58  183 1    
   120   59   60 am   BACKBONE|DICT|INTERRES
   121   59  184 1    
   122   60   61 2    
   123   60   62 1    
   124   62   63 1    
   125   62   64 1    
   126   62  185 1    
   127   63  186 1    
   128   63  187 1    
   129   63  188 1    
   130   64   65 am   BACKBONE|DICT|INTERRES
   131   64  189 1    
   132   65   66 2    
   133   67   68 2    
   134   67   69 am   BACKBONE|DICT|INTERRES
   135   69   70 1    
   136   69  190 1    
   137   70   71 1    
   138   70   72 1    
   139   70  191 1    
   140   71  192 1    
   141   71  193 1    
   142   71  194 1    
   143   72   73 2    
   144   72   74 am   BACKBONE|DICT|INTERRES
   145   74   75 1    
   146   74  195 1    
   147   75   76 1    
   148   75   77 1    
   149   75  196 1    
   150   76  197 1    
   151   76  198 1    
   152   76  199 1    
   153   77   78 2    
   154   77   79 am   BACKBONE|DICT|INTERRES
   155   79   80 1    
   156   79  200 1    
   157   80   81 1    
   158   80   82 1    
   159   80  201 1    
   160   81  202 1    
   161   81  203 1    
   162   81  204 1    
   163   82   83 2    
   164   82   84 am   BACKBONE|DICT|INTERRES
   165   84   85 1    
   166   84  205 1    
   167   85   86 1    
   168   85   87 1    
   169   85  206 1    
   170   86  207 1    
   171   86  208 1    
   172   86  209 1    
   173   87   88 2    
   174   87   89 am   BACKBONE|DICT|INTERRES
   175   89   90 1    
   176   89  210 1    
   177   90   91 1    
   178   90   92 1    
   179   90  211 1    
   180   91  212 1    
   181   91  213 1    
   182   91  214 1    
   183   92   93 2    
   184   92   94 am   BACKBONE|DICT|INTERRES
   185   94   95 1    
   186   94  215 1    
   187   95   96 1    
   188   95   97 1    
   189   95  216 1    
   190   96  217 1    
   191   96  218 1    
   192   96  219 1    
   193   97   98 2    
   194   97   99 am   BACKBONE|DICT|INTERRES
   195   99  100 1    
   196   99  220 1    
   197  100  101 1    
   198  100  102 1    
   199  100  221 1    
   200  101  222 1    
   201  101  223 1    
   202  101  224 1    
   203  102  103 2    
   204  102  104 am   BACKBONE|DICT|INTERRES
   205  104  105 1    
   206  104  225 1    
   207  105  106 1    
   208  105  107 1    
   209  105  226 1    
   210  106  227 1    
   211  106  228 1    
   212  106  229 1    
   213  107  108 2    
   214  107  109 am   BACKBONE|DICT|INTERRES
   215  109  110 1    
   216  109  230 1    
   217  110  111 1    
   218  110  112 1    
   219  110  231 1    
   220  111  232 1    
   221  111  233 1    
   222  111  234 1    
   223  112  113 2    
   224  112  114 am   BACKBONE|DICT|INTERRES
   225  114  115 1    
   226  114  235 1    
   227  115  116 1    
   228  115  117 1    
   229  115  236 1    
   230  116  237 1    
   231  116  238 1    
   232  116  239 1    
   233  117  118 2    
   234  117  119 am   BACKBONE|DICT|INTERRES
   235  119  120 1    
   236  119  240 1    
   237  120  121 1    
   238  120  124 1    
   239  120  241 1    
   240  121  122 am   BACKBONE|DICT|INTERRES
   241  121  123 2    
   242  122  242 1    
   243  122  243 1    
   244  124  125 1    
   245  124  244 1    
   246  124  245 1    
   247  125  126 1    
   248  126  246 1    
   249  126  247 1    
@<TRIPOS>SUBSTRUCTURE
     1 UNK         1 GROUP             0       ****    0 ROOT    
