@<TRIPOS>MOLECULE
3R540
247   249    1
SMALL
USER_CHARGES


@<TRIPOS>ATOM
      1 CA          0.8772   -9.9435  -50.8663 C.3       0 UNK        -0.1800 
      2 C           1.3240  -11.3254  -50.4099 C.2       0 UNK         0.5000 
      3 O           1.9541  -12.0504  -51.1802 O.2       0 UNK        -0.5000 
      4 N           0.9936  -11.6927  -49.1661 N.am      1 UNK        -0.5000 
      5 CA          1.3623  -12.9632  -48.5334 C.3       1 UNK         0.1400 
      6 C6          0.5702  -13.2101  -47.2254 C.3       23 UNK        -0.0398 
      7 S7         -1.2301  -13.2792  -47.5302 S.3       23 UNK        -0.2404 
      8 C8         -1.5890  -15.0650  -47.4862 C.3       23 UNK        -0.0205 
      9 C9         -0.7374  -15.8631  -48.4618 C.ar      23 UNK        -0.0193 
     10 C10        -1.0348  -15.8577  -49.8269 C.ar      23 UNK        -0.1150 
     11 C11        -0.2540  -16.5906  -50.7253 C.ar      23 UNK        -0.0193 
     12 C12         0.8236  -17.3428  -50.2466 C.ar      23 UNK        -0.1150 
     13 C13         1.1314  -17.3560  -48.8829 C.ar      23 UNK        -0.0193 
     14 C14         0.3495  -16.6086  -47.9978 C.ar      23 UNK        -0.1150 
     15 C15         2.3267  -18.1511  -48.3756 C.3       23 UNK        -0.0205 
     16 S16         1.9289  -19.9038  -48.0758 S.3       23 UNK        -0.2404 
     17 C17         0.9671  -19.8165  -46.5267 C.3       23 UNK        -0.0398 
     18 CA         -0.2819  -20.7290  -46.5038 C.3       11 UNK         0.1400 
     19 N          -0.7717  -20.8975  -45.1298 N.am      11 UNK        -0.5000 
     20 C          -1.7538  -21.7210  -44.7380 C.2       10 UNK         0.5000 
     21 O          -2.3966  -22.4339  -45.5067 O.2       10 UNK        -0.5000 
     22 CA         -2.1014  -21.7191  -43.2412 C.3       10 UNK         0.1400 
     23 CB         -1.0805  -22.5395  -42.4380 C.3       10 UNK        -0.1800 
     24 N          -2.1626  -20.3560  -42.7168 N.am      10 UNK        -0.5000 
     25 C          -3.2305  -19.5536  -42.8303 C.2       9 UNK         0.5000 
     26 O          -4.3012  -19.9070  -43.3250 O.2       9 UNK        -0.5000 
     27 CA         -3.0711  -18.1035  -42.3287 C.3       9 UNK         0.1400 
     28 CB         -3.4017  -18.0103  -40.8316 C.3       9 UNK        -0.1800 
     29 N          -1.7345  -17.5521  -42.5534 N.am      9 UNK        -0.5000 
     30 C          -1.1645  -17.3905  -43.7550 C.2       8 UNK         0.5000 
     31 O          -1.7159  -17.6561  -44.8206 O.2       8 UNK        -0.5000 
     32 CA          0.2946  -16.9119  -43.7677 C.3       8 UNK         0.1400 
     33 CB          0.3573  -15.3794  -43.7477 C.3       8 UNK        -0.1800 
     34 N           1.0940  -17.4542  -42.6691 N.am      8 UNK        -0.5000 
     35 C           1.2915  -18.7533  -42.4044 C.2       7 UNK         0.5000 
     36 O           0.8090  -19.6641  -43.0776 O.2       7 UNK        -0.5000 
     37 CA          2.1336  -19.0930  -41.1638 C.3       7 UNK         0.1400 
     38 CB          3.6226  -19.1989  -41.5224 C.3       7 UNK        -0.1800 
     39 N           1.9672  -18.0929  -40.1101 N.am      7 UNK        -0.5000 
     40 C           1.0400  -18.1464  -39.1464 C.2       6 UNK         0.5000 
     41 O           0.2411  -19.0743  -39.0158 O.2       6 UNK        -0.5000 
     42 CA          0.9914  -16.9590  -38.1642 C.3       6 UNK         0.1400 
     43 CB          1.9352  -17.2055  -36.9774 C.3       6 UNK        -0.1800 
     44 N           1.3262  -15.6736  -38.7826 N.am      6 UNK        -0.5000 
     45 C           0.5623  -15.0491  -39.6888 C.2       5 UNK         0.5000 
     46 O          -0.5065  -15.4972  -40.1071 O.2       5 UNK        -0.5000 
     47 CA          1.0916  -13.7090  -40.2425 C.3       5 UNK         0.1400 
     48 CB          0.7302  -12.5620  -39.2863 C.3       5 UNK        -0.1800 
     49 N           2.5293  -13.6416  -40.5489 N.am      5 UNK        -0.5000 
     50 C           3.2514  -14.5515  -41.2172 C.2       4 UNK         0.5000 
     51 O           2.8540  -15.6867  -41.4803 O.2       4 UNK        -0.5000 
     52 CA          4.6690  -14.1383  -41.6549 C.3       4 UNK         0.1400 
     53 CB          5.6767  -14.4208  -40.5307 C.3       4 UNK        -0.1800 
     54 N           5.0783  -14.8746  -42.8545 N.am      4 UNK        -0.5000 
     55 C           4.5402  -14.7107  -44.0708 C.2       3 UNK         0.5000 
     56 O           3.7507  -13.8067  -44.3566 O.2       3 UNK        -0.5000 
     57 CA          4.9147  -15.7725  -45.1205 C.3       3 UNK         0.1400 
     58 CB          4.1215  -17.0671  -44.8828 C.3       3 UNK        -0.1800 
     59 N           4.6291  -15.3105  -46.4765 N.am      3 UNK        -0.5000 
     60 C           5.4888  -14.6476  -47.2575 C.2       2 UNK         0.5000 
     61 O           6.6390  -14.3606  -46.9228 O.2       2 UNK        -0.5000 
     62 CA          4.9879  -14.2595  -48.6618 C.3       2 UNK         0.1400 
     63 CB          5.4114  -15.3203  -49.6899 C.3       2 UNK        -0.1800 
     64 N           3.5349  -14.0846  -48.7388 N.am      2 UNK        -0.5000 
     65 C           2.8819  -13.0106  -48.2768 C.2       1 UNK         0.5000 
     66 O           3.4284  -12.0761  -47.6862 O.2       1 UNK        -0.5000 
     67 C          -1.3794  -20.2487  -47.4826 C.2       11 UNK         0.5000 
     68 O          -1.3886  -20.6749  -48.6358 O.2       11 UNK        -0.5000 
     69 N          -2.3151  -19.4209  -46.9953 N.am      12 UNK        -0.5000 
     70 CA         -3.4953  -18.9683  -47.7325 C.3       12 UNK         0.1400 
     71 CB         -4.2388  -17.9175  -46.8942 C.3       12 UNK        -0.1800 
     72 C          -4.4599  -20.1089  -48.1135 C.2       12 UNK         0.5000 
     73 O          -5.1076  -20.0200  -49.1556 O.2       12 UNK        -0.5000 
     74 N          -4.5444  -21.1475  -47.2694 N.am      13 UNK        -0.5000 
     75 CA         -5.3400  -22.3494  -47.5124 C.3       13 UNK         0.1400 
     76 CB         -5.8037  -22.9451  -46.1739 C.3       13 UNK        -0.1800 
     77 C          -4.5322  -23.3697  -48.3291 C.2       13 UNK         0.5000 
     78 O          -4.9850  -23.8123  -49.3863 O.2       13 UNK        -0.5000 
     79 N          -3.3164  -23.6781  -47.8592 N.am      14 UNK        -0.5000 
     80 CA         -2.3395  -24.5702  -48.4882 C.3       14 UNK         0.1400 
     81 CB         -1.3764  -25.0842  -47.4031 C.3       14 UNK        -0.1800 
     82 C          -1.6027  -23.8951  -49.6671 C.2       14 UNK         0.5000 
     83 O          -0.3745  -23.9560  -49.7528 O.2       14 UNK        -0.5000 
     84 N          -2.3802  -23.2494  -50.5416 N.am      15 UNK        -0.5000 
     85 CA         -1.9378  -22.5046  -51.7131 C.3       15 UNK         0.1400 
     86 CB         -2.8894  -21.3126  -51.8988 C.3       15 UNK        -0.1800 
     87 C          -1.8357  -23.4332  -52.9426 C.2       15 UNK         0.5000 
     88 O          -1.4221  -24.5866  -52.7950 O.2       15 UNK        -0.5000 
     89 N          -2.2003  -22.9429  -54.1379 N.am      16 UNK        -0.5000 
     90 CA         -2.1237  -23.6848  -55.3999 C.3       16 UNK         0.1400 
     91 CB         -2.4657  -22.7549  -56.5750 C.3       16 UNK        -0.1800 
     92 C          -3.0468  -24.9149  -55.3692 C.2       16 UNK         0.5000 
     93 O          -4.2648  -24.7582  -55.2731 O.2       16 UNK        -0.5000 
     94 N          -2.4377  -26.1102  -55.3533 N.am      17 UNK        -0.5000 
     95 CA         -3.0698  -27.4280  -55.1877 C.3       17 UNK         0.1400 
     96 CB         -3.9084  -27.7768  -56.4352 C.3       17 UNK        -0.1800 
     97 C          -3.8813  -27.5790  -53.8776 C.2       17 UNK         0.5000 
     98 O          -4.7563  -28.4429  -53.8010 O.2       17 UNK        -0.5000 
     99 N          -3.5961  -26.7200  -52.8841 N.am      18 UNK        -0.5000 
    100 CA        -4.3434  -26.5209  -51.6377 C.3       18 UNK         0.1400 
    101 CB        -4.1641  -27.7244  -50.6909 C.3       18 UNK        -0.1800 
    102 C         -5.8257  -26.1356  -51.8612 C.2       18 UNK         0.5000 
    103 O         -6.6811  -26.4744  -51.0422 O.2       18 UNK        -0.5000 
    104 N         -6.1088  -25.4269  -52.9653 N.am      19 UNK        -0.5000 
    105 CA        -7.4527  -25.0018  -53.3704 C.3       19 UNK         0.1400 
    106 CB        -7.4801  -24.8546  -54.9011 C.3       19 UNK        -0.1800 
    107 C         -7.9232  -23.6990  -52.6893 C.2       19 UNK         0.5000 
    108 O         -9.0053  -23.2104  -53.0171 O.2       19 UNK        -0.5000 
    109 N         -7.1068  -23.1507  -51.7772 N.am      20 UNK        -0.5000 
    110 CA        -7.3053  -21.8969  -51.0431 C.3       20 UNK         0.1400 
    111 CB        -8.5141  -21.9915  -50.0892 C.3       20 UNK        -0.1800 
    112 C         -7.3304  -20.6473  -51.9491 C.2       20 UNK         0.5000 
    113 O         -8.0303  -19.6763  -51.6545 O.2       20 UNK        -0.5000 
    114 N         -6.5475  -20.6926  -53.0314 N.am      21 UNK        -0.5000 
    115 CA        -6.2960  -19.5960  -53.9551 C.3       21 UNK         0.1400 
    116 CB        -7.3171  -19.6362  -55.1034 C.3       21 UNK        -0.1800 
    117 C         -4.8641  -19.7574  -54.4775 C.2       21 UNK         0.5000 
    118 O         -4.4124  -20.8901  -54.6603 O.2       21 UNK        -0.5000 
    119 N         -4.1730  -18.6357  -54.6957 N.am      22 UNK        -0.5000 
    120 CA        -2.7727  -18.5968  -55.1567 C.3       22 UNK         0.1400 
    121 C         -2.6186  -18.5273  -56.7049 C.2       22 UNK         0.5000 
    122 N         -3.6934  -18.4945  -57.4832 N.am      22 UNK        -0.7600 
    123 O         -1.5010  -18.5185  -57.2133 O.2       22 UNK        -0.5000 
    124 C124       -1.9750  -17.4682  -54.4526 C.3       23 UNK        -0.0398 
    125 S125       -1.9153  -17.6879  -52.6410 S.3       23 UNK        -0.2404 
    126 C126       -0.5633  -16.5516  -52.2135 C.3       23 UNK        -0.0205 
    127 H127        1.7436   -9.3381  -51.1326 H         1 UNK         0.0600 
    128 H128        0.3220   -9.4191  -50.0881 H         1 UNK         0.0600 
    129 H129        0.2355  -10.0274  -51.7434 H         1 UNK         0.0600 
    130 H130        0.4804  -11.0503  -48.5802 H         1 UNK         0.3000 
    131 H131        1.1109  -13.7611  -49.2355 H         1 UNK         0.0600 
    132 H132        0.7626  -12.4116  -46.5065 H         1 UNK         0.0800 
    133 H133        0.8934  -14.1305  -46.7383 H         1 UNK         0.0800 
    134 H134       -2.6414  -15.2068  -47.7337 H         1 UNK         0.0800 
    135 H135       -1.4658  -15.4398  -46.4704 H         1 UNK         0.0800 
    136 H136       -1.8704  -15.2768  -50.1914 H         1 UNK         0.1150 
    137 H137        1.4278  -17.9153  -50.9363 H         1 UNK         0.1150 
    138 H138        0.5860  -16.6010  -46.9449 H         1 UNK         0.1150 
    139 H139        3.1317  -18.1007  -49.1102 H         1 UNK         0.0800 
    140 H140        2.7250  -17.7064  -47.4636 H         1 UNK         0.0800 
    141 H141        0.6763  -18.7902  -46.3208 H         1 UNK         0.0800 
    142 H142        1.6472  -20.0993  -45.7218 H         1 UNK         0.0800 
    143 H143        0.0246  -21.7222  -46.8395 H         1 UNK         0.0600 
    144 H144       -0.2795  -20.3713  -44.4121 H         1 UNK         0.3000 
    145 H145       -3.0778  -22.1941  -43.1224 H         1 UNK         0.0600 
    146 H146       -1.3482  -22.5740  -41.3818 H         1 UNK         0.0600 
    147 H147       -1.0413  -23.5687  -42.7972 H         1 UNK         0.0600 
    148 H148       -0.0737  -22.1284  -42.5139 H         1 UNK         0.0600 
    149 H149       -1.3018  -19.9728  -42.3502 H         1 UNK         0.3000 
    150 H150       -3.7828  -17.4841  -42.8785 H         1 UNK         0.0600 
    151 H151       -4.4026  -18.3926  -40.6269 H         1 UNK         0.0600 
    152 H152       -3.3708  -16.9770  -40.4848 H         1 UNK         0.0600 
    153 H153       -2.6985  -18.5862  -40.2282 H         1 UNK         0.0600 
    154 H154       -1.2070  -17.2830  -41.7333 H         1 UNK         0.3000 
    155 H155        0.7477  -17.2561  -44.6949 H         1 UNK         0.0600 
    156 H156       -0.0983  -14.9765  -42.8446 H         1 UNK         0.0600 
    157 H157       -0.1749  -14.9504  -44.5958 H         1 UNK         0.0600 
    158 H158        1.3851  -15.0226  -43.7970 H         1 UNK         0.0600 
    159 H159        1.5956  -16.7736  -42.1018 H         1 UNK         0.3000 
    160 H160        1.8053  -20.0704  -40.8039 H         1 UNK         0.0600 
    161 H161        4.1930  -19.6158  -40.6923 H         1 UNK         0.0600 
    162 H162        4.0498  -18.2245  -41.7575 H         1 UNK         0.0600 
    163 H163        3.7782  -19.8500  -42.3838 H         1 UNK         0.0600 
    164 H164        2.5248  -17.2514  -40.2002 H         1 UNK         0.3000 
    165 H165       -0.0285  -16.8929  -37.7791 H         1 UNK         0.0600 
    166 H166        1.8483  -16.4138  -36.2331 H         1 UNK         0.0600 
    167 H167        1.6980  -18.1463  -36.4787 H         1 UNK         0.0600 
    168 H168        2.9774  -17.2560  -37.2953 H         1 UNK         0.0600 
    169 H169        2.1976  -15.2443  -38.5082 H         1 UNK         0.3000 
    170 H170        0.5687  -13.5257  -41.1818 H         1 UNK         0.0600 
    171 H171       -0.3354  -12.5670  -39.0520 H         1 UNK         0.0600 
    172 H172        1.2740  -12.6381  -38.3440 H         1 UNK         0.0600 
    173 H173        0.9577  -11.5917  -39.7281 H         1 UNK         0.0600 
    174 H174        2.9678  -12.7550  -40.3460 H         1 UNK         0.3000 
    175 H175        4.6741  -13.0700  -41.8811 H         1 UNK         0.0600 
    176 H176        5.7020  -15.4796  -40.2690 H         1 UNK         0.0600 
    177 H177        6.6845  -14.1223  -40.8203 H         1 UNK         0.0600 
    178 H178        5.4223  -13.8656  -39.6269 H         1 UNK         0.0600 
    179 H179        5.6896  -15.6623  -42.6987 H         1 UNK         0.3000 
    180 H180        5.9795  -15.9958  -45.0237 H         1 UNK         0.0600 
    181 H181        3.0483  -16.9005  -44.9645 H         1 UNK         0.0600 
    182 H182        4.3161  -17.4693  -43.8903 H         1 UNK         0.0600 
    183 H183        4.3989  -17.8389  -45.6009 H         1 UNK         0.0600 
    184 H184        3.6857  -15.4346  -46.8073 H         1 UNK         0.3000 
    185 H185        5.4661  -13.3156  -48.9330 H         1 UNK         0.0600 
    186 H186        6.4936  -15.4576  -49.6864 H         1 UNK         0.0600 
    187 H187        4.9575  -16.2895  -49.4802 H         1 UNK         0.0600 
    188 H188        5.1263  -15.0267  -50.7004 H         1 UNK         0.0600 
    189 H189        3.0222  -14.7947  -49.2416 H         1 UNK         0.3000 
    190 H190       -2.1947  -19.0398  -46.0611 H         1 UNK         0.3000 
    191 H191       -3.1514  -18.4966  -48.6557 H         1 UNK         0.0600 
    192 H192       -4.5876  -18.3338  -45.9480 H         1 UNK         0.0600 
    193 H193       -5.1092  -17.5340  -47.4281 H         1 UNK         0.0600 
    194 H194       -3.5988  -17.0677  -46.6644 H         1 UNK         0.0600 
    195 H195       -3.9351  -21.1649  -46.4619 H         1 UNK         0.3000 
    196 H196       -6.2337  -22.0866  -48.0804 H         1 UNK         0.0600 
    197 H197       -6.4113  -23.8363  -46.3355 H         1 UNK         0.0600 
    198 H198       -6.4135  -22.2322  -45.6187 H         1 UNK         0.0600 
    199 H199       -4.9657  -23.2308  -45.5378 H         1 UNK         0.0600 
    200 H200       -3.0047  -23.2250  -47.0019 H         1 UNK         0.3000 
    201 H201       -2.8706  -25.4335  -48.8931 H         1 UNK         0.0600 
    202 H202       -1.9189  -25.5726  -46.5934 H         1 UNK         0.0600 
    203 H203       -0.7908  -24.2721  -46.9705 H         1 UNK         0.0600 
    204 H204       -0.6775  -25.8150  -47.8117 H         1 UNK         0.0600 
    205 H205       -3.3787  -23.2758  -50.3713 H         1 UNK         0.3000 
    206 H206       -0.9382  -22.1066  -51.5274 H         1 UNK         0.0600 
    207 H207       -2.9302  -20.7007  -50.9971 H         1 UNK         0.0600 
    208 H208       -2.5510  -20.6591  -52.7013 H         1 UNK         0.0600 
    209 H209       -3.9052  -21.6390  -52.1202 H         1 UNK         0.0600 
    210 H210       -2.6569  -22.0395  -54.1861 H         1 UNK         0.3000 
    211 H211       -1.0908  -24.0153  -55.5272 H         1 UNK         0.0600 
    212 H212       -3.5065  -22.4315  -56.5485 H         1 UNK         0.0600 
    213 H213       -2.3098  -23.2628  -57.5273 H         1 UNK         0.0600 
    214 H214       -1.8377  -21.8638  -56.5738 H         1 UNK         0.0600 
    215 H215       -1.4273  -26.1234  -55.3798 H         1 UNK         0.3000 
    216 H216       -2.2560  -28.1514  -55.1220 H         1 UNK         0.0600 
    217 H217       -4.2605  -28.8083  -56.3971 H         1 UNK         0.0600 
    218 H218       -3.3214  -27.6708  -57.3474 H         1 UNK         0.0600 
    219 H219       -4.7858  -27.1353  -56.5242 H         1 UNK         0.0600 
    220 H220       -2.8357  -26.0649  -53.0380 H         1 UNK         0.3000 
    221 H221       -3.8863  -25.6575  -51.1558 H         1 UNK         0.0600 
    222 H222       -4.6463  -28.6213  -51.0806 H         1 UNK         0.0600 
    223 H223       -3.1090  -27.9498  -50.5362 H         1 UNK         0.0600 
    224 H224       -4.5970  -27.5188  -49.7112 H         1 UNK         0.0600 
    225 H225       -5.3623  -25.2051  -53.6176 H         1 UNK         0.3000 
    226 H226       -8.1650  -25.7831  -53.0977 H         1 UNK         0.0600 
    227 H227       -8.4924  -24.6660  -55.2602 H         1 UNK         0.0600 
    228 H228       -6.8555  -24.0250  -55.2350 H         1 UNK         0.0600 
    229 H229       -7.1256  -25.7608  -55.3930 H         1 UNK         0.0600 
    230 H230       -6.2610  -23.6542  -51.5494 H         1 UNK         0.3000 
    231 H231       -6.4152  -21.7865  -50.4285 H         1 UNK         0.0600 
    232 H232       -8.4459  -22.8755  -49.4550 H         1 UNK         0.0600 
    233 H233       -9.4580  -22.0381  -50.6326 H         1 UNK         0.0600 
    234 H234       -8.5581  -21.1237  -49.4301 H         1 UNK         0.0600 
    235 H235       -5.9861  -21.5154  -53.2074 H         1 UNK         0.3000 
    236 H236       -6.3732  -18.6434  -53.4265 H         1 UNK         0.0600 
    237 H237       -8.3354  -19.5308  -54.7285 H         1 UNK         0.0600 
    238 H238       -7.1443  -18.8238  -55.8099 H         1 UNK         0.0600 
    239 H239       -7.2607  -20.5745  -55.6570 H         1 UNK         0.0600 
    240 H240       -4.6079  -17.7408  -54.5246 H         1 UNK         0.3000 
    241 H241       -2.2901  -19.5356  -54.8788 H         1 UNK         0.0600 
    242 H242       -3.5805  -18.4566  -58.4842 H         1 UNK         0.3800 
    243 H243       -4.6173  -18.5153  -57.0832 H         1 UNK         0.3800 
    244 H244       -2.4087  -16.4923  -54.6765 H         1 UNK         0.0800 
    245 H245       -0.9482  -17.4420  -54.8217 H         1 UNK         0.0800 
    246 H246        0.3266  -16.8114  -52.7889 H         1 UNK         0.0800 
    247 H247       -0.8359  -15.5366  -52.5065 H         1 UNK         0.0800 
@<TRIPOS>BOND
     1    1    2 1    
     2    1  127 1    
     3    1  128 1    
     4    1  129 1    
     5    2    3 2    
     6    2    4 am   BACKBONE|DICT|INTERRES
     7    4    5 1    
     8    4  130 1    
     9    5    6 1    
    10    5   65 1    
    11    5  131 1    
    12    6    7 1    
    13    6  132 1    
    14    6  133 1    
    15    7    8 1    
    16    8    9 1    
    17    8  134 1    
    18    8  135 1    
    19    9   10 ar   
    20    9   14 ar   
    21   10   11 ar   
    22   10  136 1    
    23   11   12 ar   
    24   11  126 1    
    25   12   13 ar   
    26   12  137 1    
    27   13   14 ar   
    28   13   15 1    
    29   14  138 1    
    30   15   16 1    
    31   15  139 1    
    32   15  140 1    
    33   16   17 1    
    34   17   18 1    
    35   17  141 1    
    36   17  142 1    
    37   18   19 1    
    38   18   67 1    
    39   18  143 1    
    40   19   20 am   BACKBONE|DICT|INTERRES
    41   19  144 1    
    42   20   21 2    
    43   20   22 1    
    44   22   23 1    
    45   22   24 1    
    46   22  145 1    
    47   23  146 1    
    48   23  147 1    
    49   23  148 1    
    50   24   25 am   BACKBONE|DICT|INTERRES
    51   24  149 1    
    52   25   26 2    
    53   25   27 1    
    54   27   28 1    
    55   27   29 1    
    56   27  150 1    
    57   28  151 1    
    58   28  152 1    
    59   28  153 1    
    60   29   30 am   BACKBONE|DICT|INTERRES
    61   29  154 1    
    62   30   31 2    
    63   30   32 1    
    64   32   33 1    
    65   32   34 1    
    66   32  155 1    
    67   33  156 1    
    68   33  157 1    
    69   33  158 1    
    70   34   35 am   BACKBONE|DICT|INTERRES
    71   34  159 1    
    72   35   36 2    
    73   35   37 1    
    74   37   38 1    
    75   37   39 1    
    76   37  160 1    
    77   38  161 1    
    78   38  162 1    
    79   38  163 1    
    80   39   40 am   BACKBONE|DICT|INTERRES
    81   39  164 1    
    82   40   41 2    
    83   40   42 1    
    84   42   43 1    
    85   42   44 1    
    86   42  165 1    
    87   43  166 1    
    88   43  167 1    
    89   43  168 1    
    90   44   45 am   BACKBONE|DICT|INTERRES
    91   44  169 1    
    92   45   46 2    
    93   45   47 1    
    94   47   48 1    
    95   47   49 1    
    96   47  170 1    
    97   48  171 1    
    98   48  172 1    
    99   48  173 1    
   100   49   50 am   BACKBONE|DICT|INTERRES
   101   49  174 1    
   102   50   51 2    
   103   50   52 1    
   104   52   53 1    
   105   52   54 1    
   106   52  175 1    
   107   53  176 1    
   108   53  177 1    
   109   53  178 1    
   110   54   55 am   BACKBONE|DICT|INTERRES
   111   54  179 1    
   112   55   56 2    
   113   55   57 1    
   114   57   58 1    
   115   57   59 1    
   116   57  180 1    
   117   58  181 1    
   118   58  182 1    
   119   58  183 1    
   120   59   60 am   BACKBONE|DICT|INTERRES
   121   59  184 1    
   122   60   61 2    
   123   60   62 1    
   124   62   63 1    
   125   62   64 1    
   126   62  185 1    
   127   63  186 1    
   128   63  187 1    
   129   63  188 1    
   130   64   65 am   BACKBONE|DICT|INTERRES
   131   64  189 1    
   132   65   66 2    
   133   67   68 2    
   134   67   69 am   BACKBONE|DICT|INTERRES
   135   69   70 1    
   136   69  190 1    
   137   70   71 1    
   138   70   72 1    
   139   70  191 1    
   140   71  192 1    
   141   71  193 1    
   142   71  194 1    
   143   72   73 2    
   144   72   74 am   BACKBONE|DICT|INTERRES
   145   74   75 1    
   146   74  195 1    
   147   75   76 1    
   148   75   77 1    
   149   75  196 1    
   150   76  197 1    
   151   76  198 1    
   152   76  199 1    
   153   77   78 2    
   154   77   79 am   BACKBONE|DICT|INTERRES
   155   79   80 1    
   156   79  200 1    
   157   80   81 1    
   158   80   82 1    
   159   80  201 1    
   160   81  202 1    
   161   81  203 1    
   162   81  204 1    
   163   82   83 2    
   164   82   84 am   BACKBONE|DICT|INTERRES
   165   84   85 1    
   166   84  205 1    
   167   85   86 1    
   168   85   87 1    
   169   85  206 1    
   170   86  207 1    
   171   86  208 1    
   172   86  209 1    
   173   87   88 2    
   174   87   89 am   BACKBONE|DICT|INTERRES
   175   89   90 1    
   176   89  210 1    
   177   90   91 1    
   178   90   92 1    
   179   90  211 1    
   180   91  212 1    
   181   91  213 1    
   182   91  214 1    
   183   92   93 2    
   184   92   94 am   BACKBONE|DICT|INTERRES
   185   94   95 1    
   186   94  215 1    
   187   95   96 1    
   188   95   97 1    
   189   95  216 1    
   190   96  217 1    
   191   96  218 1    
   192   96  219 1    
   193   97   98 2    
   194   97   99 am   BACKBONE|DICT|INTERRES
   195   99  100 1    
   196   99  220 1    
   197  100  101 1    
   198  100  102 1    
   199  100  221 1    
   200  101  222 1    
   201  101  223 1    
   202  101  224 1    
   203  102  103 2    
   204  102  104 am   BACKBONE|DICT|INTERRES
   205  104  105 1    
   206  104  225 1    
   207  105  106 1    
   208  105  107 1    
   209  105  226 1    
   210  106  227 1    
   211  106  228 1    
   212  106  229 1    
   213  107  108 2    
   214  107  109 am   BACKBONE|DICT|INTERRES
   215  109  110 1    
   216  109  230 1    
   217  110  111 1    
   218  110  112 1    
   219  110  231 1    
   220  111  232 1    
   221  111  233 1    
   222  111  234 1    
   223  112  113 2    
   224  112  114 am   BACKBONE|DICT|INTERRES
   225  114  115 1    
   226  114  235 1    
   227  115  116 1    
   228  115  117 1    
   229  115  236 1    
   230  116  237 1    
   231  116  238 1    
   232  116  239 1    
   233  117  118 2    
   234  117  119 am   BACKBONE|DICT|INTERRES
   235  119  120 1    
   236  119  240 1    
   237  120  121 1    
   238  120  124 1    
   239  120  241 1    
   240  121  122 am   BACKBONE|DICT|INTERRES
   241  121  123 2    
   242  122  242 1    
   243  122  243 1    
   244  124  125 1    
   245  124  244 1    
   246  124  245 1    
   247  125  126 1    
   248  126  246 1    
   249  126  247 1    
@<TRIPOS>SUBSTRUCTURE
     1 UNK         1 GROUP             0       ****    0 ROOT    
