@<TRIPOS>MOLECULE
3R540
247   249    1
SMALL
USER_CHARGES


@<TRIPOS>ATOM
      1 CA         -2.9079  -14.4938  -46.4584 C.3       0 UNK        -0.1800 
      2 C          -2.1499  -13.1810  -46.6070 C.2       0 UNK         0.5000 
      3 O          -2.6381  -12.1381  -46.1707 O.2       0 UNK        -0.5000 
      4 N          -0.9677  -13.2273  -47.2334 N.am      1 UNK        -0.5000 
      5 CA         -0.0588  -12.0924  -47.4082 C.3       1 UNK         0.1400 
      6 C6          1.0075  -12.3491  -48.5064 C.3       23 UNK        -0.0398 
      7 S7          1.9315  -13.9239  -48.3676 S.3       23 UNK        -0.2404 
      8 C8          1.0602  -14.9445  -49.6075 C.3       23 UNK        -0.0205 
      9 C9          1.6996  -16.3056  -49.8786 C.ar      23 UNK        -0.0193 
     10 C10         1.6575  -16.8261  -51.1757 C.ar      23 UNK        -0.1150 
     11 C11         2.1929  -18.0849  -51.4596 C.ar      23 UNK        -0.0193 
     12 C12         2.7907  -18.8235  -50.4366 C.ar      23 UNK        -0.1150 
     13 C13         2.8156  -18.3363  -49.1262 C.ar      23 UNK        -0.0193 
     14 C14         2.2788  -17.0716  -48.8589 C.ar      23 UNK        -0.1150 
     15 C15         3.4102  -19.1705  -47.9929 C.3       23 UNK        -0.0205 
     16 S16         2.8578  -20.9163  -47.9748 S.3       23 UNK        -0.2404 
     17 C17         1.0583  -20.7633  -48.2315 C.3       23 UNK        -0.0398 
     18 CA          0.2512  -21.9401  -47.6305 C.3       11 UNK         0.1400 
     19 N           0.1631  -21.8926  -46.1655 N.am      11 UNK        -0.5000 
     20 C          -0.4289  -22.8217  -45.3978 C.2       10 UNK         0.5000 
     21 O          -0.9113  -23.8662  -45.8362 O.2       10 UNK        -0.5000 
     22 CA         -0.5637  -22.5098  -43.8947 C.3       10 UNK         0.1400 
     23 CB          0.7558  -22.7591  -43.1493 C.3       10 UNK        -0.1800 
     24 N          -1.0311  -21.1448  -43.6468 N.am      10 UNK        -0.5000 
     25 C          -2.2364  -20.6813  -44.0113 C.2       9 UNK         0.5000 
     26 O          -3.1054  -21.3739  -44.5389 O.2       9 UNK        -0.5000 
     27 CA         -2.4927  -19.1770  -43.8126 C.3       9 UNK         0.1400 
     28 CB         -2.9514  -18.8709  -42.3792 C.3       9 UNK        -0.1800 
     29 N          -1.3105  -18.3823  -44.1427 N.am      9 UNK        -0.5000 
     30 C          -0.8213  -18.2609  -45.3846 C.2       8 UNK         0.5000 
     31 O          -1.3616  -18.7356  -46.3828 O.2       8 UNK        -0.5000 
     32 CA          0.5248  -17.5385  -45.5345 C.3       8 UNK         0.1400 
     33 CB          0.3155  -16.0350  -45.7275 C.3       8 UNK        -0.1800 
     34 N           1.4312  -17.7907  -44.4135 N.am      8 UNK        -0.5000 
     35 C           2.0146  -18.9809  -44.2009 C.2       7 UNK         0.5000 
     36 O           1.8492  -19.9501  -44.9370 O.2       7 UNK        -0.5000 
     37 CA          2.8859  -19.1449  -42.9422 C.3       7 UNK         0.1400 
     38 CB          4.3470  -18.7875  -43.2499 C.3       7 UNK        -0.1800 
     39 N           2.4186  -18.3462  -41.8120 N.am      7 UNK        -0.5000 
     40 C           1.2148  -18.4621  -41.2335 C.2       6 UNK         0.5000 
     41 O           0.3913  -19.3230  -41.5452 O.2       6 UNK        -0.5000 
     42 CA          0.8520  -17.4027  -40.1729 C.3       6 UNK         0.1400 
     43 CB          1.0758  -17.9596  -38.7595 C.3       6 UNK        -0.1800 
     44 N           1.6003  -16.1474  -40.3214 N.am      6 UNK        -0.5000 
     45 C           1.5179  -15.3287  -41.3825 C.2       5 UNK         0.5000 
     46 O           0.7898  -15.5436  -42.3508 O.2       5 UNK        -0.5000 
     47 CA          2.4867  -14.1380  -41.4125 C.3       5 UNK         0.1400 
     48 CB          2.2397  -13.1693  -40.2450 C.3       5 UNK        -0.1800 
     49 N           3.8578  -14.6529  -41.3470 N.am      5 UNK        -0.5000 
     50 C           4.7733  -14.7622  -42.3246 C.2       4 UNK         0.5000 
     51 O           5.7829  -15.4429  -42.1550 O.2       4 UNK        -0.5000 
     52 CA          4.6309  -13.9947  -43.6606 C.3       4 UNK         0.1400 
     53 CB          3.6516  -14.6772  -44.6287 C.3       4 UNK        -0.1800 
     54 N           4.2868  -12.5825  -43.4914 N.am      4 UNK        -0.5000 
     55 C           5.0658  -11.6687  -42.8954 C.2       3 UNK         0.5000 
     56 O           6.2042  -11.9134  -42.4931 O.2       3 UNK        -0.5000 
     57 CA          4.4843  -10.2551  -42.6707 C.3       3 UNK         0.1400 
     58 CB          5.4461   -9.1515  -43.1588 C.3       3 UNK        -0.1800 
     59 N           3.1263  -10.0421  -43.1925 N.am      3 UNK        -0.5000 
     60 C           2.7313   -9.9983  -44.4722 C.2       2 UNK         0.5000 
     61 O           3.4779  -10.1654  -45.4389 O.2       2 UNK        -0.5000 
     62 CA          1.2396   -9.6905  -44.6949 C.3       2 UNK         0.1400 
     63 CB          1.0158   -8.1737  -44.7980 C.3       2 UNK        -0.1800 
     64 N           0.7066  -10.3291  -45.8970 N.am      2 UNK        -0.5000 
     65 C           0.5631  -11.6499  -46.0651 C.2       1 UNK         0.5000 
     66 O           0.8806  -12.4876  -45.2161 O.2       1 UNK        -0.5000 
     67 C          -1.1428  -22.0040  -48.2841 C.2       11 UNK         0.5000 
     68 O          -1.3657  -22.8599  -49.1398 O.2       11 UNK        -0.5000 
     69 N          -2.0612  -21.1264  -47.8523 N.am      12 UNK        -0.5000 
     70 CA         -3.4446  -21.0907  -48.3229 C.3       12 UNK         0.1400 
     71 CB         -4.1739  -19.8738  -47.7368 C.3       12 UNK        -0.1800 
     72 C          -4.2065  -22.3895  -48.0153 C.2       12 UNK         0.5000 
     73 O          -4.8639  -22.9182  -48.9101 O.2       12 UNK        -0.5000 
     74 N          -4.0773  -22.9025  -46.7837 N.am      13 UNK        -0.5000 
     75 CA         -4.6738  -24.1643  -46.3411 C.3       13 UNK         0.1400 
     76 CB         -4.4309  -24.3574  -44.8369 C.3       13 UNK        -0.1800 
     77 C          -4.1659  -25.3784  -47.1388 C.2       13 UNK         0.5000 
     78 O          -4.9779  -26.1912  -47.5833 O.2       13 UNK        -0.5000 
     79 N          -2.8443  -25.4503  -47.3558 N.am      14 UNK        -0.5000 
     80 CA         -2.1882  -26.4728  -48.1764 C.3       14 UNK         0.1400 
     81 CB         -0.6643  -26.3253  -48.0535 C.3       14 UNK        -0.1800 
     82 C          -2.6205  -26.4296  -49.6553 C.2       14 UNK         0.5000 
     83 O          -2.7236  -27.4783  -50.2917 O.2       14 UNK        -0.5000 
     84 N          -2.9074  -25.2225  -50.1568 N.am      15 UNK        -0.5000 
     85 CA         -3.4259  -24.9529  -51.4961 C.3       15 UNK         0.1400 
     86 CB         -2.8824  -23.5950  -51.9641 C.3       15 UNK        -0.1800 
     87 C          -4.9676  -25.0148  -51.5846 C.2       15 UNK         0.5000 
     88 O          -5.5282  -24.5209  -52.5649 O.2       15 UNK        -0.5000 
     89 N          -5.6300  -25.6122  -50.5818 N.am      16 UNK        -0.5000 
     90 CA         -7.0742  -25.8570  -50.4942 C.3       16 UNK         0.1400 
     91 CB         -7.5257  -26.8446  -51.5916 C.3       16 UNK        -0.1800 
     92 C          -7.9000  -24.5547  -50.4738 C.2       16 UNK         0.5000 
     93 O          -8.8157  -24.3844  -51.2790 O.2       16 UNK        -0.5000 
     94 N          -7.5328  -23.6557  -49.5510 N.am      17 UNK        -0.5000 
     95 CA         -8.0470  -22.2928  -49.3718 C.3       17 UNK         0.1400 
     96 CB         -9.5620  -22.2817  -49.0762 C.3       17 UNK        -0.1800 
     97 C          -7.6330  -21.3704  -50.5362 C.2       17 UNK         0.5000 
     98 O          -8.4396  -20.5743  -51.0198 O.2       17 UNK        -0.5000 
     99 N          -6.3654  -21.5114  -50.9532 N.am      18 UNK        -0.5000 
    100 CA        -5.6935  -20.7973  -52.0445 C.3       18 UNK         0.1400 
    101 CB        -5.4732  -19.3174  -51.6709 C.3       18 UNK        -0.1800 
    102 C         -6.3810  -20.9853  -53.4152 C.2       18 UNK         0.5000 
    103 O         -6.4485  -20.0481  -54.2130 O.2       18 UNK        -0.5000 
    104 N         -6.8961  -22.1969  -53.6557 N.am      19 UNK        -0.5000 
    105 CA        -7.5791  -22.5810  -54.8876 C.3       19 UNK         0.1400 
    106 CB        -8.7198  -23.5516  -54.5474 C.3       19 UNK        -0.1800 
    107 C         -6.6082  -23.2273  -55.8869 C.2       19 UNK         0.5000 
    108 O         -6.7010  -22.9559  -57.0846 O.2       19 UNK        -0.5000 
    109 N         -5.7008  -24.0752  -55.3836 N.am      20 UNK        -0.5000 
    110 CA        -4.7352  -24.8218  -56.1909 C.3       20 UNK         0.1400 
    111 CB        -4.2784  -26.0582  -55.4016 C.3       20 UNK        -0.1800 
    112 C         -3.5189  -23.9759  -56.6080 C.2       20 UNK         0.5000 
    113 O         -2.9095  -24.2604  -57.6399 O.2       20 UNK        -0.5000 
    114 N         -3.1830  -22.9647  -55.8008 N.am      21 UNK        -0.5000 
    115 CA        -2.0375  -22.0756  -55.9549 C.3       21 UNK         0.1400 
    116 CB        -0.7315  -22.8338  -55.6407 C.3       21 UNK        -0.1800 
    117 C         -2.2080  -20.8883  -54.9976 C.2       21 UNK         0.5000 
    118 O         -3.0307  -20.9554  -54.0822 O.2       21 UNK        -0.5000 
    119 N         -1.4050  -19.8396  -55.2103 N.am      22 UNK        -0.5000 
    120 CA        -1.2600  -18.6662  -54.3254 C.3       22 UNK         0.1400 
    121 C         -2.5052  -17.7293  -54.2410 C.2       22 UNK         0.5000 
    122 N         -3.5022  -17.8695  -55.1051 N.am      22 UNK        -0.7600 
    123 O         -2.5543  -16.8329  -53.4033 O.2       22 UNK        -0.5000 
    124 C124       -0.7016  -19.0325  -52.9186 C.3       23 UNK        -0.0398 
    125 S125        0.8630  -19.9766  -52.9945 S.3       23 UNK        -0.2404 
    126 C126        2.1148  -18.6583  -52.8661 C.3       23 UNK        -0.0205 
    127 H127       -2.7751  -14.8926  -45.4526 H         1 UNK         0.0600 
    128 H128       -3.9735  -14.3362  -46.6257 H         1 UNK         0.0600 
    129 H129       -2.5652  -15.2414  -47.1739 H         1 UNK         0.0600 
    130 H130       -0.5926  -14.1165  -47.5242 H         1 UNK         0.3000 
    131 H131       -0.6713  -11.2594  -47.7611 H         1 UNK         0.0600 
    132 H132        0.5217  -12.3143  -49.4821 H         1 UNK         0.0800 
    133 H133        1.7335  -11.5342  -48.5278 H         1 UNK         0.0800 
    134 H134        1.0091  -14.3775  -50.5384 H         1 UNK         0.0800 
    135 H135        0.0311  -15.1061  -49.2862 H         1 UNK         0.0800 
    136 H136        1.1925  -16.2551  -51.9672 H         1 UNK         0.1150 
    137 H137        3.2043  -19.7978  -50.6561 H         1 UNK         0.1150 
    138 H138        2.3086  -16.6828  -47.8522 H         1 UNK         0.1150 
    139 H139        4.4971  -19.1501  -48.0781 H         1 UNK         0.0800 
    140 H140        3.1747  -18.7250  -47.0265 H         1 UNK         0.0800 
    141 H141        0.7079  -19.8152  -47.8241 H         1 UNK         0.0800 
    142 H142        0.9057  -20.7025  -49.3113 H         1 UNK         0.0800 
    143 H143        0.7609  -22.8703  -47.8903 H         1 UNK         0.0600 
    144 H144        0.6098  -21.0976  -45.7145 H         1 UNK         0.3000 
    145 H145       -1.3113  -23.1907  -43.4826 H         1 UNK         0.0600 
    146 H146        0.6535  -22.5507  -42.0841 H         1 UNK         0.0600 
    147 H147        1.0653  -23.8000  -43.2499 H         1 UNK         0.0600 
    148 H148        1.5658  -22.1417  -43.5349 H         1 UNK         0.0600 
    149 H149       -0.3870  -20.5120  -43.1875 H         1 UNK         0.3000 
    150 H150       -3.2966  -18.8831  -44.4909 H         1 UNK         0.0600 
    151 H151       -3.8726  -19.4064  -42.1464 H         1 UNK         0.0600 
    152 H152       -3.1517  -17.8075  -42.2474 H         1 UNK         0.0600 
    153 H153       -2.2085  -19.1670  -41.6392 H         1 UNK         0.0600 
    154 H154       -0.7875  -17.9934  -43.3713 H         1 UNK         0.3000 
    155 H155        0.9926  -17.9260  -46.4386 H         1 UNK         0.0600 
    156 H156        1.2591  -15.5219  -45.8993 H         1 UNK         0.0600 
    157 H157       -0.1727  -15.5713  -44.8699 H         1 UNK         0.0600 
    158 H158       -0.3053  -15.8571  -46.6037 H         1 UNK         0.0600 
    159 H159        1.5406  -17.0458  -43.7367 H         1 UNK         0.3000 
    160 H160        2.8454  -20.1950  -42.6463 H         1 UNK         0.0600 
    161 H161        4.4577  -17.7380  -43.5222 H         1 UNK         0.0600 
    162 H162        4.9902  -18.9800  -42.3910 H         1 UNK         0.0600 
    163 H163        4.7278  -19.3838  -44.0803 H         1 UNK         0.0600 
    164 H164        3.0354  -17.6182  -41.4853 H         1 UNK         0.3000 
    165 H165       -0.2102  -17.1772  -40.2893 H         1 UNK         0.0600 
    166 H166        0.7462  -17.2513  -37.9992 H         1 UNK         0.0600 
    167 H167        0.5114  -18.8811  -38.6091 H         1 UNK         0.0600 
    168 H168        2.1272  -18.1852  -38.5770 H         1 UNK         0.0600 
    169 H169        2.2148  -15.9050  -39.5586 H         1 UNK         0.3000 
    170 H170        2.2873  -13.5913  -42.3310 H         1 UNK         0.0600 
    171 H171        2.4285  -13.6327  -39.2762 H         1 UNK         0.0600 
    172 H172        2.8850  -12.2942  -40.3238 H         1 UNK         0.0600 
    173 H173        1.2089  -12.8127  -40.2451 H         1 UNK         0.0600 
    174 H174        4.0862  -15.1152  -40.4804 H         1 UNK         0.3000 
    175 H175        5.6117  -14.0212  -44.1405 H         1 UNK         0.0600 
    176 H176        2.6243  -14.6379  -44.2729 H         1 UNK         0.0600 
    177 H177        3.6750  -14.1997  -45.6086 H         1 UNK         0.0600 
    178 H178        3.9086  -15.7263  -44.7762 H         1 UNK         0.0600 
    179 H179        3.3788  -12.2929  -43.8250 H         1 UNK         0.3000 
    180 H180        4.3974  -10.1484  -41.5885 H         1 UNK         0.0600 
    181 H181        6.4037   -9.2095  -42.6401 H         1 UNK         0.0600 
    182 H182        5.6518   -9.2330  -44.2263 H         1 UNK         0.0600 
    183 H183        5.0372   -8.1590  -42.9696 H         1 UNK         0.0600 
    184 H184        2.4235   -9.8953  -42.4808 H         1 UNK         0.3000 
    185 H185        0.6739  -10.0672  -43.8399 H         1 UNK         0.0600 
    186 H186        1.5431   -7.7466  -45.6521 H         1 UNK         0.0600 
    187 H187       -0.0430   -7.9362  -44.9032 H         1 UNK         0.0600 
    188 H188        1.3740   -7.6626  -43.9033 H         1 UNK         0.0600 
    189 H189        0.4467   -9.7076  -46.6487 H         1 UNK         0.3000 
    190 H190       -1.7951  -20.4191  -47.1722 H         1 UNK         0.3000 
    191 H191       -3.4186  -20.9746  -49.4084 H         1 UNK         0.0600 
    192 H192       -5.2036  -19.8263  -48.0937 H         1 UNK         0.0600 
    193 H193       -3.6854  -18.9442  -48.0296 H         1 UNK         0.0600 
    194 H194       -4.2036  -19.9067  -46.6476 H         1 UNK         0.0600 
    195 H195       -3.5461  -22.3854  -46.0874 H         1 UNK         0.3000 
    196 H196       -5.7514  -24.0923  -46.5014 H         1 UNK         0.0600 
    197 H197       -4.8718  -25.2910  -44.4854 H         1 UNK         0.0600 
    198 H198       -4.8793  -23.5487  -44.2596 H         1 UNK         0.0600 
    199 H199       -3.3669  -24.3857  -44.6006 H         1 UNK         0.0600 
    200 H200       -2.2379  -24.7526  -46.9315 H         1 UNK         0.3000 
    201 H201       -2.4699  -27.4498  -47.7786 H         1 UNK         0.0600 
    202 H202       -0.3401  -26.4368  -47.0187 H         1 UNK         0.0600 
    203 H203       -0.3255  -25.3505  -48.4061 H         1 UNK         0.0600 
    204 H204       -0.1482  -27.0860  -48.6404 H         1 UNK         0.0600 
    205 H205       -2.7488  -24.4095  -49.5713 H         1 UNK         0.3000 
    206 H206       -3.0453  -25.7126  -52.1807 H         1 UNK         0.0600 
    207 H207       -1.7926  -23.5936  -51.9879 H         1 UNK         0.0600 
    208 H208       -3.2249  -23.3579  -52.9701 H         1 UNK         0.0600 
    209 H209       -3.1984  -22.7890  -51.3027 H         1 UNK         0.0600 
    210 H210       -5.0910  -25.9330  -49.7870 H         1 UNK         0.3000 
    211 H211       -7.2435  -26.3407  -49.5311 H         1 UNK         0.0600 
    212 H212       -7.4183  -26.4226  -52.5913 H         1 UNK         0.0600 
    213 H213       -8.5742  -27.1156  -51.4639 H         1 UNK         0.0600 
    214 H214       -6.9456  -27.7666  -51.5538 H         1 UNK         0.0600 
    215 H215       -6.6931  -23.8577  -49.0201 H         1 UNK         0.3000 
    216 H216       -7.5455  -21.8989  -48.4866 H         1 UNK         0.0600 
    217 H217       -9.8093  -22.9574  -48.2575 H         1 UNK         0.0600 
    218 H218      -10.1518  -22.5748  -49.9448 H         1 UNK         0.0600 
    219 H219       -9.8917  -21.2840  -48.7843 H         1 UNK         0.0600 
    220 H220       -5.7968  -22.1904  -50.4560 H         1 UNK         0.3000 
    221 H221       -4.7110  -21.2556  -52.1380 H         1 UNK         0.0600 
    222 H222       -6.4153  -18.7735  -51.5994 H         1 UNK         0.0600 
    223 H223       -4.9560  -19.2233  -50.7165 H         1 UNK         0.0600 
    224 H224       -4.8597  -18.8153  -52.4200 H         1 UNK         0.0600 
    225 H225       -6.7510  -22.9310  -52.9712 H         1 UNK         0.3000 
    226 H226       -8.0182  -21.7002  -55.3609 H         1 UNK         0.0600 
    227 H227       -9.4352  -23.0928  -53.8644 H         1 UNK         0.0600 
    228 H228       -9.2660  -23.8443  -55.4449 H         1 UNK         0.0600 
    229 H229       -8.3478  -24.4622  -54.0758 H         1 UNK         0.0600 
    230 H230       -5.6853  -24.2437  -54.3799 H         1 UNK         0.3000 
    231 H231       -5.2304  -25.1664  -57.1013 H         1 UNK         0.0600 
    232 H232       -3.7370  -25.7786  -54.4982 H         1 UNK         0.0600 
    233 H233       -5.1268  -26.6763  -55.1072 H         1 UNK         0.0600 
    234 H234       -3.6137  -26.6805  -56.0021 H         1 UNK         0.0600 
    235 H235       -3.7602  -22.7532  -54.9964 H         1 UNK         0.3000 
    236 H236       -2.0140  -21.6979  -56.9789 H         1 UNK         0.0600 
    237 H237        0.1361  -22.1776  -55.7193 H         1 UNK         0.0600 
    238 H238       -0.7416  -23.2414  -54.6289 H         1 UNK         0.0600 
    239 H239       -0.5692  -23.6602  -56.3322 H         1 UNK         0.0600 
    240 H240       -0.7710  -19.8663  -55.9957 H         1 UNK         0.3000 
    241 H241       -0.5033  -18.0472  -54.8082 H         1 UNK         0.0600 
    242 H242       -4.3008  -17.2584  -55.0458 H         1 UNK         0.3800 
    243 H243       -3.4859  -18.6084  -55.7888 H         1 UNK         0.3800 
    244 H244       -1.4295  -19.6293  -52.3669 H         1 UNK         0.0800 
    245 H245       -0.5444  -18.1361  -52.3190 H         1 UNK         0.0800 
    246 H246        1.8996  -17.8768  -53.5964 H         1 UNK         0.0800 
    247 H247        3.0877  -19.0700  -53.1385 H         1 UNK         0.0800 
@<TRIPOS>BOND
     1    1    2 1    
     2    1  127 1    
     3    1  128 1    
     4    1  129 1    
     5    2    3 2    
     6    2    4 am   BACKBONE|DICT|INTERRES
     7    4    5 1    
     8    4  130 1    
     9    5    6 1    
    10    5   65 1    
    11    5  131 1    
    12    6    7 1    
    13    6  132 1    
    14    6  133 1    
    15    7    8 1    
    16    8    9 1    
    17    8  134 1    
    18    8  135 1    
    19    9   10 ar   
    20    9   14 ar   
    21   10   11 ar   
    22   10  136 1    
    23   11   12 ar   
    24   11  126 1    
    25   12   13 ar   
    26   12  137 1    
    27   13   14 ar   
    28   13   15 1    
    29   14  138 1    
    30   15   16 1    
    31   15  139 1    
    32   15  140 1    
    33   16   17 1    
    34   17   18 1    
    35   17  141 1    
    36   17  142 1    
    37   18   19 1    
    38   18   67 1    
    39   18  143 1    
    40   19   20 am   BACKBONE|DICT|INTERRES
    41   19  144 1    
    42   20   21 2    
    43   20   22 1    
    44   22   23 1    
    45   22   24 1    
    46   22  145 1    
    47   23  146 1    
    48   23  147 1    
    49   23  148 1    
    50   24   25 am   BACKBONE|DICT|INTERRES
    51   24  149 1    
    52   25   26 2    
    53   25   27 1    
    54   27   28 1    
    55   27   29 1    
    56   27  150 1    
    57   28  151 1    
    58   28  152 1    
    59   28  153 1    
    60   29   30 am   BACKBONE|DICT|INTERRES
    61   29  154 1    
    62   30   31 2    
    63   30   32 1    
    64   32   33 1    
    65   32   34 1    
    66   32  155 1    
    67   33  156 1    
    68   33  157 1    
    69   33  158 1    
    70   34   35 am   BACKBONE|DICT|INTERRES
    71   34  159 1    
    72   35   36 2    
    73   35   37 1    
    74   37   38 1    
    75   37   39 1    
    76   37  160 1    
    77   38  161 1    
    78   38  162 1    
    79   38  163 1    
    80   39   40 am   BACKBONE|DICT|INTERRES
    81   39  164 1    
    82   40   41 2    
    83   40   42 1    
    84   42   43 1    
    85   42   44 1    
    86   42  165 1    
    87   43  166 1    
    88   43  167 1    
    89   43  168 1    
    90   44   45 am   BACKBONE|DICT|INTERRES
    91   44  169 1    
    92   45   46 2    
    93   45   47 1    
    94   47   48 1    
    95   47   49 1    
    96   47  170 1    
    97   48  171 1    
    98   48  172 1    
    99   48  173 1    
   100   49   50 am   BACKBONE|DICT|INTERRES
   101   49  174 1    
   102   50   51 2    
   103   50   52 1    
   104   52   53 1    
   105   52   54 1    
   106   52  175 1    
   107   53  176 1    
   108   53  177 1    
   109   53  178 1    
   110   54   55 am   BACKBONE|DICT|INTERRES
   111   54  179 1    
   112   55   56 2    
   113   55   57 1    
   114   57   58 1    
   115   57   59 1    
   116   57  180 1    
   117   58  181 1    
   118   58  182 1    
   119   58  183 1    
   120   59   60 am   BACKBONE|DICT|INTERRES
   121   59  184 1    
   122   60   61 2    
   123   60   62 1    
   124   62   63 1    
   125   62   64 1    
   126   62  185 1    
   127   63  186 1    
   128   63  187 1    
   129   63  188 1    
   130   64   65 am   BACKBONE|DICT|INTERRES
   131   64  189 1    
   132   65   66 2    
   133   67   68 2    
   134   67   69 am   BACKBONE|DICT|INTERRES
   135   69   70 1    
   136   69  190 1    
   137   70   71 1    
   138   70   72 1    
   139   70  191 1    
   140   71  192 1    
   141   71  193 1    
   142   71  194 1    
   143   72   73 2    
   144   72   74 am   BACKBONE|DICT|INTERRES
   145   74   75 1    
   146   74  195 1    
   147   75   76 1    
   148   75   77 1    
   149   75  196 1    
   150   76  197 1    
   151   76  198 1    
   152   76  199 1    
   153   77   78 2    
   154   77   79 am   BACKBONE|DICT|INTERRES
   155   79   80 1    
   156   79  200 1    
   157   80   81 1    
   158   80   82 1    
   159   80  201 1    
   160   81  202 1    
   161   81  203 1    
   162   81  204 1    
   163   82   83 2    
   164   82   84 am   BACKBONE|DICT|INTERRES
   165   84   85 1    
   166   84  205 1    
   167   85   86 1    
   168   85   87 1    
   169   85  206 1    
   170   86  207 1    
   171   86  208 1    
   172   86  209 1    
   173   87   88 2    
   174   87   89 am   BACKBONE|DICT|INTERRES
   175   89   90 1    
   176   89  210 1    
   177   90   91 1    
   178   90   92 1    
   179   90  211 1    
   180   91  212 1    
   181   91  213 1    
   182   91  214 1    
   183   92   93 2    
   184   92   94 am   BACKBONE|DICT|INTERRES
   185   94   95 1    
   186   94  215 1    
   187   95   96 1    
   188   95   97 1    
   189   95  216 1    
   190   96  217 1    
   191   96  218 1    
   192   96  219 1    
   193   97   98 2    
   194   97   99 am   BACKBONE|DICT|INTERRES
   195   99  100 1    
   196   99  220 1    
   197  100  101 1    
   198  100  102 1    
   199  100  221 1    
   200  101  222 1    
   201  101  223 1    
   202  101  224 1    
   203  102  103 2    
   204  102  104 am   BACKBONE|DICT|INTERRES
   205  104  105 1    
   206  104  225 1    
   207  105  106 1    
   208  105  107 1    
   209  105  226 1    
   210  106  227 1    
   211  106  228 1    
   212  106  229 1    
   213  107  108 2    
   214  107  109 am   BACKBONE|DICT|INTERRES
   215  109  110 1    
   216  109  230 1    
   217  110  111 1    
   218  110  112 1    
   219  110  231 1    
   220  111  232 1    
   221  111  233 1    
   222  111  234 1    
   223  112  113 2    
   224  112  114 am   BACKBONE|DICT|INTERRES
   225  114  115 1    
   226  114  235 1    
   227  115  116 1    
   228  115  117 1    
   229  115  236 1    
   230  116  237 1    
   231  116  238 1    
   232  116  239 1    
   233  117  118 2    
   234  117  119 am   BACKBONE|DICT|INTERRES
   235  119  120 1    
   236  119  240 1    
   237  120  121 1    
   238  120  124 1    
   239  120  241 1    
   240  121  122 am   BACKBONE|DICT|INTERRES
   241  121  123 2    
   242  122  242 1    
   243  122  243 1    
   244  124  125 1    
   245  124  244 1    
   246  124  245 1    
   247  125  126 1    
   248  126  246 1    
   249  126  247 1    
@<TRIPOS>SUBSTRUCTURE
     1 UNK         1 GROUP             0       ****    0 ROOT    
