@<TRIPOS>MOLECULE
3R540
247   249    1
SMALL
USER_CHARGES


@<TRIPOS>ATOM
      1 CA         -1.7337  -13.6157  -55.8664 C.3       0 UNK        -0.1800 
      2 C          -0.5758  -13.9033  -54.9205 C.2       0 UNK         0.5000 
      3 O          -0.0447  -12.9796  -54.3039 O.2       0 UNK        -0.5000 
      4 N          -0.1803  -15.1770  -54.8105 N.am      1 UNK        -0.5000 
      5 CA          0.8617  -15.6502  -53.8977 C.3       1 UNK         0.1400 
      6 C6          1.3986  -17.0348  -54.3368 C.3       23 UNK        -0.0398 
      7 S7          3.0176  -17.4455  -53.5950 S.3       23 UNK        -0.2404 
      8 C8          2.7239  -19.1124  -52.9190 C.3       23 UNK        -0.0205 
      9 C9          2.1917  -19.0752  -51.4938 C.ar      23 UNK        -0.0193 
     10 C10         0.8236  -18.9453  -51.2513 C.ar      23 UNK        -0.1150 
     11 C11         0.3201  -18.9292  -49.9486 C.ar      23 UNK        -0.0193 
     12 C12         1.2091  -19.0702  -48.8745 C.ar      23 UNK        -0.1150 
     13 C13         2.5851  -19.1844  -49.1007 C.ar      23 UNK        -0.0193 
     14 C14         3.0679  -19.1884  -50.4123 C.ar      23 UNK        -0.1150 
     15 C15         3.5656  -19.2600  -47.9402 C.3       23 UNK        -0.0205 
     16 S16         3.9648  -20.9769  -47.4789 S.3       23 UNK        -0.2404 
     17 C17         3.1229  -21.1545  -45.8680 C.3       23 UNK        -0.0398 
     18 CA          2.2054  -22.3959  -45.7749 C.3       11 UNK         0.1400 
     19 N           1.8681  -22.6915  -44.3788 N.am      11 UNK        -0.5000 
     20 C           1.1669  -23.7488  -43.9509 C.2       10 UNK         0.5000 
     21 O           0.7140  -24.6126  -44.7035 O.2       10 UNK        -0.5000 
     22 CA          0.8866  -23.8410  -42.4437 C.3       10 UNK         0.1400 
     23 CB          1.8027  -22.9564  -41.5730 C.3       10 UNK        -0.1800 
     24 N          -0.5020  -23.4567  -42.2165 N.am      10 UNK        -0.5000 
     25 C          -1.3770  -24.1265  -41.4556 C.2       9 UNK         0.5000 
     26 O          -1.0970  -25.1705  -40.8639 O.2       9 UNK        -0.5000 
     27 CA         -2.8131  -23.5608  -41.3494 C.3       9 UNK         0.1400 
     28 CB         -3.4104  -23.7306  -39.9363 C.3       9 UNK        -0.1800 
     29 N          -2.9623  -22.1775  -41.8231 N.am      9 UNK        -0.5000 
     30 C          -2.4285  -21.0696  -41.2886 C.2       8 UNK         0.5000 
     31 O          -1.7361  -21.0481  -40.2693 O.2       8 UNK        -0.5000 
     32 CA         -2.7071  -19.7596  -42.0502 C.3       8 UNK         0.1400 
     33 CB         -3.6186  -18.8360  -41.2286 C.3       8 UNK        -0.1800 
     34 N          -1.4846  -19.0379  -42.4064 N.am      8 UNK        -0.5000 
     35 C          -0.4401  -19.5434  -43.0811 C.2       7 UNK         0.5000 
     36 O          -0.3864  -20.7032  -43.4967 O.2       7 UNK        -0.5000 
     37 CA          0.7393  -18.5985  -43.3830 C.3       7 UNK         0.1400 
     38 CB          0.6743  -18.1423  -44.8490 C.3       7 UNK        -0.1800 
     39 N           0.7892  -17.4196  -42.5167 N.am      7 UNK        -0.5000 
     40 C           1.0633  -17.4462  -41.2026 C.2       6 UNK         0.5000 
     41 O           1.3939  -18.4700  -40.6040 O.2       6 UNK        -0.5000 
     42 CA          0.9436  -16.1242  -40.4116 C.3       6 UNK         0.1400 
     43 CB          2.3358  -15.6095  -40.0131 C.3       6 UNK        -0.1800 
     44 N           0.2398  -15.0537  -41.1210 N.am      6 UNK        -0.5000 
     45 C          -1.0461  -15.0657  -41.5011 C.2       5 UNK         0.5000 
     46 O          -1.8254  -15.9815  -41.2384 O.2       5 UNK        -0.5000 
     47 CA         -1.5190  -13.8821  -42.3742 C.3       5 UNK         0.1400 
     48 CB         -2.2363  -12.8324  -41.5124 C.3       5 UNK        -0.1800 
     49 N          -0.4364  -13.2298  -43.1257 N.am      5 UNK        -0.5000 
     50 C           0.3342  -13.8410  -44.0359 C.2       4 UNK         0.5000 
     51 O           0.1856  -15.0214  -44.3652 O.2       4 UNK        -0.5000 
     52 CA          1.5021  -13.0307  -44.6203 C.3       4 UNK         0.1400 
     53 CB          2.5326  -12.7106  -43.5149 C.3       4 UNK        -0.1800 
     54 N           2.1070  -13.8441  -45.6704 N.am      4 UNK        -0.5000 
     55 C           3.1211  -13.5231  -46.4801 C.2       3 UNK         0.5000 
     56 O           3.6725  -12.4223  -46.5003 O.2       3 UNK        -0.5000 
     57 CA          3.5820  -14.6305  -47.4411 C.3       3 UNK         0.1400 
     58 CB          4.2091  -15.8061  -46.6738 C.3       3 UNK        -0.1800 
     59 N           2.4649  -15.1098  -48.2564 N.am      3 UNK        -0.5000 
     60 C           2.0994  -14.5446  -49.4122 C.2       2 UNK         0.5000 
     61 O           2.7085  -13.6133  -49.9461 O.2       2 UNK        -0.5000 
     62 CA          0.8417  -15.1007  -50.0886 C.3       2 UNK         0.1400 
     63 CB         -0.4001  -14.2765  -49.6977 C.3       2 UNK        -0.1800 
     64 N           1.0662  -15.0684  -51.5282 N.am      2 UNK        -0.5000 
     65 C           0.3241  -15.6811  -52.4536 C.2       1 UNK         0.5000 
     66 O          -0.7259  -16.2779  -52.2144 O.2       1 UNK        -0.5000 
     67 C           0.9551  -22.2633  -46.6713 C.2       11 UNK         0.5000 
     68 O           0.9644  -22.7561  -47.7981 O.2       11 UNK        -0.5000 
     69 N          -0.1227  -21.6674  -46.1395 N.am      12 UNK        -0.5000 
     70 CA         -1.3978  -21.5344  -46.8400 C.3       12 UNK         0.1400 
     71 CB         -2.3124  -20.5487  -46.1012 C.3       12 UNK        -0.1800 
     72 C          -2.1085  -22.8809  -47.0434 C.2       12 UNK         0.5000 
     73 O          -2.7460  -23.0659  -48.0770 O.2       12 UNK        -0.5000 
     74 N          -1.9660  -23.8096  -46.0875 N.am      13 UNK        -0.5000 
     75 CA         -2.4958  -25.1690  -46.2028 C.3       13 UNK         0.1400 
     76 CB         -2.4989  -25.8561  -44.8290 C.3       13 UNK        -0.1800 
     77 C          -1.7167  -25.9913  -47.2436 C.2       13 UNK         0.5000 
     78 O          -2.3337  -26.6943  -48.0440 O.2       13 UNK        -0.5000 
     79 N          -0.3842  -25.8411  -47.2521 N.am      14 UNK        -0.5000 
     80 CA          0.5171  -26.4485  -48.2341 C.3       14 UNK         0.1400 
     81 CB          1.9727  -26.2231  -47.7974 C.3       14 UNK        -0.1800 
     82 C           0.2840  -25.9266  -49.6667 C.2       14 UNK         0.5000 
     83 O           0.3063  -26.7143  -50.6127 O.2       14 UNK        -0.5000 
     84 N           0.0324  -24.6171  -49.7954 N.am      15 UNK        -0.5000 
     85 CA         -0.2740  -23.9352  -51.0548 C.3       15 UNK         0.1400 
     86 CB          0.0128  -22.4340  -50.8821 C.3       15 UNK        -0.1800 
     87 C          -1.7227  -24.1394  -51.5443 C.2       15 UNK         0.5000 
     88 O          -2.0448  -23.6817  -52.6417 O.2       15 UNK        -0.5000 
     89 N          -2.5844  -24.7616  -50.7227 N.am      16 UNK        -0.5000 
     90 CA         -4.0322  -24.9284  -50.9216 C.3       16 UNK         0.1400 
     91 CB         -4.3160  -25.9171  -52.0706 C.3       16 UNK        -0.1800 
     92 C          -4.7454  -23.5692  -51.0983 C.2       16 UNK         0.5000 
     93 O          -5.5387  -23.3847  -52.0233 O.2       16 UNK        -0.5000 
     94 N          -4.3606  -22.6182  -50.2360 N.am      17 UNK        -0.5000 
     95 CA         -4.7027  -21.1943  -50.1958 C.3       17 UNK         0.1400 
     96 CB         -6.2147  -20.9968  -49.9706 C.3       17 UNK        -0.1800 
     97 C          -4.2036  -20.3717  -51.4015 C.2       17 UNK         0.5000 
     98 O          -4.4792  -19.1722  -51.4431 O.2       17 UNK        -0.5000 
     99 N          -3.5050  -21.0110  -52.3562 N.am      18 UNK        -0.5000 
    100 CA        -3.2117  -20.5252  -53.7084 C.3       18 UNK         0.1400 
    101 CB        -2.0972  -19.4654  -53.6960 C.3       18 UNK        -0.1800 
    102 C         -4.5070  -20.0831  -54.4156 C.2       18 UNK         0.5000 
    103 O         -4.6750  -18.9101  -54.7595 O.2       18 UNK        -0.5000 
    104 N         -5.4422  -21.0410  -54.5025 N.am      19 UNK        -0.5000 
    105 CA        -6.8496  -20.9229  -54.8939 C.3       19 UNK         0.1400 
    106 CB        -7.0162  -20.3616  -56.3202 C.3       19 UNK        -0.1800 
    107 C         -7.6756  -20.1395  -53.8581 C.2       19 UNK         0.5000 
    108 O         -8.6022  -20.7001  -53.2721 O.2       19 UNK        -0.5000 
    109 N         -7.3085  -18.8740  -53.6356 N.am      20 UNK        -0.5000 
    110 CA        -7.9144  -17.9744  -52.6568 C.3       20 UNK         0.1400 
    111 CB        -9.2730  -17.4674  -53.1830 C.3       20 UNK        -0.1800 
    112 C         -6.9945  -16.7984  -52.2748 C.2       20 UNK         0.5000 
    113 O         -7.4333  -15.9334  -51.5154 O.2       20 UNK        -0.5000 
    114 N         -5.7553  -16.7460  -52.7893 N.am      21 UNK        -0.5000 
    115 CA        -4.8382  -15.6173  -52.5996 C.3       21 UNK         0.1400 
    116 CB        -3.6479  -15.7595  -53.5531 C.3       21 UNK        -0.1800 
    117 C         -4.3770  -15.3992  -51.1427 C.2       21 UNK         0.5000 
    118 O         -4.1705  -14.2492  -50.7518 O.2       21 UNK        -0.5000 
    119 N         -4.2855  -16.4777  -50.3528 N.am      22 UNK        -0.5000 
    120 CA        -4.1126  -16.4155  -48.8888 C.3       22 UNK         0.1400 
    121 C         -5.4296  -16.1204  -48.1041 C.2       22 UNK         0.5000 
    122 N         -6.5876  -15.9683  -48.7357 N.am      22 UNK        -0.7600 
    123 O         -5.4012  -16.0080  -46.8817 O.2       22 UNK        -0.5000 
    124 C124       -3.3885  -17.6730  -48.3324 C.3       23 UNK        -0.0398 
    125 S125       -1.5738  -17.5408  -48.4385 S.3       23 UNK        -0.2404 
    126 C126       -1.1817  -18.7613  -49.7298 C.3       23 UNK        -0.0205 
    127 H127       -1.4097  -12.9479  -56.6646 H         1 UNK         0.0600 
    128 H128       -2.5484  -13.1333  -55.3264 H         1 UNK         0.0600 
    129 H129       -2.1218  -14.5274  -56.3215 H         1 UNK         0.0600 
    130 H130       -0.6819  -15.8948  -55.3127 H         1 UNK         0.3000 
    131 H131        1.6889  -14.9384  -53.9508 H         1 UNK         0.0600 
    132 H132        0.6676  -17.8196  -54.1375 H         1 UNK         0.0800 
    133 H133        1.5471  -17.0423  -55.4176 H         1 UNK         0.0800 
    134 H134        3.6661  -19.6620  -52.9415 H         1 UNK         0.0800 
    135 H135        2.0423  -19.6692  -53.5638 H         1 UNK         0.0800 
    136 H136        0.1466  -18.8377  -52.0823 H         1 UNK         0.1150 
    137 H137        0.8308  -19.0699  -47.8633 H         1 UNK         0.1150 
    138 H138        4.1301  -19.2793  -50.5911 H         1 UNK         0.1150 
    139 H139        4.4953  -18.7654  -48.2242 H         1 UNK         0.0800 
    140 H140        3.1841  -18.6980  -47.0878 H         1 UNK         0.0800 
    141 H141        2.5700  -20.2514  -45.6162 H         1 UNK         0.0800 
    142 H142        3.9129  -21.2296  -45.1193 H         1 UNK         0.0800 
    143 H143        2.7687  -23.2568  -46.1413 H         1 UNK         0.0600 
    144 H144        2.1735  -22.0209  -43.6896 H         1 UNK         0.3000 
    145 H145        1.0508  -24.8839  -42.1654 H         1 UNK         0.0600 
    146 H146        1.6230  -23.1436  -40.5142 H         1 UNK         0.0600 
    147 H147        2.8558  -23.1691  -41.7613 H         1 UNK         0.0600 
    148 H148        1.6339  -21.8925  -41.7460 H         1 UNK         0.0600 
    149 H149       -0.7929  -22.5914  -42.6574 H         1 UNK         0.3000 
    150 H150       -3.4171  -24.1679  -42.0240 H         1 UNK         0.0600 
    151 H151       -3.4654  -24.7837  -39.6582 H         1 UNK         0.0600 
    152 H152       -4.4233  -23.3312  -39.8849 H         1 UNK         0.0600 
    153 H153       -2.8111  -23.2265  -39.1779 H         1 UNK         0.0600 
    154 H154       -3.5125  -22.0771  -42.6646 H         1 UNK         0.3000 
    155 H155       -3.2239  -19.9954  -42.9818 H         1 UNK         0.0600 
    156 H156       -3.1335  -18.5106  -40.3072 H         1 UNK         0.0600 
    157 H157       -4.5446  -19.3422  -40.9529 H         1 UNK         0.0600 
    158 H158       -3.8910  -17.9450  -41.7947 H         1 UNK         0.0600 
    159 H159       -1.4305  -18.0775  -42.0920 H         1 UNK         0.3000 
    160 H160        1.6596  -19.1680  -43.2394 H         1 UNK         0.0600 
    161 H161       -0.2216  -17.5523  -45.0462 H         1 UNK         0.0600 
    162 H162        0.6465  -18.9929  -45.5277 H         1 UNK         0.0600 
    163 H163        1.5409  -17.5384  -45.1157 H         1 UNK         0.0600 
    164 H164        0.5375  -16.5379  -42.9495 H         1 UNK         0.3000 
    165 H165        0.3834  -16.3442  -39.5006 H         1 UNK         0.0600 
    166 H166        2.2643  -14.7211  -39.3852 H         1 UNK         0.0600 
    167 H167        2.8848  -16.3620  -39.4452 H         1 UNK         0.0600 
    168 H168        2.9359  -15.3564  -40.8881 H         1 UNK         0.0600 
    169 H169        0.7972  -14.2559  -41.3861 H         1 UNK         0.3000 
    170 H170       -2.2339  -14.2791  -43.0979 H         1 UNK         0.0600 
    171 H171       -3.0637  -13.2799  -40.9598 H         1 UNK         0.0600 
    172 H172       -1.5617  -12.3802  -40.7843 H         1 UNK         0.0600 
    173 H173       -2.6527  -12.0343  -42.1272 H         1 UNK         0.0600 
    174 H174       -0.2566  -12.2614  -42.9019 H         1 UNK         0.3000 
    175 H175        1.1124  -12.1097  -45.0573 H         1 UNK         0.0600 
    176 H176        2.9527  -13.6205  -43.0842 H         1 UNK         0.0600 
    177 H177        3.3593  -12.1108  -43.8941 H         1 UNK         0.0600 
    178 H178        2.0827  -12.1395  -42.7023 H         1 UNK         0.0600 
    179 H179        1.6830  -14.7617  -45.7341 H         1 UNK         0.3000 
    180 H180        4.3580  -14.2116  -48.0858 H         1 UNK         0.0600 
    181 H181        3.4793  -16.3343  -46.0602 H         1 UNK         0.0600 
    182 H182        5.0043  -15.4599  -46.0121 H         1 UNK         0.0600 
    183 H183        4.6549  -16.5232  -47.3618 H         1 UNK         0.0600 
    184 H184        1.9137  -15.8684  -47.8833 H         1 UNK         0.3000 
    185 H185        0.7062  -16.1381  -49.7822 H         1 UNK         0.0600 
    186 H186       -0.5320  -14.2605  -48.6152 H         1 UNK         0.0600 
    187 H187       -0.3199  -13.2435  -50.0375 H         1 UNK         0.0600 
    188 H188       -1.3105  -14.6993  -50.1227 H         1 UNK         0.0600 
    189 H189        1.9124  -14.5822  -51.7971 H         1 UNK         0.3000 
    190 H190       -0.0917  -21.3328  -45.1792 H         1 UNK         0.3000 
    191 H191       -1.1857  -21.1260  -47.8270 H         1 UNK         0.0600 
    192 H192       -3.2403  -20.3916  -46.6523 H         1 UNK         0.0600 
    193 H193       -1.8359  -19.5756  -45.9848 H         1 UNK         0.0600 
    194 H194       -2.5791  -20.9167  -45.1110 H         1 UNK         0.0600 
    195 H195       -1.3590  -23.6187  -45.3038 H         1 UNK         0.3000 
    196 H196       -3.5321  -25.1036  -46.5420 H         1 UNK         0.0600 
    197 H197       -2.9132  -26.8625  -44.9004 H         1 UNK         0.0600 
    198 H198       -3.1124  -25.3047  -44.1181 H         1 UNK         0.0600 
    199 H199       -1.4969  -25.9465  -44.4107 H         1 UNK         0.0600 
    200 H200        0.0414  -25.2653  -46.5330 H         1 UNK         0.3000 
    201 H201        0.3273  -27.5238  -48.2381 H         1 UNK         0.0600 
    202 H202        2.1545  -26.6328  -46.8036 H         1 UNK         0.0600 
    203 H203        2.2282  -25.1637  -47.7738 H         1 UNK         0.0600 
    204 H204        2.6653  -26.7117  -48.4838 H         1 UNK         0.0600 
    205 H205        0.1215  -24.0229  -48.9753 H         1 UNK         0.3000 
    206 H206        0.3893  -24.3214  -51.8312 H         1 UNK         0.0600 
    207 H207        1.0484  -22.2573  -50.5899 H         1 UNK         0.0600 
    208 H208       -0.1572  -21.8868  -51.8103 H         1 UNK         0.0600 
    209 H209       -0.6277  -21.9908  -50.1193 H         1 UNK         0.0600 
    210 H210       -2.2288  -25.0839  -49.8324 H         1 UNK         0.3000 
    211 H211       -4.4226  -25.3656  -50.0014 H         1 UNK         0.0600 
    212 H212       -3.9865  -25.5275  -53.0342 H         1 UNK         0.0600 
    213 H213       -5.3834  -26.1254  -52.1504 H         1 UNK         0.0600 
    214 H214       -3.8111  -26.8685  -51.9035 H         1 UNK         0.0600 
    215 H215       -3.6985  -22.8971  -49.5101 H         1 UNK         0.3000 
    216 H216       -4.1835  -20.7997  -49.3226 H         1 UNK         0.0600 
    217 H217       -6.5621  -21.5613  -49.1054 H         1 UNK         0.0600 
    218 H218       -6.7980  -21.3134  -50.8359 H         1 UNK         0.0600 
    219 H219       -6.4505  -19.9476  -49.7880 H         1 UNK         0.0600 
    220 H220       -3.3042  -21.9934  -52.2128 H         1 UNK         0.3000 
    221 H221       -2.8366  -21.3782  -54.2761 H         1 UNK         0.0600 
    222 H222       -1.9989  -18.9732  -54.6640 H         1 UNK         0.0600 
    223 H223       -2.2699  -18.6963  -52.9460 H         1 UNK         0.0600 
    224 H224       -1.1406  -19.9380  -53.4802 H         1 UNK         0.0600 
    225 H225       -5.2058  -21.9398  -54.1018 H         1 UNK         0.3000 
    226 H226       -7.2386  -21.9425  -54.9009 H         1 UNK         0.0600 
    227 H227       -6.4616  -20.9588  -57.0439 H         1 UNK         0.0600 
    228 H228       -8.0645  -20.3788  -56.6203 H         1 UNK         0.0600 
    229 H229       -6.6737  -19.3304  -56.4059 H         1 UNK         0.0600 
    230 H230       -6.5099  -18.5262  -54.1549 H         1 UNK         0.3000 
    231 H231       -8.0840  -18.5355  -51.7356 H         1 UNK         0.0600 
    232 H232       -9.9641  -18.2894  -53.3683 H         1 UNK         0.0600 
    233 H233       -9.1561  -16.9124  -54.1144 H         1 UNK         0.0600 
    234 H234       -9.7554  -16.8049  -52.4634 H         1 UNK         0.0600 
    235 H235       -5.3902  -17.5236  -53.3247 H         1 UNK         0.3000 
    236 H236       -5.3776  -14.7138  -52.8919 H         1 UNK         0.0600 
    237 H237       -2.9409  -14.9422  -53.4121 H         1 UNK         0.0600 
    238 H238       -3.1114  -16.6896  -53.3819 H         1 UNK         0.0600 
    239 H239       -3.9682  -15.7441  -54.5948 H         1 UNK         0.0600 
    240 H240       -4.4505  -17.3956  -50.7588 H         1 UNK         0.3000 
    241 H241       -3.4789  -15.5549  -48.6657 H         1 UNK         0.0600 
    242 H242       -7.4130  -15.7703  -48.1934 H         1 UNK         0.3800 
    243 H243       -6.6591  -15.9988  -49.7473 H         1 UNK         0.3800 
    244 H244       -3.6046  -17.8260  -47.2737 H         1 UNK         0.0800 
    245 H245       -3.7395  -18.5736  -48.8324 H         1 UNK         0.0800 
    246 H246       -1.6213  -19.7255  -49.4837 H         1 UNK         0.0800 
    247 H247       -1.6639  -18.4304  -50.6507 H         1 UNK         0.0800 
@<TRIPOS>BOND
     1    1    2 1    
     2    1  127 1    
     3    1  128 1    
     4    1  129 1    
     5    2    3 2    
     6    2    4 am   BACKBONE|DICT|INTERRES
     7    4    5 1    
     8    4  130 1    
     9    5    6 1    
    10    5   65 1    
    11    5  131 1    
    12    6    7 1    
    13    6  132 1    
    14    6  133 1    
    15    7    8 1    
    16    8    9 1    
    17    8  134 1    
    18    8  135 1    
    19    9   10 ar   
    20    9   14 ar   
    21   10   11 ar   
    22   10  136 1    
    23   11   12 ar   
    24   11  126 1    
    25   12   13 ar   
    26   12  137 1    
    27   13   14 ar   
    28   13   15 1    
    29   14  138 1    
    30   15   16 1    
    31   15  139 1    
    32   15  140 1    
    33   16   17 1    
    34   17   18 1    
    35   17  141 1    
    36   17  142 1    
    37   18   19 1    
    38   18   67 1    
    39   18  143 1    
    40   19   20 am   BACKBONE|DICT|INTERRES
    41   19  144 1    
    42   20   21 2    
    43   20   22 1    
    44   22   23 1    
    45   22   24 1    
    46   22  145 1    
    47   23  146 1    
    48   23  147 1    
    49   23  148 1    
    50   24   25 am   BACKBONE|DICT|INTERRES
    51   24  149 1    
    52   25   26 2    
    53   25   27 1    
    54   27   28 1    
    55   27   29 1    
    56   27  150 1    
    57   28  151 1    
    58   28  152 1    
    59   28  153 1    
    60   29   30 am   BACKBONE|DICT|INTERRES
    61   29  154 1    
    62   30   31 2    
    63   30   32 1    
    64   32   33 1    
    65   32   34 1    
    66   32  155 1    
    67   33  156 1    
    68   33  157 1    
    69   33  158 1    
    70   34   35 am   BACKBONE|DICT|INTERRES
    71   34  159 1    
    72   35   36 2    
    73   35   37 1    
    74   37   38 1    
    75   37   39 1    
    76   37  160 1    
    77   38  161 1    
    78   38  162 1    
    79   38  163 1    
    80   39   40 am   BACKBONE|DICT|INTERRES
    81   39  164 1    
    82   40   41 2    
    83   40   42 1    
    84   42   43 1    
    85   42   44 1    
    86   42  165 1    
    87   43  166 1    
    88   43  167 1    
    89   43  168 1    
    90   44   45 am   BACKBONE|DICT|INTERRES
    91   44  169 1    
    92   45   46 2    
    93   45   47 1    
    94   47   48 1    
    95   47   49 1    
    96   47  170 1    
    97   48  171 1    
    98   48  172 1    
    99   48  173 1    
   100   49   50 am   BACKBONE|DICT|INTERRES
   101   49  174 1    
   102   50   51 2    
   103   50   52 1    
   104   52   53 1    
   105   52   54 1    
   106   52  175 1    
   107   53  176 1    
   108   53  177 1    
   109   53  178 1    
   110   54   55 am   BACKBONE|DICT|INTERRES
   111   54  179 1    
   112   55   56 2    
   113   55   57 1    
   114   57   58 1    
   115   57   59 1    
   116   57  180 1    
   117   58  181 1    
   118   58  182 1    
   119   58  183 1    
   120   59   60 am   BACKBONE|DICT|INTERRES
   121   59  184 1    
   122   60   61 2    
   123   60   62 1    
   124   62   63 1    
   125   62   64 1    
   126   62  185 1    
   127   63  186 1    
   128   63  187 1    
   129   63  188 1    
   130   64   65 am   BACKBONE|DICT|INTERRES
   131   64  189 1    
   132   65   66 2    
   133   67   68 2    
   134   67   69 am   BACKBONE|DICT|INTERRES
   135   69   70 1    
   136   69  190 1    
   137   70   71 1    
   138   70   72 1    
   139   70  191 1    
   140   71  192 1    
   141   71  193 1    
   142   71  194 1    
   143   72   73 2    
   144   72   74 am   BACKBONE|DICT|INTERRES
   145   74   75 1    
   146   74  195 1    
   147   75   76 1    
   148   75   77 1    
   149   75  196 1    
   150   76  197 1    
   151   76  198 1    
   152   76  199 1    
   153   77   78 2    
   154   77   79 am   BACKBONE|DICT|INTERRES
   155   79   80 1    
   156   79  200 1    
   157   80   81 1    
   158   80   82 1    
   159   80  201 1    
   160   81  202 1    
   161   81  203 1    
   162   81  204 1    
   163   82   83 2    
   164   82   84 am   BACKBONE|DICT|INTERRES
   165   84   85 1    
   166   84  205 1    
   167   85   86 1    
   168   85   87 1    
   169   85  206 1    
   170   86  207 1    
   171   86  208 1    
   172   86  209 1    
   173   87   88 2    
   174   87   89 am   BACKBONE|DICT|INTERRES
   175   89   90 1    
   176   89  210 1    
   177   90   91 1    
   178   90   92 1    
   179   90  211 1    
   180   91  212 1    
   181   91  213 1    
   182   91  214 1    
   183   92   93 2    
   184   92   94 am   BACKBONE|DICT|INTERRES
   185   94   95 1    
   186   94  215 1    
   187   95   96 1    
   188   95   97 1    
   189   95  216 1    
   190   96  217 1    
   191   96  218 1    
   192   96  219 1    
   193   97   98 2    
   194   97   99 am   BACKBONE|DICT|INTERRES
   195   99  100 1    
   196   99  220 1    
   197  100  101 1    
   198  100  102 1    
   199  100  221 1    
   200  101  222 1    
   201  101  223 1    
   202  101  224 1    
   203  102  103 2    
   204  102  104 am   BACKBONE|DICT|INTERRES
   205  104  105 1    
   206  104  225 1    
   207  105  106 1    
   208  105  107 1    
   209  105  226 1    
   210  106  227 1    
   211  106  228 1    
   212  106  229 1    
   213  107  108 2    
   214  107  109 am   BACKBONE|DICT|INTERRES
   215  109  110 1    
   216  109  230 1    
   217  110  111 1    
   218  110  112 1    
   219  110  231 1    
   220  111  232 1    
   221  111  233 1    
   222  111  234 1    
   223  112  113 2    
   224  112  114 am   BACKBONE|DICT|INTERRES
   225  114  115 1    
   226  114  235 1    
   227  115  116 1    
   228  115  117 1    
   229  115  236 1    
   230  116  237 1    
   231  116  238 1    
   232  116  239 1    
   233  117  118 2    
   234  117  119 am   BACKBONE|DICT|INTERRES
   235  119  120 1    
   236  119  240 1    
   237  120  121 1    
   238  120  124 1    
   239  120  241 1    
   240  121  122 am   BACKBONE|DICT|INTERRES
   241  121  123 2    
   242  122  242 1    
   243  122  243 1    
   244  124  125 1    
   245  124  244 1    
   246  124  245 1    
   247  125  126 1    
   248  126  246 1    
   249  126  247 1    
@<TRIPOS>SUBSTRUCTURE
     1 UNK         1 GROUP             0       ****    0 ROOT    
