@<TRIPOS>MOLECULE
3R540
247   249    1
SMALL
USER_CHARGES


@<TRIPOS>ATOM
      1 CA          5.0024  -13.7955  -50.4021 C.3       0 UNK        -0.1800 
      2 C           4.2149  -14.9982  -49.9009 C.2       0 UNK         0.5000 
      3 O           4.1793  -16.0297  -50.5727 O.2       0 UNK        -0.5000 
      4 N           3.5789  -14.8649  -48.7307 N.am      1 UNK        -0.5000 
      5 CA          2.8082  -15.9222  -48.0660 C.3       1 UNK         0.1400 
      6 C6          1.8106  -15.3402  -47.0262 C.3       23 UNK        -0.0398 
      7 S7          0.6327  -14.1436  -47.7598 S.3       23 UNK        -0.2404 
      8 C8         -1.0048  -14.8277  -47.3202 C.3       23 UNK        -0.0205 
      9 C9         -1.5987  -15.7782  -48.3548 C.ar      23 UNK        -0.0193 
     10 C10        -2.9447  -15.6621  -48.7193 C.ar      23 UNK        -0.1150 
     11 C11        -3.5223  -16.5669  -49.6157 C.ar      23 UNK        -0.0193 
     12 C12        -2.7389  -17.5838  -50.1668 C.ar      23 UNK        -0.1150 
     13 C13        -1.3958  -17.7185  -49.8071 C.ar      23 UNK        -0.0193 
     14 C14        -0.8385  -16.8134  -48.9020 C.ar      23 UNK        -0.1150 
     15 C15        -0.5571  -18.8542  -50.3814 C.3       23 UNK        -0.0205 
     16 S16         0.3456  -19.8220  -49.1226 S.3       23 UNK        -0.2404 
     17 C17        -0.8544  -19.9703  -47.7543 C.3       23 UNK        -0.0398 
     18 CA         -0.7295  -21.3202  -47.0042 C.3       11 UNK         0.1400 
     19 N          -0.7083  -21.1333  -45.5498 N.am      11 UNK        -0.5000 
     20 C          -0.4595  -22.0964  -44.6511 C.2       10 UNK         0.5000 
     21 O          -0.2284  -23.2672  -44.9485 O.2       10 UNK        -0.5000 
     22 CA         -0.5452  -21.6904  -43.1727 C.3       10 UNK         0.1400 
     23 CB          0.7288  -20.9541  -42.7298 C.3       10 UNK        -0.1800 
     24 N          -1.7228  -20.8550  -42.9360 N.am      10 UNK        -0.5000 
     25 C          -2.9757  -21.3328  -42.8919 C.2       9 UNK         0.5000 
     26 O          -3.2488  -22.5322  -42.9380 O.2       9 UNK        -0.5000 
     27 CA         -4.1184  -20.3018  -42.8140 C.3       9 UNK         0.1400 
     28 CB         -4.4607  -19.9869  -41.3503 C.3       9 UNK        -0.1800 
     29 N          -3.8192  -19.0527  -43.5172 N.am      9 UNK        -0.5000 
     30 C          -3.6702  -18.9367  -44.8449 C.2       8 UNK         0.5000 
     31 O          -3.7895  -19.8741  -45.6309 O.2       8 UNK        -0.5000 
     32 CA         -3.2570  -17.5524  -45.3763 C.3       8 UNK         0.1400 
     33 CB         -4.4942  -16.6847  -45.6464 C.3       8 UNK        -0.1800 
     34 N          -2.3548  -16.8409  -44.4680 N.am      8 UNK        -0.5000 
     35 C          -1.1395  -17.2647  -44.1019 C.2       7 UNK         0.5000 
     36 O          -0.6385  -18.3124  -44.5175 O.2       7 UNK        -0.5000 
     37 CA         -0.3749  -16.3679  -43.1064 C.3       7 UNK         0.1400 
     38 CB          0.9728  -16.9762  -42.6883 C.3       7 UNK        -0.1800 
     39 N          -0.1346  -15.0219  -43.6285 N.am      7 UNK        -0.5000 
     40 C          -1.0345  -14.0297  -43.7043 C.2       6 UNK         0.5000 
     41 O          -2.2203  -14.1708  -43.3993 O.2       6 UNK        -0.5000 
     42 CA         -0.5214  -12.6663  -44.2240 C.3       6 UNK         0.1400 
     43 CB         -1.3762  -11.4780  -43.7361 C.3       6 UNK        -0.1800 
     44 N           0.9057  -12.4430  -43.9519 N.am      6 UNK        -0.5000 
     45 C           1.4875  -12.3588  -42.7468 C.2       5 UNK         0.5000 
     46 O           0.8768  -12.3800  -41.6743 O.2       5 UNK        -0.5000 
     47 CA          3.0183  -12.2610  -42.7452 C.3       5 UNK         0.1400 
     48 CB          3.4959  -10.8125  -42.9341 C.3       5 UNK        -0.1800 
     49 N           3.4963  -12.7743  -41.4648 N.am      5 UNK        -0.5000 
     50 C           4.5916  -13.4938  -41.1975 C.2       4 UNK         0.5000 
     51 O           4.7837  -13.9580  -40.0731 O.2       4 UNK        -0.5000 
     52 CA          5.6447  -13.7735  -42.2939 C.3       4 UNK         0.1400 
     53 CB          7.0332  -13.2767  -41.8579 C.3       4 UNK        -0.1800 
     54 N           5.7167  -15.2088  -42.5594 N.am      4 UNK        -0.5000 
     55 C           4.7845  -15.9150  -43.2097 C.2       3 UNK         0.5000 
     56 O           3.7831  -15.4217  -43.7394 O.2       3 UNK        -0.5000 
     57 CA          5.0094  -17.4314  -43.2716 C.3       3 UNK         0.1400 
     58 CB          4.5348  -18.1276  -41.9843 C.3       3 UNK        -0.1800 
     59 N           4.2811  -17.9545  -44.4190 N.am      3 UNK        -0.5000 
     60 C           4.6419  -19.0117  -45.1516 C.2       2 UNK         0.5000 
     61 O           5.5788  -19.7559  -44.8586 O.2       2 UNK        -0.5000 
     62 CA          3.8402  -19.2826  -46.4425 C.3       2 UNK         0.1400 
     63 CB          2.8128  -20.4001  -46.2040 C.3       2 UNK        -0.1800 
     64 N           3.1506  -18.1184  -47.0174 N.am      2 UNK        -0.5000 
     65 C           3.7367  -16.9816  -47.4256 C.2       1 UNK         0.5000 
     66 O           4.9434  -16.7566  -47.2998 O.2       1 UNK        -0.5000 
     67 C          -1.8025  -22.3309  -47.4603 C.2       11 UNK         0.5000 
     68 O          -1.5550  -23.1085  -48.3832 O.2       11 UNK        -0.5000 
     69 N          -2.9582  -22.3335  -46.7816 N.am      12 UNK        -0.5000 
     70 CA         -4.0557  -23.2867  -46.9581 C.3       12 UNK         0.1400 
     71 CB         -5.2327  -22.8809  -46.0597 C.3       12 UNK        -0.1800 
     72 C          -3.6547  -24.7510  -46.6980 C.2       12 UNK         0.5000 
     73 O          -4.2053  -25.6448  -47.3397 O.2       12 UNK        -0.5000 
     74 N          -2.6971  -24.9708  -45.7889 N.am      13 UNK        -0.5000 
     75 CA         -2.1263  -26.2846  -45.5042 C.3       13 UNK         0.1400 
     76 CB         -1.7284  -26.3543  -44.0211 C.3       13 UNK        -0.1800 
     77 C          -0.9173  -26.5772  -46.4091 C.2       13 UNK         0.5000 
     78 O          -0.8162  -27.6781  -46.9510 O.2       13 UNK        -0.5000 
     79 N          -0.0156  -25.5952  -46.5408 N.am      14 UNK        -0.5000 
     80 CA          1.2788  -25.7392  -47.2059 C.3       14 UNK         0.1400 
     81 CB          2.1849  -24.5669  -46.7962 C.3       14 UNK        -0.1800 
     82 C           1.2009  -25.8363  -48.7393 C.2       14 UNK         0.5000 
     83 O           1.9948  -26.5698  -49.3306 O.2       14 UNK        -0.5000 
     84 N           0.2850  -25.0800  -49.3570 N.am      15 UNK        -0.5000 
     85 CA          0.2261  -24.8845  -50.8082 C.3       15 UNK         0.1400 
     86 CB          0.9282  -23.5549  -51.1471 C.3       15 UNK        -0.1800 
     87 C          -1.2103  -24.9093  -51.3578 C.2       15 UNK         0.5000 
     88 O          -1.4185  -24.5006  -52.5015 O.2       15 UNK        -0.5000 
     89 N          -2.1886  -25.3265  -50.5384 N.am      16 UNK        -0.5000 
     90 CA         -3.6324  -25.2900  -50.8208 C.3       16 UNK         0.1400 
     91 CB         -3.9997  -26.3022  -51.9264 C.3       16 UNK        -0.1800 
     92 C          -4.1358  -23.8616  -51.1293 C.2       16 UNK         0.5000 
     93 O          -4.9872  -23.6755  -52.0001 O.2       16 UNK        -0.5000 
     94 N          -3.5407  -22.8695  -50.4486 N.am      17 UNK        -0.5000 
     95 CA         -3.7067  -21.4275  -50.6534 C.3       17 UNK         0.1400 
     96 CB         -5.1182  -20.9657  -50.2388 C.3       17 UNK        -0.1800 
     97 C          -3.3038  -20.9955  -52.0781 C.2       17 UNK         0.5000 
     98 O          -3.9725  -20.1591  -52.6851 O.2       17 UNK        -0.5000 
     99 N          -2.2198  -21.6067  -52.5823 N.am      18 UNK        -0.5000 
    100 CA        -1.6790  -21.4908  -53.9400 C.3       18 UNK         0.1400 
    101 CB        -1.0829  -20.0884  -54.1756 C.3       18 UNK        -0.1800 
    102 C         -2.7089  -21.9281  -55.0024 C.2       18 UNK         0.5000 
    103 O         -2.8944  -21.2465  -56.0108 O.2       18 UNK        -0.5000 
    104 N         -3.3798  -23.0551  -54.7169 N.am      19 UNK        -0.5000 
    105 CA        -4.5346  -23.6100  -55.4306 C.3       19 UNK         0.1400 
    106 CB        -4.1377  -24.0846  -56.8442 C.3       19 UNK        -0.1800 
    107 C         -5.7377  -22.6412  -55.4198 C.2       19 UNK         0.5000 
    108 O         -6.3230  -22.3621  -56.4681 O.2       19 UNK        -0.5000 
    109 N         -6.0675  -22.1470  -54.2167 N.am      20 UNK        -0.5000 
    110 CA        -7.1357  -21.1931  -53.8980 C.3       20 UNK         0.1400 
    111 CB        -8.5158  -21.8637  -54.0541 C.3       20 UNK        -0.1800 
    112 C         -7.0201  -19.8602  -54.6696 C.2       20 UNK         0.5000 
    113 O         -8.0134  -19.3654  -55.2080 O.2       20 UNK        -0.5000 
    114 N         -5.8063  -19.2918  -54.7008 N.am      21 UNK        -0.5000 
    115 CA        -5.4622  -18.0714  -55.4393 C.3       21 UNK         0.1400 
    116 CB        -3.9509  -17.8234  -55.3393 C.3       21 UNK        -0.1800 
    117 C         -6.2308  -16.8192  -54.9796 C.2       21 UNK         0.5000 
    118 O         -6.5001  -15.9389  -55.7982 O.2       21 UNK        -0.5000 
    119 N         -6.5816  -16.7728  -53.6893 N.am      22 UNK        -0.5000 
    120 CA        -7.3989  -15.7100  -53.0829 C.3       22 UNK         0.1400 
    121 C         -8.9301  -15.8661  -53.3333 C.2       22 UNK         0.5000 
    122 N         -9.4056  -16.9183  -53.9915 N.am      22 UNK        -0.7600 
    123 O         -9.7076  -15.0059  -52.9288 O.2       22 UNK        -0.5000 
    124 C124       -7.0915  -15.5261  -51.5734 C.3       23 UNK        -0.0398 
    125 S125       -5.3200  -15.2224  -51.2379 S.3       23 UNK        -0.2404 
    126 C126       -5.0001  -16.4743  -49.9601 C.3       23 UNK        -0.0205 
    127 H127        4.9382  -12.9527  -49.7133 H         1 UNK         0.0600 
    128 H128        4.6194  -13.4729  -51.3704 H         1 UNK         0.0600 
    129 H129        6.0537  -14.0586  -50.5202 H         1 UNK         0.0600 
    130 H130        3.6558  -13.9961  -48.2228 H         1 UNK         0.3000 
    131 H131        2.2438  -16.4378  -48.8431 H         1 UNK         0.0600 
    132 H132        1.2477  -16.1394  -46.5416 H         1 UNK         0.0800 
    133 H133        2.3531  -14.8319  -46.2268 H         1 UNK         0.0800 
    134 H134       -0.9460  -15.3453  -46.3659 H         1 UNK         0.0800 
    135 H135       -1.6817  -13.9859  -47.1677 H         1 UNK         0.0800 
    136 H136       -3.5542  -14.8784  -48.2919 H         1 UNK         0.1150 
    137 H137       -3.1830  -18.2766  -50.8664 H         1 UNK         0.1150 
    138 H138        0.1864  -16.9400  -48.6055 H         1 UNK         0.1150 
    139 H139       -1.1763  -19.5359  -50.9586 H         1 UNK         0.0800 
    140 H140        0.1647  -18.4358  -51.0838 H         1 UNK         0.0800 
    141 H141       -1.8713  -19.7972  -48.1110 H         1 UNK         0.0800 
    142 H142       -0.6461  -19.1377  -47.0817 H         1 UNK         0.0800 
    143 H143        0.2317  -21.7733  -47.2515 H         1 UNK         0.0600 
    144 H144       -0.8638  -20.1900  -45.2096 H         1 UNK         0.3000 
    145 H145       -0.6329  -22.6007  -42.5754 H         1 UNK         0.0600 
    146 H146        0.6710  -20.6589  -41.6821 H         1 UNK         0.0600 
    147 H147        1.6037  -21.5961  -42.8389 H         1 UNK         0.0600 
    148 H148        0.9116  -20.0580  -43.3216 H         1 UNK         0.0600 
    149 H149       -1.5799  -19.8557  -42.9365 H         1 UNK         0.3000 
    150 H150       -4.9977  -20.7491  -43.2827 H         1 UNK         0.0600 
    151 H151       -5.3204  -19.3201  -41.2808 H         1 UNK         0.0600 
    152 H152       -4.7122  -20.8970  -40.8039 H         1 UNK         0.0600 
    153 H153       -3.6250  -19.5138  -40.8332 H         1 UNK         0.0600 
    154 H154       -3.7021  -18.2269  -42.9489 H         1 UNK         0.3000 
    155 H155       -2.7302  -17.7032  -46.3206 H         1 UNK         0.0600 
    156 H156       -5.1476  -17.1567  -46.3814 H         1 UNK         0.0600 
    157 H157       -4.2137  -15.7080  -46.0398 H         1 UNK         0.0600 
    158 H158       -5.0787  -16.5224  -44.7399 H         1 UNK         0.0600 
    159 H159       -2.6721  -15.9489  -44.0993 H         1 UNK         0.3000 
    160 H160       -0.9908  -16.2837  -42.2086 H         1 UNK         0.0600 
    161 H161        1.6163  -17.1563  -43.5495 H         1 UNK         0.0600 
    162 H162        0.8294  -17.9286  -42.1779 H         1 UNK         0.0600 
    163 H163        1.5076  -16.3200  -42.0010 H         1 UNK         0.0600 
    164 H164        0.8155  -14.8199  -43.9023 H         1 UNK         0.3000 
    165 H165       -0.6168  -12.7031  -45.3089 H         1 UNK         0.0600 
    166 H166       -0.9887  -10.5319  -44.1140 H         1 UNK         0.0600 
    167 H167       -2.4053  -11.5678  -44.0861 H         1 UNK         0.0600 
    168 H168       -1.4079  -11.4177  -42.6481 H         1 UNK         0.0600 
    169 H169        1.4954  -12.3964  -44.7714 H         1 UNK         0.3000 
    170 H170        3.3678  -12.8741  -43.5743 H         1 UNK         0.0600 
    171 H171        3.1373  -10.4010  -43.8783 H         1 UNK         0.0600 
    172 H172        3.1345  -10.1643  -42.1347 H         1 UNK         0.0600 
    173 H173        4.5842  -10.7523  -42.9463 H         1 UNK         0.0600 
    174 H174        2.8075  -12.6640  -40.7316 H         1 UNK         0.3000 
    175 H175        5.4125  -13.2590  -43.2244 H         1 UNK         0.0600 
    176 H176        7.7761  -13.4491  -42.6369 H         1 UNK         0.0600 
    177 H177        7.0159  -12.2045  -41.6580 H         1 UNK         0.0600 
    178 H178        7.3785  -13.7743  -40.9506 H         1 UNK         0.0600 
    179 H179        6.4865  -15.6990  -42.1277 H         1 UNK         0.3000 
    180 H180        6.0784  -17.6092  -43.4083 H         1 UNK         0.0600 
    181 H181        3.4693  -17.9786  -41.8131 H         1 UNK         0.0600 
    182 H182        5.0642  -17.7428  -41.1120 H         1 UNK         0.0600 
    183 H183        4.7176  -19.2014  -42.0269 H         1 UNK         0.0600 
    184 H184        3.5409  -17.3504  -44.7490 H         1 UNK         0.3000 
    185 H185        4.5561  -19.6355  -47.1874 H         1 UNK         0.0600 
    186 H186        3.2679  -21.2638  -45.7171 H         1 UNK         0.0600 
    187 H187        1.9922  -20.0608  -45.5715 H         1 UNK         0.0600 
    188 H188        2.3947  -20.7514  -47.1460 H         1 UNK         0.0600 
    189 H189        2.1603  -18.2385  -47.1693 H         1 UNK         0.3000 
    190 H190       -3.1193  -21.5900  -46.1072 H         1 UNK         0.3000 
    191 H191       -4.3965  -23.2217  -47.9899 H         1 UNK         0.0600 
    192 H192       -5.5865  -21.8787  -46.3021 H         1 UNK         0.0600 
    193 H193       -6.0755  -23.5613  -46.1877 H         1 UNK         0.0600 
    194 H194       -4.9575  -22.8942  -45.0053 H         1 UNK         0.0600 
    195 H195       -2.2736  -24.1797  -45.3220 H         1 UNK         0.3000 
    196 H196       -2.8754  -27.0593  -45.6818 H         1 UNK         0.0600 
    197 H197       -1.3126  -27.3321  -43.7748 H         1 UNK         0.0600 
    198 H198       -2.5924  -26.1961  -43.3755 H         1 UNK         0.0600 
    199 H199       -0.9794  -25.6049  -43.7634 H         1 UNK         0.0600 
    200 H200       -0.1603  -24.7286  -46.0270 H         1 UNK         0.3000 
    201 H201        1.7401  -26.6601  -46.8427 H         1 UNK         0.0600 
    202 H202        2.3145  -24.5268  -45.7144 H         1 UNK         0.0600 
    203 H203        1.7752  -23.6095  -47.1187 H         1 UNK         0.0600 
    204 H204        3.1770  -24.6647  -47.2388 H         1 UNK         0.0600 
    205 H205       -0.3250  -24.4829  -48.8042 H         1 UNK         0.3000 
    206 H206        0.7509  -25.6917  -51.3225 H         1 UNK         0.0600 
    207 H207        0.4203  -22.7061  -50.6870 H         1 UNK         0.0600 
    208 H208        1.9602  -23.5542  -50.7962 H         1 UNK         0.0600 
    209 H209        0.9563  -23.3804  -52.2233 H         1 UNK         0.0600 
    210 H210       -1.9263  -25.6454  -49.6165 H         1 UNK         0.3000 
    211 H211       -4.1418  -25.6034  -49.9110 H         1 UNK         0.0600 
    212 H212       -3.5813  -26.0220  -52.8934 H         1 UNK         0.0600 
    213 H213       -5.0813  -26.3719  -52.0480 H         1 UNK         0.0600 
    214 H214       -3.6375  -27.3005  -51.6814 H         1 UNK         0.0600 
    215 H215       -2.8264  -23.1276  -49.7721 H         1 UNK         0.3000 
    216 H216       -2.9986  -20.9386  -49.9847 H         1 UNK         0.0600 
    217 H217       -5.8951  -21.4385  -50.8379 H         1 UNK         0.0600 
    218 H218       -5.2285  -19.8870  -50.3496 H         1 UNK         0.0600 
    219 H219       -5.3147  -21.2016  -49.1931 H         1 UNK         0.0600 
    220 H220       -1.7936  -22.3350  -52.0260 H         1 UNK         0.3000 
    221 H221       -0.8583  -22.2062  -54.0095 H         1 UNK         0.0600 
    222 H222       -1.8286  -19.3037  -54.0631 H         1 UNK         0.0600 
    223 H223       -0.2792  -19.8837  -53.4686 H         1 UNK         0.0600 
    224 H224       -0.6611  -20.0021  -55.1775 H         1 UNK         0.0600 
    225 H225       -3.1293  -23.5339  -53.8609 H         1 UNK         0.3000 
    226 H226       -4.8473  -24.4900  -54.8665 H         1 UNK         0.0600 
    227 H227       -3.2982  -24.7786  -56.8050 H         1 UNK         0.0600 
    228 H228       -4.9664  -24.6046  -57.3259 H         1 UNK         0.0600 
    229 H229       -3.8558  -23.2530  -57.4905 H         1 UNK         0.0600 
    230 H230       -5.5416  -22.4895  -53.4169 H         1 UNK         0.3000 
    231 H231       -7.0143  -20.9387  -52.8452 H         1 UNK         0.0600 
    232 H232       -8.5775  -22.7782  -53.4642 H         1 UNK         0.0600 
    233 H233       -9.3132  -21.2034  -53.7113 H         1 UNK         0.0600 
    234 H234       -8.7261  -22.1197  -55.0930 H         1 UNK         0.0600 
    235 H235       -5.0554  -19.7263  -54.1690 H         1 UNK         0.3000 
    236 H236       -5.7119  -18.2413  -56.4884 H         1 UNK         0.0600 
    237 H237       -3.6321  -17.7131  -54.3019 H         1 UNK         0.0600 
    238 H238       -3.3891  -18.6436  -55.7834 H         1 UNK         0.0600 
    239 H239       -3.6651  -16.9142  -55.8698 H         1 UNK         0.0600 
    240 H240       -6.3114  -17.5369  -53.0888 H         1 UNK         0.3000 
    241 H241       -7.1270  -14.7714  -53.5698 H         1 UNK         0.0600 
    242 H242       -8.7917  -17.6340  -54.3628 H         1 UNK         0.3800 
    243 H243      -10.3988  -16.9924  -54.1450 H         1 UNK         0.3800 
    244 H244       -7.4325  -16.3985  -51.0138 H         1 UNK         0.0800 
    245 H245       -7.6478  -14.6767  -51.1734 H         1 UNK         0.0800 
    246 H246       -5.3634  -17.4432  -50.3049 H         1 UNK         0.0800 
    247 H247       -5.5727  -16.2311  -49.0637 H         1 UNK         0.0800 
@<TRIPOS>BOND
     1    1    2 1    
     2    1  127 1    
     3    1  128 1    
     4    1  129 1    
     5    2    3 2    
     6    2    4 am   BACKBONE|DICT|INTERRES
     7    4    5 1    
     8    4  130 1    
     9    5    6 1    
    10    5   65 1    
    11    5  131 1    
    12    6    7 1    
    13    6  132 1    
    14    6  133 1    
    15    7    8 1    
    16    8    9 1    
    17    8  134 1    
    18    8  135 1    
    19    9   10 ar   
    20    9   14 ar   
    21   10   11 ar   
    22   10  136 1    
    23   11   12 ar   
    24   11  126 1    
    25   12   13 ar   
    26   12  137 1    
    27   13   14 ar   
    28   13   15 1    
    29   14  138 1    
    30   15   16 1    
    31   15  139 1    
    32   15  140 1    
    33   16   17 1    
    34   17   18 1    
    35   17  141 1    
    36   17  142 1    
    37   18   19 1    
    38   18   67 1    
    39   18  143 1    
    40   19   20 am   BACKBONE|DICT|INTERRES
    41   19  144 1    
    42   20   21 2    
    43   20   22 1    
    44   22   23 1    
    45   22   24 1    
    46   22  145 1    
    47   23  146 1    
    48   23  147 1    
    49   23  148 1    
    50   24   25 am   BACKBONE|DICT|INTERRES
    51   24  149 1    
    52   25   26 2    
    53   25   27 1    
    54   27   28 1    
    55   27   29 1    
    56   27  150 1    
    57   28  151 1    
    58   28  152 1    
    59   28  153 1    
    60   29   30 am   BACKBONE|DICT|INTERRES
    61   29  154 1    
    62   30   31 2    
    63   30   32 1    
    64   32   33 1    
    65   32   34 1    
    66   32  155 1    
    67   33  156 1    
    68   33  157 1    
    69   33  158 1    
    70   34   35 am   BACKBONE|DICT|INTERRES
    71   34  159 1    
    72   35   36 2    
    73   35   37 1    
    74   37   38 1    
    75   37   39 1    
    76   37  160 1    
    77   38  161 1    
    78   38  162 1    
    79   38  163 1    
    80   39   40 am   BACKBONE|DICT|INTERRES
    81   39  164 1    
    82   40   41 2    
    83   40   42 1    
    84   42   43 1    
    85   42   44 1    
    86   42  165 1    
    87   43  166 1    
    88   43  167 1    
    89   43  168 1    
    90   44   45 am   BACKBONE|DICT|INTERRES
    91   44  169 1    
    92   45   46 2    
    93   45   47 1    
    94   47   48 1    
    95   47   49 1    
    96   47  170 1    
    97   48  171 1    
    98   48  172 1    
    99   48  173 1    
   100   49   50 am   BACKBONE|DICT|INTERRES
   101   49  174 1    
   102   50   51 2    
   103   50   52 1    
   104   52   53 1    
   105   52   54 1    
   106   52  175 1    
   107   53  176 1    
   108   53  177 1    
   109   53  178 1    
   110   54   55 am   BACKBONE|DICT|INTERRES
   111   54  179 1    
   112   55   56 2    
   113   55   57 1    
   114   57   58 1    
   115   57   59 1    
   116   57  180 1    
   117   58  181 1    
   118   58  182 1    
   119   58  183 1    
   120   59   60 am   BACKBONE|DICT|INTERRES
   121   59  184 1    
   122   60   61 2    
   123   60   62 1    
   124   62   63 1    
   125   62   64 1    
   126   62  185 1    
   127   63  186 1    
   128   63  187 1    
   129   63  188 1    
   130   64   65 am   BACKBONE|DICT|INTERRES
   131   64  189 1    
   132   65   66 2    
   133   67   68 2    
   134   67   69 am   BACKBONE|DICT|INTERRES
   135   69   70 1    
   136   69  190 1    
   137   70   71 1    
   138   70   72 1    
   139   70  191 1    
   140   71  192 1    
   141   71  193 1    
   142   71  194 1    
   143   72   73 2    
   144   72   74 am   BACKBONE|DICT|INTERRES
   145   74   75 1    
   146   74  195 1    
   147   75   76 1    
   148   75   77 1    
   149   75  196 1    
   150   76  197 1    
   151   76  198 1    
   152   76  199 1    
   153   77   78 2    
   154   77   79 am   BACKBONE|DICT|INTERRES
   155   79   80 1    
   156   79  200 1    
   157   80   81 1    
   158   80   82 1    
   159   80  201 1    
   160   81  202 1    
   161   81  203 1    
   162   81  204 1    
   163   82   83 2    
   164   82   84 am   BACKBONE|DICT|INTERRES
   165   84   85 1    
   166   84  205 1    
   167   85   86 1    
   168   85   87 1    
   169   85  206 1    
   170   86  207 1    
   171   86  208 1    
   172   86  209 1    
   173   87   88 2    
   174   87   89 am   BACKBONE|DICT|INTERRES
   175   89   90 1    
   176   89  210 1    
   177   90   91 1    
   178   90   92 1    
   179   90  211 1    
   180   91  212 1    
   181   91  213 1    
   182   91  214 1    
   183   92   93 2    
   184   92   94 am   BACKBONE|DICT|INTERRES
   185   94   95 1    
   186   94  215 1    
   187   95   96 1    
   188   95   97 1    
   189   95  216 1    
   190   96  217 1    
   191   96  218 1    
   192   96  219 1    
   193   97   98 2    
   194   97   99 am   BACKBONE|DICT|INTERRES
   195   99  100 1    
   196   99  220 1    
   197  100  101 1    
   198  100  102 1    
   199  100  221 1    
   200  101  222 1    
   201  101  223 1    
   202  101  224 1    
   203  102  103 2    
   204  102  104 am   BACKBONE|DICT|INTERRES
   205  104  105 1    
   206  104  225 1    
   207  105  106 1    
   208  105  107 1    
   209  105  226 1    
   210  106  227 1    
   211  106  228 1    
   212  106  229 1    
   213  107  108 2    
   214  107  109 am   BACKBONE|DICT|INTERRES
   215  109  110 1    
   216  109  230 1    
   217  110  111 1    
   218  110  112 1    
   219  110  231 1    
   220  111  232 1    
   221  111  233 1    
   222  111  234 1    
   223  112  113 2    
   224  112  114 am   BACKBONE|DICT|INTERRES
   225  114  115 1    
   226  114  235 1    
   227  115  116 1    
   228  115  117 1    
   229  115  236 1    
   230  116  237 1    
   231  116  238 1    
   232  116  239 1    
   233  117  118 2    
   234  117  119 am   BACKBONE|DICT|INTERRES
   235  119  120 1    
   236  119  240 1    
   237  120  121 1    
   238  120  124 1    
   239  120  241 1    
   240  121  122 am   BACKBONE|DICT|INTERRES
   241  121  123 2    
   242  122  242 1    
   243  122  243 1    
   244  124  125 1    
   245  124  244 1    
   246  124  245 1    
   247  125  126 1    
   248  126  246 1    
   249  126  247 1    
@<TRIPOS>SUBSTRUCTURE
     1 UNK         1 GROUP             0       ****    0 ROOT    
