@<TRIPOS>MOLECULE
3R540
247   249    1
SMALL
USER_CHARGES


@<TRIPOS>ATOM
      1 CA          3.9811  -11.8568  -42.0378 C.3       0 UNK        -0.1800 
      2 C           3.3937  -12.2847  -43.3740 C.2       0 UNK         0.5000 
      3 O           2.5030  -11.6140  -43.8954 O.2       0 UNK        -0.5000 
      4 N           3.8994  -13.3881  -43.9442 N.am      1 UNK        -0.5000 
      5 CA          3.4255  -13.9927  -45.1991 C.3       1 UNK         0.1400 
      6 C6          4.1183  -15.3512  -45.4741 C.3       23 UNK        -0.0398 
      7 S7          3.0222  -16.5142  -46.3477 S.3       23 UNK        -0.2404 
      8 C8          3.7196  -16.4601  -48.0238 C.3       23 UNK        -0.0205 
      9 C9          2.8454  -17.2250  -49.0020 C.ar      23 UNK        -0.0193 
     10 C10         1.8747  -16.5564  -49.7537 C.ar      23 UNK        -0.1150 
     11 C11         1.0785  -17.2540  -50.6683 C.ar      23 UNK        -0.0193 
     12 C12         1.2544  -18.6348  -50.8142 C.ar      23 UNK        -0.1150 
     13 C13         2.2282  -19.3128  -50.0741 C.ar      23 UNK        -0.0193 
     14 C14         3.0226  -18.5999  -49.1729 C.ar      23 UNK        -0.1150 
     15 C15         2.4543  -20.8057  -50.2777 C.3       23 UNK        -0.0205 
     16 S16         2.0767  -21.7804  -48.7870 S.3       23 UNK        -0.2404 
     17 C17         0.2920  -21.4711  -48.6200 C.3       23 UNK        -0.0398 
     18 CA         -0.3947  -22.5067  -47.7015 C.3       11 UNK         0.1400 
     19 N           0.0763  -22.3998  -46.3161 N.am      11 UNK        -0.5000 
     20 C          -0.1536  -23.2858  -45.3388 C.2       10 UNK         0.5000 
     21 O          -0.8509  -24.2866  -45.4956 O.2       10 UNK        -0.5000 
     22 CA          0.4299  -22.9818  -43.9424 C.3       10 UNK         0.1400 
     23 CB          0.9514  -24.2488  -43.2351 C.3       10 UNK        -0.1800 
     24 N           1.4299  -21.9083  -43.9362 N.am      10 UNK        -0.5000 
     25 C           2.6553  -21.9023  -44.4834 C.2       9 UNK         0.5000 
     26 O           3.1733  -22.8827  -45.0180 O.2       9 UNK        -0.5000 
     27 CA          3.4224  -20.5638  -44.4577 C.3       9 UNK         0.1400 
     28 CB          3.6841  -20.0671  -45.8871 C.3       9 UNK        -0.1800 
     29 N           2.6945  -19.5185  -43.7338 N.am      9 UNK        -0.5000 
     30 C           2.8652  -19.2175  -42.4396 C.2       8 UNK         0.5000 
     31 O           3.7197  -19.7370  -41.7214 O.2       8 UNK        -0.5000 
     32 CA          1.8918  -18.1853  -41.8365 C.3       8 UNK         0.1400 
     33 CB          2.4636  -16.7648  -41.9658 C.3       8 UNK        -0.1800 
     34 N           0.5600  -18.2344  -42.4482 N.am      8 UNK        -0.5000 
     35 C          -0.2997  -19.2569  -42.3123 C.2       7 UNK         0.5000 
     36 O          -0.0652  -20.2499  -41.6247 O.2       7 UNK        -0.5000 
     37 CA         -1.6200  -19.2047  -43.1088 C.3       7 UNK         0.1400 
     38 CB         -2.7644  -18.6875  -42.2259 C.3       7 UNK        -0.1800 
     39 N          -1.5480  -18.3885  -44.3196 N.am      7 UNK        -0.5000 
     40 C          -0.7443  -18.6208  -45.3652 C.2       6 UNK         0.5000 
     41 O          -0.0409  -19.6259  -45.4685 O.2       6 UNK        -0.5000 
     42 CA         -0.6971  -17.5458  -46.4660 C.3       6 UNK         0.1400 
     43 CB         -1.6085  -17.9508  -47.6297 C.3       6 UNK        -0.1800 
     44 N          -1.0536  -16.1850  -46.0414 N.am      6 UNK        -0.5000 
     45 C          -0.5315  -15.4950  -45.0175 C.2       5 UNK         0.5000 
     46 O           0.2953  -15.9581  -44.2321 O.2       5 UNK        -0.5000 
     47 CA         -1.0179  -14.0423  -44.8577 C.3       5 UNK         0.1400 
     48 CB         -0.5329  -13.3957  -43.5484 C.3       5 UNK        -0.1800 
     49 N          -0.5665  -13.2303  -45.9844 N.am      5 UNK        -0.5000 
     50 C          -1.1568  -13.1806  -47.1860 C.2       4 UNK         0.5000 
     51 O          -2.1962  -13.7883  -47.4464 O.2       4 UNK        -0.5000 
     52 CA         -0.4490  -12.3466  -48.2733 C.3       4 UNK         0.1400 
     53 CB         -1.4183  -11.7685  -49.3257 C.3       4 UNK        -0.1800 
     54 N           0.4385  -11.3166  -47.7187 N.am      4 UNK        -0.5000 
     55 C           0.0999  -10.1868  -47.0763 C.2       3 UNK         0.5000 
     56 O          -1.0643   -9.8225  -46.9085 O.2       3 UNK        -0.5000 
     57 CA          1.2472   -9.3249  -46.4989 C.3       3 UNK         0.1400 
     58 CB          0.9258   -8.8475  -45.0718 C.3       3 UNK        -0.1800 
     59 N           2.5316  -10.0303  -46.4793 N.am      3 UNK        -0.5000 
     60 C           3.4035  -10.0760  -47.4979 C.2       2 UNK         0.5000 
     61 O           3.2531   -9.4497  -48.5470 O.2       2 UNK        -0.5000 
     62 CA          4.6289  -11.0041  -47.3461 C.3       2 UNK         0.1400 
     63 CB          5.8746  -10.1889  -46.9671 C.3       2 UNK        -0.1800 
     64 N           4.4528  -12.0796  -46.3657 N.am      2 UNK        -0.5000 
     65 C           3.5236  -13.0459  -46.4192 C.2       1 UNK         0.5000 
     66 O           2.7260  -13.1642  -47.3494 O.2       1 UNK        -0.5000 
     67 C          -1.9270  -22.3813  -47.8061 C.2       11 UNK         0.5000 
     68 O          -2.5273  -22.9850  -48.6983 O.2       11 UNK        -0.5000 
     69 N          -2.5316  -21.6232  -46.8799 N.am      12 UNK        -0.5000 
     70 CA         -3.9807  -21.4969  -46.7376 C.3       12 UNK         0.1400 
     71 CB         -4.3088  -20.3162  -45.8120 C.3       12 UNK        -0.1800 
     72 C          -4.6234  -22.7932  -46.2117 C.2       12 UNK         0.5000 
     73 O          -5.6706  -23.1995  -46.7132 O.2       12 UNK        -0.5000 
     74 N          -3.9683  -23.4215  -45.2250 N.am      13 UNK        -0.5000 
     75 CA         -4.4082  -24.6602  -44.5821 C.3       13 UNK         0.1400 
     76 CB         -3.6718  -24.8241  -43.2430 C.3       13 UNK        -0.1800 
     77 C          -4.1932  -25.8916  -45.4781 C.2       13 UNK         0.5000 
     78 O          -5.0685  -26.7546  -45.5495 O.2       13 UNK        -0.5000 
     79 N          -3.0422  -25.9366  -46.1627 N.am      14 UNK        -0.5000 
     80 CA         -2.6753  -26.9790  -47.1228 C.3       14 UNK         0.1400 
     81 CB         -1.1673  -26.8846  -47.4043 C.3       14 UNK        -0.1800 
     82 C          -3.4645  -26.8990  -48.4435 C.2       14 UNK         0.5000 
     83 O          -3.4945  -27.8854  -49.1800 O.2       14 UNK        -0.5000 
     84 N          -4.0678  -25.7316  -48.7176 N.am      15 UNK        -0.5000 
     85 CA         -4.7972  -25.3665  -49.9331 C.3       15 UNK         0.1400 
     86 CB         -6.0855  -26.2025  -50.0796 C.3       15 UNK        -0.1800 
     87 C          -3.8805  -25.4247  -51.1707 C.2       15 UNK         0.5000 
     88 O          -4.1796  -26.1173  -52.1458 O.2       15 UNK        -0.5000 
     89 N          -2.7560  -24.7005  -51.0848 N.am      16 UNK        -0.5000 
     90 CA         -1.6405  -24.7317  -52.0356 C.3       16 UNK         0.1400 
     91 CB         -0.5086  -23.8444  -51.4963 C.3       16 UNK        -0.1800 
     92 C          -1.9885  -24.3343  -53.4853 C.2       16 UNK         0.5000 
     93 O          -1.2764  -24.7436  -54.4026 O.2       16 UNK        -0.5000 
     94 N          -3.0689  -23.5660  -53.6751 N.am      17 UNK        -0.5000 
     95 CA         -3.5623  -23.1245  -54.9825 C.3       17 UNK         0.1400 
     96 CB         -3.9756  -21.6459  -54.8638 C.3       17 UNK        -0.1800 
     97 C          -4.7273  -23.9988  -55.4978 C.2       17 UNK         0.5000 
     98 O          -5.4578  -23.5576  -56.3857 O.2       17 UNK        -0.5000 
     99 N          -4.9195  -25.1899  -54.9026 N.am      18 UNK        -0.5000 
    100 CA        -6.1167  -26.0466  -54.9896 C.3       18 UNK         0.1400 
    101 CB        -6.3827  -26.5295  -56.4305 C.3       18 UNK        -0.1800 
    102 C         -7.3458  -25.3783  -54.3296 C.2       18 UNK         0.5000 
    103 O         -8.4921  -25.6630  -54.6789 O.2       18 UNK        -0.5000 
    104 N         -7.0433  -24.4909  -53.3809 N.am      19 UNK        -0.5000 
    105 CA        -7.8609  -23.5563  -52.6265 C.3       19 UNK         0.1400 
    106 CB        -8.6128  -22.5974  -53.5699 C.3       19 UNK        -0.1800 
    107 C         -6.8610  -22.7794  -51.7516 C.2       19 UNK         0.5000 
    108 O         -5.6464  -22.8952  -51.9643 O.2       19 UNK        -0.5000 
    109 N         -7.3632  -22.0090  -50.7801 N.am      20 UNK        -0.5000 
    110 CA        -6.5438  -21.1592  -49.9146 C.3       20 UNK         0.1400 
    111 CB        -7.4133  -20.5686  -48.7937 C.3       20 UNK        -0.1800 
    112 C         -5.8399  -20.0575  -50.7311 C.2       20 UNK         0.5000 
    113 O         -6.5074  -19.1497  -51.2329 O.2       20 UNK        -0.5000 
    114 N         -4.5189  -20.2014  -50.8960 N.am      21 UNK        -0.5000 
    115 CA        -3.6748  -19.3451  -51.7277 C.3       21 UNK         0.1400 
    116 CB        -2.2551  -19.9312  -51.7518 C.3       21 UNK        -0.1800 
    117 C         -3.6534  -17.8823  -51.2481 C.2       21 UNK         0.5000 
    118 O         -3.6401  -17.6462  -50.0406 O.2       21 UNK        -0.5000 
    119 N         -3.6535  -16.9507  -52.2121 N.am      22 UNK        -0.5000 
    120 CA        -3.6057  -15.4794  -52.0693 C.3       22 UNK         0.1400 
    121 C         -4.6179  -14.7985  -51.0919 C.2       22 UNK         0.5000 
    122 N         -5.6556  -15.4803  -50.6238 N.am      22 UNK        -0.7600 
    123 O         -4.5053  -13.6097  -50.8057 O.2       22 UNK        -0.5000 
    124 C124       -2.1588  -14.9035  -52.0062 C.3       23 UNK        -0.0398 
    125 S125       -1.1085  -15.4969  -50.6337 S.3       23 UNK        -0.2404 
    126 C126        0.0869  -16.5139  -51.5586 C.3       23 UNK        -0.0205 
    127 H127        4.4074  -10.8570  -42.1191 H         1 UNK         0.0600 
    128 H128        3.2008  -11.8353  -41.2771 H         1 UNK         0.0600 
    129 H129        4.7651  -12.5362  -41.7026 H         1 UNK         0.0600 
    130 H130        4.6424  -13.8826  -43.4713 H         1 UNK         0.3000 
    131 H131        2.3615  -14.1802  -45.0418 H         1 UNK         0.0600 
    132 H132        4.3811  -15.8380  -44.5343 H         1 UNK         0.0800 
    133 H133        5.0613  -15.2285  -46.0102 H         1 UNK         0.0800 
    134 H134        4.7256  -16.8823  -48.0115 H         1 UNK         0.0800 
    135 H135        3.8222  -15.4247  -48.3505 H         1 UNK         0.0800 
    136 H136        1.7483  -15.4889  -49.6371 H         1 UNK         0.1150 
    137 H137        0.6556  -19.1795  -51.5296 H         1 UNK         0.1150 
    138 H138        3.7823  -19.1179  -48.6052 H         1 UNK         0.1150 
    139 H139        1.8604  -21.1819  -51.1123 H         1 UNK         0.0800 
    140 H140        3.4981  -20.9704  -50.5482 H         1 UNK         0.0800 
    141 H141        0.1629  -20.4606  -48.2327 H         1 UNK         0.0800 
    142 H142       -0.1501  -21.4797  -49.6167 H         1 UNK         0.0800 
    143 H143       -0.1383  -23.5056  -48.0598 H         1 UNK         0.0600 
    144 H144        0.5853  -21.5558  -46.0830 H         1 UNK         0.3000 
    145 H145       -0.4061  -22.6051  -43.3519 H         1 UNK         0.0600 
    146 H146        1.3558  -24.0128  -42.2508 H         1 UNK         0.0600 
    147 H147        0.1490  -24.9729  -43.0896 H         1 UNK         0.0600 
    148 H148        1.7329  -24.7446  -43.8111 H         1 UNK         0.0600 
    149 H149        1.1219  -21.0450  -43.5109 H         1 UNK         0.3000 
    150 H150        4.3867  -20.7506  -43.9812 H         1 UNK         0.0600 
    151 H151        4.3187  -19.1814  -45.8834 H         1 UNK         0.0600 
    152 H152        2.7544  -19.8139  -46.3987 H         1 UNK         0.0600 
    153 H153        4.1935  -20.8238  -46.4851 H         1 UNK         0.0600 
    154 H154        1.9628  -19.0466  -44.2490 H         1 UNK         0.3000 
    155 H155        1.7836  -18.4120  -40.7738 H         1 UNK         0.0600 
    156 H156        1.8011  -16.0283  -41.5109 H         1 UNK         0.0600 
    157 H157        2.6060  -16.4843  -43.0093 H         1 UNK         0.0600 
    158 H158        3.4314  -16.6853  -41.4695 H         1 UNK         0.0600 
    159 H159        0.3189  -17.4548  -43.0562 H         1 UNK         0.3000 
    160 H160       -1.8555  -20.2271  -43.4105 H         1 UNK         0.0600 
    161 H161       -2.5942  -17.6571  -41.9110 H         1 UNK         0.0600 
    162 H162       -2.8682  -19.2937  -41.3250 H         1 UNK         0.0600 
    163 H163       -3.7181  -18.7253  -42.7528 H         1 UNK         0.0600 
    164 H164       -2.0844  -17.5339  -44.3199 H         1 UNK         0.3000 
    165 H165        0.3286  -17.5206  -46.8354 H         1 UNK         0.0600 
    166 H166       -2.6579  -17.7568  -47.4081 H         1 UNK         0.0600 
    167 H167       -1.3518  -17.3942  -48.5283 H         1 UNK         0.0600 
    168 H168       -1.5204  -19.0072  -47.8776 H         1 UNK         0.0600 
    169 H169       -1.6951  -15.6862  -46.6486 H         1 UNK         0.3000 
    170 H170       -2.1097  -14.0554  -44.8355 H         1 UNK         0.0600 
    171 H171       -0.9140  -13.9388  -42.6828 H         1 UNK         0.0600 
    172 H172        0.5541  -13.3932  -43.4766 H         1 UNK         0.0600 
    173 H173       -0.8764  -12.3646  -43.4639 H         1 UNK         0.0600 
    174 H174        0.2987  -12.7259  -45.8599 H         1 UNK         0.3000 
    175 H175        0.2059  -13.0471  -48.7937 H         1 UNK         0.0600 
    176 H176       -2.1698  -11.1183  -48.8783 H         1 UNK         0.0600 
    177 H177       -0.8840  -11.1977  -50.0849 H         1 UNK         0.0600 
    178 H178       -1.9543  -12.5672  -49.8386 H         1 UNK         0.0600 
    179 H179        1.4227  -11.5549  -47.7590 H         1 UNK         0.3000 
    180 H180        1.3331   -8.4404  -47.1331 H         1 UNK         0.0600 
    181 H181        1.7499   -8.2705  -44.6520 H         1 UNK         0.0600 
    182 H182        0.0446   -8.2051  -45.0618 H         1 UNK         0.0600 
    183 H183        0.7265   -9.6849  -44.4024 H         1 UNK         0.0600 
    184 H184        2.7141  -10.5865  -45.6496 H         1 UNK         0.3000 
    185 H185        4.8051  -11.4694  -48.3180 H         1 UNK         0.0600 
    186 H186        6.7657  -10.8165  -46.9433 H         1 UNK         0.0600 
    187 H187        6.0583   -9.3947  -47.6921 H         1 UNK         0.0600 
    188 H188        5.7655   -9.7208  -45.9880 H         1 UNK         0.0600 
    189 H189        5.0498  -12.0449  -45.5523 H         1 UNK         0.3000 
    190 H190       -1.9540  -21.1547  -46.1968 H         1 UNK         0.3000 
    191 H191       -4.4001  -21.2802  -47.7200 H         1 UNK         0.0600 
    192 H192       -5.3876  -20.1880  -45.7133 H         1 UNK         0.0600 
    193 H193       -3.9091  -19.3823  -46.2042 H         1 UNK         0.0600 
    194 H194       -3.9043  -20.4609  -44.8102 H         1 UNK         0.0600 
    195 H195       -3.0904  -23.0405  -44.9088 H         1 UNK         0.3000 
    196 H196       -5.4775  -24.5799  -44.3740 H         1 UNK         0.0600 
    197 H197       -3.9977  -25.7286  -42.7279 H         1 UNK         0.0600 
    198 H198       -3.8704  -23.9832  -42.5783 H         1 UNK         0.0600 
    199 H199       -2.5922  -24.8963  -43.3796 H         1 UNK         0.0600 
    200 H200       -2.3380  -25.2225  -45.9869 H         1 UNK         0.3000 
    201 H201       -2.8815  -27.9515  -46.6712 H         1 UNK         0.0600 
    202 H202       -0.5871  -26.9861  -46.4869 H         1 UNK         0.0600 
    203 H203       -0.9046  -25.9305  -47.8629 H         1 UNK         0.0600 
    204 H204       -0.8440  -27.6752  -48.0825 H         1 UNK         0.0600 
    205 H205       -3.9445  -24.9844  -48.0488 H         1 UNK         0.3000 
    206 H206       -5.0903  -24.3247  -49.8031 H         1 UNK         0.0600 
    207 H207       -6.7127  -26.1141  -49.1926 H         1 UNK         0.0600 
    208 H208       -6.6767  -25.8644  -50.9298 H         1 UNK         0.0600 
    209 H209       -5.8719  -27.2601  -50.2355 H         1 UNK         0.0600 
    210 H210       -2.6184  -24.1398  -50.2483 H         1 UNK         0.3000 
    211 H211       -1.2775  -25.7609  -52.0672 H         1 UNK         0.0600 
    212 H212       -0.8216  -22.8035  -51.4248 H         1 UNK         0.0600 
    213 H213        0.3646  -23.8798  -52.1490 H         1 UNK         0.0600 
    214 H214       -0.1859  -24.1703  -50.5076 H         1 UNK         0.0600 
    215 H215       -3.6294  -23.3025  -52.8732 H         1 UNK         0.3000 
    216 H216       -2.7668  -23.1868  -55.7275 H         1 UNK         0.0600 
    217 H217       -4.2954  -21.2450  -55.8262 H         1 UNK         0.0600 
    218 H218       -3.1413  -21.0324  -54.5245 H         1 UNK         0.0600 
    219 H219       -4.7993  -21.5123  -54.1618 H         1 UNK         0.0600 
    220 H220       -4.2734  -25.4533  -54.1664 H         1 UNK         0.3000 
    221 H221       -5.8958  -26.9283  -54.3862 H         1 UNK         0.0600 
    222 H222       -6.7296  -25.7226  -57.0761 H         1 UNK         0.0600 
    223 H223       -5.4842  -26.9560  -56.8763 H         1 UNK         0.0600 
    224 H224       -7.1502  -27.3041  -56.4431 H         1 UNK         0.0600 
    225 H225       -6.0602  -24.3573  -53.1727 H         1 UNK         0.3000 
    226 H226       -8.5571  -24.1075  -51.9925 H         1 UNK         0.0600 
    227 H227       -9.1787  -21.8539  -53.0078 H         1 UNK         0.0600 
    228 H228       -7.9252  -22.0610  -54.2255 H         1 UNK         0.0600 
    229 H229       -9.3256  -23.1306  -54.1984 H         1 UNK         0.0600 
    230 H230       -8.3641  -21.9359  -50.6701 H         1 UNK         0.3000 
    231 H231       -5.7880  -21.7959  -49.4519 H         1 UNK         0.0600 
    232 H232       -6.8218  -19.9255  -48.1409 H         1 UNK         0.0600 
    233 H233       -7.8404  -21.3558  -48.1718 H         1 UNK         0.0600 
    234 H234       -8.2336  -19.9693  -49.1906 H         1 UNK         0.0600 
    235 H235       -4.0600  -20.9888  -50.4638 H         1 UNK         0.3000 
    236 H236       -4.0800  -19.3767  -52.7410 H         1 UNK         0.0600 
    237 H237       -1.7918  -19.9002  -50.7646 H         1 UNK         0.0600 
    238 H238       -2.2610  -20.9668  -52.0910 H         1 UNK         0.0600 
    239 H239       -1.6166  -19.3723  -52.4359 H         1 UNK         0.0600 
    240 H240       -3.6966  -17.2709  -53.1687 H         1 UNK         0.3000 
    241 H241       -3.9881  -15.1403  -53.0328 H         1 UNK         0.0600 
    242 H242       -6.3125  -15.0240  -50.0114 H         1 UNK         0.3800 
    243 H243       -5.7447  -16.4669  -50.8149 H         1 UNK         0.3800 
    244 H244       -1.6569  -15.1267  -52.9482 H         1 UNK         0.0800 
    245 H245       -2.1811  -13.8138  -51.9638 H         1 UNK         0.0800 
    246 H246       -0.4660  -17.2192  -52.1798 H         1 UNK         0.0800 
    247 H247        0.6464  -15.8727  -52.2409 H         1 UNK         0.0800 
@<TRIPOS>BOND
     1    1    2 1    
     2    1  127 1    
     3    1  128 1    
     4    1  129 1    
     5    2    3 2    
     6    2    4 am   BACKBONE|DICT|INTERRES
     7    4    5 1    
     8    4  130 1    
     9    5    6 1    
    10    5   65 1    
    11    5  131 1    
    12    6    7 1    
    13    6  132 1    
    14    6  133 1    
    15    7    8 1    
    16    8    9 1    
    17    8  134 1    
    18    8  135 1    
    19    9   10 ar   
    20    9   14 ar   
    21   10   11 ar   
    22   10  136 1    
    23   11   12 ar   
    24   11  126 1    
    25   12   13 ar   
    26   12  137 1    
    27   13   14 ar   
    28   13   15 1    
    29   14  138 1    
    30   15   16 1    
    31   15  139 1    
    32   15  140 1    
    33   16   17 1    
    34   17   18 1    
    35   17  141 1    
    36   17  142 1    
    37   18   19 1    
    38   18   67 1    
    39   18  143 1    
    40   19   20 am   BACKBONE|DICT|INTERRES
    41   19  144 1    
    42   20   21 2    
    43   20   22 1    
    44   22   23 1    
    45   22   24 1    
    46   22  145 1    
    47   23  146 1    
    48   23  147 1    
    49   23  148 1    
    50   24   25 am   BACKBONE|DICT|INTERRES
    51   24  149 1    
    52   25   26 2    
    53   25   27 1    
    54   27   28 1    
    55   27   29 1    
    56   27  150 1    
    57   28  151 1    
    58   28  152 1    
    59   28  153 1    
    60   29   30 am   BACKBONE|DICT|INTERRES
    61   29  154 1    
    62   30   31 2    
    63   30   32 1    
    64   32   33 1    
    65   32   34 1    
    66   32  155 1    
    67   33  156 1    
    68   33  157 1    
    69   33  158 1    
    70   34   35 am   BACKBONE|DICT|INTERRES
    71   34  159 1    
    72   35   36 2    
    73   35   37 1    
    74   37   38 1    
    75   37   39 1    
    76   37  160 1    
    77   38  161 1    
    78   38  162 1    
    79   38  163 1    
    80   39   40 am   BACKBONE|DICT|INTERRES
    81   39  164 1    
    82   40   41 2    
    83   40   42 1    
    84   42   43 1    
    85   42   44 1    
    86   42  165 1    
    87   43  166 1    
    88   43  167 1    
    89   43  168 1    
    90   44   45 am   BACKBONE|DICT|INTERRES
    91   44  169 1    
    92   45   46 2    
    93   45   47 1    
    94   47   48 1    
    95   47   49 1    
    96   47  170 1    
    97   48  171 1    
    98   48  172 1    
    99   48  173 1    
   100   49   50 am   BACKBONE|DICT|INTERRES
   101   49  174 1    
   102   50   51 2    
   103   50   52 1    
   104   52   53 1    
   105   52   54 1    
   106   52  175 1    
   107   53  176 1    
   108   53  177 1    
   109   53  178 1    
   110   54   55 am   BACKBONE|DICT|INTERRES
   111   54  179 1    
   112   55   56 2    
   113   55   57 1    
   114   57   58 1    
   115   57   59 1    
   116   57  180 1    
   117   58  181 1    
   118   58  182 1    
   119   58  183 1    
   120   59   60 am   BACKBONE|DICT|INTERRES
   121   59  184 1    
   122   60   61 2    
   123   60   62 1    
   124   62   63 1    
   125   62   64 1    
   126   62  185 1    
   127   63  186 1    
   128   63  187 1    
   129   63  188 1    
   130   64   65 am   BACKBONE|DICT|INTERRES
   131   64  189 1    
   132   65   66 2    
   133   67   68 2    
   134   67   69 am   BACKBONE|DICT|INTERRES
   135   69   70 1    
   136   69  190 1    
   137   70   71 1    
   138   70   72 1    
   139   70  191 1    
   140   71  192 1    
   141   71  193 1    
   142   71  194 1    
   143   72   73 2    
   144   72   74 am   BACKBONE|DICT|INTERRES
   145   74   75 1    
   146   74  195 1    
   147   75   76 1    
   148   75   77 1    
   149   75  196 1    
   150   76  197 1    
   151   76  198 1    
   152   76  199 1    
   153   77   78 2    
   154   77   79 am   BACKBONE|DICT|INTERRES
   155   79   80 1    
   156   79  200 1    
   157   80   81 1    
   158   80   82 1    
   159   80  201 1    
   160   81  202 1    
   161   81  203 1    
   162   81  204 1    
   163   82   83 2    
   164   82   84 am   BACKBONE|DICT|INTERRES
   165   84   85 1    
   166   84  205 1    
   167   85   86 1    
   168   85   87 1    
   169   85  206 1    
   170   86  207 1    
   171   86  208 1    
   172   86  209 1    
   173   87   88 2    
   174   87   89 am   BACKBONE|DICT|INTERRES
   175   89   90 1    
   176   89  210 1    
   177   90   91 1    
   178   90   92 1    
   179   90  211 1    
   180   91  212 1    
   181   91  213 1    
   182   91  214 1    
   183   92   93 2    
   184   92   94 am   BACKBONE|DICT|INTERRES
   185   94   95 1    
   186   94  215 1    
   187   95   96 1    
   188   95   97 1    
   189   95  216 1    
   190   96  217 1    
   191   96  218 1    
   192   96  219 1    
   193   97   98 2    
   194   97   99 am   BACKBONE|DICT|INTERRES
   195   99  100 1    
   196   99  220 1    
   197  100  101 1    
   198  100  102 1    
   199  100  221 1    
   200  101  222 1    
   201  101  223 1    
   202  101  224 1    
   203  102  103 2    
   204  102  104 am   BACKBONE|DICT|INTERRES
   205  104  105 1    
   206  104  225 1    
   207  105  106 1    
   208  105  107 1    
   209  105  226 1    
   210  106  227 1    
   211  106  228 1    
   212  106  229 1    
   213  107  108 2    
   214  107  109 am   BACKBONE|DICT|INTERRES
   215  109  110 1    
   216  109  230 1    
   217  110  111 1    
   218  110  112 1    
   219  110  231 1    
   220  111  232 1    
   221  111  233 1    
   222  111  234 1    
   223  112  113 2    
   224  112  114 am   BACKBONE|DICT|INTERRES
   225  114  115 1    
   226  114  235 1    
   227  115  116 1    
   228  115  117 1    
   229  115  236 1    
   230  116  237 1    
   231  116  238 1    
   232  116  239 1    
   233  117  118 2    
   234  117  119 am   BACKBONE|DICT|INTERRES
   235  119  120 1    
   236  119  240 1    
   237  120  121 1    
   238  120  124 1    
   239  120  241 1    
   240  121  122 am   BACKBONE|DICT|INTERRES
   241  121  123 2    
   242  122  242 1    
   243  122  243 1    
   244  124  125 1    
   245  124  244 1    
   246  124  245 1    
   247  125  126 1    
   248  126  246 1    
   249  126  247 1    
@<TRIPOS>SUBSTRUCTURE
     1 UNK         1 GROUP             0       ****    0 ROOT    
