@<TRIPOS>MOLECULE
3R540
247   249    1
SMALL
USER_CHARGES


@<TRIPOS>ATOM
      1 CA         -4.6985  -10.5705  -46.3923 C.3       0 UNK        -0.1800 
      2 C          -3.2000  -10.5140  -46.6522 C.2       0 UNK         0.5000 
      3 O          -2.5657   -9.4952  -46.3742 O.2       0 UNK        -0.5000 
      4 N          -2.6294  -11.6020  -47.1827 N.am      1 UNK        -0.5000 
      5 CA         -1.2022  -11.7654  -47.4729 C.3       1 UNK         0.1400 
      6 C6         -0.9625  -12.7694  -48.6332 C.3       23 UNK        -0.0398 
      7 S7         -1.7260  -14.4200  -48.4075 S.3       23 UNK        -0.2404 
      8 C8         -0.2567  -15.5029  -48.3502 C.3       23 UNK        -0.0205 
      9 C9         -0.2008  -16.4794  -49.5175 C.ar      23 UNK        -0.0193 
     10 C10        -0.3254  -16.0343  -50.8383 C.ar      23 UNK        -0.1150 
     11 C11        -0.3056  -16.9416  -51.9023 C.ar      23 UNK        -0.0193 
     12 C12        -0.1323  -18.3039  -51.6322 C.ar      23 UNK        -0.1150 
     13 C13         0.0346  -18.7592  -50.3224 C.ar      23 UNK        -0.0193 
     14 C14        -0.0090  -17.8405  -49.2712 C.ar      23 UNK        -0.1150 
     15 C15         0.2779  -20.2378  -50.0542 C.3       23 UNK        -0.0205 
     16 S16        -1.2213  -21.0781  -49.4569 S.3       23 UNK        -0.2404 
     17 C17        -1.0605  -20.8991  -47.6480 C.3       23 UNK        -0.0398 
     18 CA         -0.8105  -22.2557  -46.9463 C.3       11 UNK         0.1400 
     19 N          -0.1232  -22.1054  -45.6584 N.am      11 UNK        -0.5000 
     20 C           0.3172  -23.1171  -44.8933 C.2       10 UNK         0.5000 
     21 O           0.2171  -24.3040  -45.2027 O.2       10 UNK        -0.5000 
     22 CA          0.9226  -22.7400  -43.5309 C.3       10 UNK         0.1400 
     23 CB          2.4267  -22.4586  -43.6606 C.3       10 UNK        -0.1800 
     24 N           0.2419  -21.5796  -42.9548 N.am      10 UNK        -0.5000 
     25 C          -0.9599  -21.6485  -42.3635 C.2       9 UNK         0.5000 
     26 O          -1.5562  -22.7060  -42.1576 O.2       9 UNK        -0.5000 
     27 CA         -1.6301  -20.3194  -41.9696 C.3       9 UNK         0.1400 
     28 CB         -1.2322  -19.9154  -40.5438 C.3       9 UNK        -0.1800 
     29 N          -1.3415  -19.2254  -42.9020 N.am      9 UNK        -0.5000 
     30 C          -1.7836  -19.1860  -44.1677 C.2       8 UNK         0.5000 
     31 O          -2.4464  -20.0976  -44.6643 O.2       8 UNK        -0.5000 
     32 CA         -1.4103  -17.9803  -45.0584 C.3       8 UNK         0.1400 
     33 CB         -2.6500  -17.3983  -45.7671 C.3       8 UNK        -0.1800 
     34 N          -0.6277  -16.9290  -44.4014 N.am      8 UNK        -0.5000 
     35 C          -1.0065  -16.0907  -43.4276 C.2       7 UNK         0.5000 
     36 O          -2.1353  -16.0627  -42.9352 O.2       7 UNK        -0.5000 
     37 CA          0.1101  -15.1735  -42.8876 C.3       7 UNK         0.1400 
     38 CB         -0.3273  -14.3225  -41.6763 C.3       7 UNK        -0.1800 
     39 N           1.3301  -15.9345  -42.5907 N.am      7 UNK        -0.5000 
     40 C           1.4686  -16.9280  -41.6997 C.2       6 UNK         0.5000 
     41 O           0.5827  -17.2759  -40.9203 O.2       6 UNK        -0.5000 
     42 CA          2.8195  -17.6752  -41.7246 C.3       6 UNK         0.1400 
     43 CB          2.8106  -18.9848  -40.9072 C.3       6 UNK        -0.1800 
     44 N           3.2954  -17.9172  -43.0910 N.am      6 UNK        -0.5000 
     45 C           2.6844  -18.6407  -44.0422 C.2       5 UNK         0.5000 
     46 O           1.6315  -19.2580  -43.8684 O.2       5 UNK        -0.5000 
     47 CA          3.3469  -18.6193  -45.4375 C.3       5 UNK         0.1400 
     48 CB          2.4286  -19.1856  -46.5381 C.3       5 UNK        -0.1800 
     49 N           3.8310  -17.2834  -45.8122 N.am      5 UNK        -0.5000 
     50 C           3.1085  -16.1542  -45.8565 C.2       4 UNK         0.5000 
     51 O           1.9000  -16.0993  -45.6202 O.2       4 UNK        -0.5000 
     52 CA          3.8843  -14.8605  -46.1647 C.3       4 UNK         0.1400 
     53 CB          3.4422  -14.2545  -47.5043 C.3       4 UNK        -0.1800 
     54 N           3.7164  -13.8553  -45.1160 N.am      4 UNK        -0.5000 
     55 C           4.0203  -13.9959  -43.8207 C.2       3 UNK         0.5000 
     56 O           4.5065  -15.0219  -43.3430 O.2       3 UNK        -0.5000 
     57 CA          3.6993  -12.8120  -42.8859 C.3       3 UNK         0.1400 
     58 CB          4.8067  -11.7426  -42.9382 C.3       3 UNK        -0.1800 
     59 N           2.3649  -12.2239  -43.0788 N.am      3 UNK        -0.5000 
     60 C           1.8830  -11.5443  -44.1290 C.2       2 UNK         0.5000 
     61 O           2.5423  -11.2576  -45.1316 O.2       2 UNK        -0.5000 
     62 CA          0.4069  -11.1116  -44.0253 C.3       2 UNK         0.1400 
     63 CB          0.2977   -9.7348  -43.3534 C.3       2 UNK        -0.1800 
     64 N          -0.2769  -11.0600  -45.3185 N.am      2 UNK        -0.5000 
     65 C          -0.4161  -12.0786  -46.1779 C.2       1 UNK         0.5000 
     66 O           0.0051  -13.2129  -45.9550 O.2       1 UNK        -0.5000 
     67 C          -2.1149  -23.0610  -46.8019 C.2       11 UNK         0.5000 
     68 O          -2.3373  -23.9883  -47.5779 O.2       11 UNK        -0.5000 
     69 N          -2.8994  -22.7465  -45.7604 N.am      12 UNK        -0.5000 
     70 CA         -4.1468  -23.4211  -45.3965 C.3       12 UNK         0.1400 
     71 CB         -4.7264  -22.7582  -44.1383 C.3       12 UNK        -0.1800 
     72 C          -4.0065  -24.9427  -45.1924 C.2       12 UNK         0.5000 
     73 O          -4.9398  -25.6809  -45.5088 O.2       12 UNK        -0.5000 
     74 N          -2.8430  -25.3829  -44.6969 N.am      13 UNK        -0.5000 
     75 CA         -2.4916  -26.7930  -44.5577 C.3       13 UNK         0.1400 
     76 CB         -1.5016  -26.9534  -43.3929 C.3       13 UNK        -0.1800 
     77 C          -1.9014  -27.3677  -45.8585 C.2       13 UNK         0.5000 
     78 O          -2.2790  -28.4689  -46.2601 O.2       13 UNK        -0.5000 
     79 N          -0.9665  -26.6314  -46.4740 N.am      14 UNK        -0.5000 
     80 CA         -0.1630  -27.0919  -47.6058 C.3       14 UNK         0.1400 
     81 CB          1.0828  -26.2005  -47.7308 C.3       14 UNK        -0.1800 
     82 C          -0.9120  -27.1432  -48.9494 C.2       14 UNK         0.5000 
     83 O          -0.6998  -28.0859  -49.7140 O.2       14 UNK        -0.5000 
     84 N          -1.7286  -26.1225  -49.2379 N.am      15 UNK        -0.5000 
     85 CA         -2.3096  -25.8821  -50.5627 C.3       15 UNK         0.1400 
     86 CB         -1.3823  -24.9301  -51.3394 C.3       15 UNK        -0.1800 
     87 C          -3.7559  -25.3523  -50.5206 C.2       15 UNK         0.5000 
     88 O          -4.3189  -25.0816  -51.5820 O.2       15 UNK        -0.5000 
     89 N          -4.3383  -25.2306  -49.3196 N.am      16 UNK        -0.5000 
     90 CA         -5.6638  -24.6815  -49.0287 C.3       16 UNK         0.1400 
     91 CB         -6.7872  -25.5233  -49.6777 C.3       16 UNK        -0.1800 
     92 C          -5.7255  -23.1716  -49.3392 C.2       16 UNK         0.5000 
     93 O          -5.0339  -22.3987  -48.6760 O.2       16 UNK        -0.5000 
     94 N          -6.5708  -22.7626  -50.2935 N.am      17 UNK        -0.5000 
     95 CA         -6.7665  -21.3665  -50.6789 C.3       17 UNK         0.1400 
     96 CB         -7.9720  -21.2693  -51.6273 C.3       17 UNK        -0.1800 
     97 C          -5.5143  -20.7669  -51.3421 C.2       17 UNK         0.5000 
     98 O          -4.9887  -21.3513  -52.2911 O.2       17 UNK        -0.5000 
     99 N          -5.1027  -19.5793  -50.8793 N.am      18 UNK        -0.5000 
    100 CA        -3.9742  -18.8140  -51.4189 C.3       18 UNK         0.1400 
    101 CB        -3.7773  -17.5478  -50.5718 C.3       18 UNK        -0.1800 
    102 C         -4.1483  -18.4553  -52.9076 C.2       18 UNK         0.5000 
    103 O         -3.1930  -18.5403  -53.6786 O.2       18 UNK        -0.5000 
    104 N         -5.3882  -18.1235  -53.2942 N.am      19 UNK        -0.5000 
    105 CA        -5.7867  -17.8306  -54.6718 C.3       19 UNK         0.1400 
    106 CB        -7.2266  -17.2953  -54.6713 C.3       19 UNK        -0.1800 
    107 C         -5.6609  -19.0378  -55.6226 C.2       19 UNK         0.5000 
    108 O         -5.4400  -18.8384  -56.8172 O.2       19 UNK        -0.5000 
    109 N         -5.7912  -20.2587  -55.0837 N.am      20 UNK        -0.5000 
    110 CA        -5.5503  -21.5017  -55.8134 C.3       20 UNK         0.1400 
    111 CB        -6.3603  -22.6459  -55.1829 C.3       20 UNK        -0.1800 
    112 C         -4.0494  -21.8329  -55.8410 C.2       20 UNK         0.5000 
    113 O         -3.5290  -22.1916  -56.8976 O.2       20 UNK        -0.5000 
    114 N         -3.3759  -21.6733  -54.6925 N.am      21 UNK        -0.5000 
    115 CA        -1.9486  -21.9368  -54.4983 C.3       21 UNK         0.1400 
    116 CB        -1.5945  -21.7222  -53.0216 C.3       21 UNK        -0.1800 
    117 C         -1.0328  -21.0976  -55.4108 C.2       21 UNK         0.5000 
    118 O         -0.0936  -21.6463  -55.9890 O.2       21 UNK        -0.5000 
    119 N         -1.3462  -19.8040  -55.5589 N.am      22 UNK        -0.5000 
    120 CA        -0.7030  -18.8928  -56.5236 C.3       22 UNK         0.1400 
    121 C         -1.3105  -18.9571  -57.9593 C.2       22 UNK         0.5000 
    122 N         -2.2318  -19.8607  -58.2706 N.am      22 UNK        -0.7600 
    123 O         -0.9229  -18.1793  -58.8273 O.2       22 UNK        -0.5000 
    124 C124       -0.6295  -17.4355  -55.9925 C.3       23 UNK        -0.0398 
    125 S125        0.5042  -17.2809  -54.5679 S.3       23 UNK        -0.2404 
    126 C126       -0.5380  -16.4434  -53.3252 C.3       23 UNK        -0.0205 
    127 H127       -5.1254  -11.5290  -46.6888 H         1 UNK         0.0600 
    128 H128       -5.2061   -9.7845  -46.9513 H         1 UNK         0.0600 
    129 H129       -4.9008  -10.4215  -45.3317 H         1 UNK         0.0600 
    130 H130       -3.1930  -12.4206  -47.3662 H         1 UNK         0.3000 
    131 H131       -0.8223  -10.8053  -47.8298 H         1 UNK         0.0600 
    132 H132        0.1054  -12.8585  -48.8340 H         1 UNK         0.0800 
    133 H133       -1.3838  -12.3519  -49.5484 H         1 UNK         0.0800 
    134 H134        0.6633  -14.9236  -48.3428 H         1 UNK         0.0800 
    135 H135       -0.2698  -16.0373  -47.3996 H         1 UNK         0.0800 
    136 H136       -0.4712  -14.9813  -51.0334 H         1 UNK         0.1150 
    137 H137       -0.1230  -19.0126  -52.4471 H         1 UNK         0.1150 
    138 H138        0.1024  -18.1817  -48.2560 H         1 UNK         0.1150 
    139 H139        0.6039  -20.7320  -50.9703 H         1 UNK         0.0800 
    140 H140        1.0970  -20.3626  -49.3448 H         1 UNK         0.0800 
    141 H141       -0.2336  -20.2258  -47.4346 H         1 UNK         0.0800 
    142 H142       -1.9541  -20.4022  -47.2671 H         1 UNK         0.0800 
    143 H143       -0.1362  -22.8422  -47.5744 H         1 UNK         0.0600 
    144 H144       -0.0356  -21.1696  -45.2931 H         1 UNK         0.3000 
    145 H145        0.7986  -23.5917  -42.8584 H         1 UNK         0.0600 
    146 H146        2.8530  -22.1364  -42.7104 H         1 UNK         0.0600 
    147 H147        2.9614  -23.3572  -43.9708 H         1 UNK         0.0600 
    148 H148        2.6348  -21.6874  -44.4012 H         1 UNK         0.0600 
    149 H149        0.6686  -20.6698  -43.1182 H         1 UNK         0.3000 
    150 H150       -2.7100  -20.4825  -41.9798 H         1 UNK         0.0600 
    151 H151       -1.5402  -20.6752  -39.8246 H         1 UNK         0.0600 
    152 H152       -1.7051  -18.9779  -40.2505 H         1 UNK         0.0600 
    153 H153       -0.1539  -19.7935  -40.4456 H         1 UNK         0.0600 
    154 H154       -0.7737  -18.4637  -42.5556 H         1 UNK         0.3000 
    155 H155       -0.7545  -18.3781  -45.8317 H         1 UNK         0.0600 
    156 H156       -2.3909  -16.5395  -46.3837 H         1 UNK         0.0600 
    157 H157       -3.4110  -17.0791  -45.0548 H         1 UNK         0.0600 
    158 H158       -3.1097  -18.1387  -46.4227 H         1 UNK         0.0600 
    159 H159        0.3256  -16.8276  -44.7417 H         1 UNK         0.3000 
    160 H160        0.3677  -14.4908  -43.6971 H         1 UNK         0.0600 
    161 H161        0.4905  -13.7059  -41.3059 H         1 UNK         0.0600 
    162 H162       -1.1458  -13.6549  -41.9476 H         1 UNK         0.0600 
    163 H163       -0.6767  -14.9408  -40.8491 H         1 UNK         0.0600 
    164 H164        2.0955  -15.7871  -43.2345 H         1 UNK         0.3000 
    165 H165        3.5433  -17.0033  -41.2611 H         1 UNK         0.0600 
    166 H166        2.0937  -19.7066  -41.2977 H         1 UNK         0.0600 
    167 H167        3.7930  -19.4567  -40.9122 H         1 UNK         0.0600 
    168 H168        2.5484  -18.7949  -39.8659 H         1 UNK         0.0600 
    169 H169        4.1228  -17.3968  -43.3535 H         1 UNK         0.3000 
    170 H170        4.2237  -19.2647  -45.3711 H         1 UNK         0.0600 
    171 H171        1.4973  -18.6264  -46.5936 H         1 UNK         0.0600 
    172 H172        2.9063  -19.1414  -47.5168 H         1 UNK         0.0600 
    173 H173        2.1773  -20.2287  -46.3458 H         1 UNK         0.0600 
    174 H174        4.8220  -17.2222  -46.0008 H         1 UNK         0.3000 
    175 H175        4.9482  -15.0961  -46.2314 H         1 UNK         0.0600 
    176 H176        2.4384  -13.8350  -47.4362 H         1 UNK         0.0600 
    177 H177        4.1136  -13.4527  -47.8115 H         1 UNK         0.0600 
    178 H178        3.4401  -15.0021  -48.2987 H         1 UNK         0.0600 
    179 H179        3.2880  -12.9766  -45.3937 H         1 UNK         0.3000 
    180 H180        3.6918  -13.2163  -41.8723 H         1 UNK         0.0600 
    181 H181        4.9066  -11.3024  -43.9305 H         1 UNK         0.0600 
    182 H182        5.7738  -12.1740  -42.6771 H         1 UNK         0.0600 
    183 H183        4.6094  -10.9363  -42.2318 H         1 UNK         0.0600 
    184 H184        1.7330  -12.3852  -42.3081 H         1 UNK         0.3000 
    185 H185       -0.1245  -11.8402  -43.4110 H         1 UNK         0.0600 
    186 H186        0.7649   -9.7396  -42.3677 H         1 UNK         0.0600 
    187 H187        0.7877   -8.9605  -43.9452 H         1 UNK         0.0600 
    188 H188       -0.7440   -9.4435  -43.2162 H         1 UNK         0.0600 
    189 H189       -0.7110  -10.1787  -45.5661 H         1 UNK         0.3000 
    190 H190       -2.6525  -21.9323  -45.2043 H         1 UNK         0.3000 
    191 H191       -4.8517  -23.2649  -46.2128 H         1 UNK         0.0600 
    192 H192       -4.9056  -21.6949  -44.2996 H         1 UNK         0.0600 
    193 H193       -5.6793  -23.2106  -43.8610 H         1 UNK         0.0600 
    194 H194       -4.0541  -22.8583  -43.2858 H         1 UNK         0.0600 
    195 H195       -2.1204  -24.7083  -44.4878 H         1 UNK         0.3000 
    196 H196       -3.3879  -27.3670  -44.3125 H         1 UNK         0.0600 
    197 H197       -1.2294  -28.0004  -43.2540 H         1 UNK         0.0600 
    198 H198       -1.9368  -26.6036  -42.4566 H         1 UNK         0.0600 
    199 H199       -0.5806  -26.3943  -43.5616 H         1 UNK         0.0600 
    200 H200       -0.6928  -25.7425  -46.0643 H         1 UNK         0.3000 
    201 H201        0.1776  -28.1056  -47.3836 H         1 UNK         0.0600 
    202 H202        1.6803  -26.2279  -46.8193 H         1 UNK         0.0600 
    203 H203        0.8150  -25.1611  -47.9235 H         1 UNK         0.0600 
    204 H204        1.7229  -26.5325  -48.5492 H         1 UNK         0.0600 
    205 H205       -1.8507  -25.3758  -48.5538 H         1 UNK         0.3000 
    206 H206       -2.3670  -26.8225  -51.1142 H         1 UNK         0.0600 
    207 H207       -0.3829  -25.3514  -51.4471 H         1 UNK         0.0600 
    208 H208       -1.7608  -24.7402  -52.3444 H         1 UNK         0.0600 
    209 H209       -1.2871  -23.9697  -50.8315 H         1 UNK         0.0600 
    210 H210       -3.7568  -25.3901  -48.5080 H         1 UNK         0.3000 
    211 H211       -5.7917  -24.7671  -47.9497 H         1 UNK         0.0600 
    212 H212       -6.7552  -25.5022  -50.7670 H         1 UNK         0.0600 
    213 H213       -7.7701  -25.1645  -49.3699 H         1 UNK         0.0600 
    214 H214       -6.7173  -26.5659  -49.3674 H         1 UNK         0.0600 
    215 H215       -7.0688  -23.4575  -50.8294 H         1 UNK         0.3000 
    216 H216       -6.9967  -20.7976  -49.7755 H         1 UNK         0.0600 
    217 H217       -8.8818  -21.6295  -51.1468 H         1 UNK         0.0600 
    218 H218       -7.8193  -21.8536  -52.5354 H         1 UNK         0.0600 
    219 H219       -8.1519  -20.2364  -51.9284 H         1 UNK         0.0600 
    220 H220       -5.5847  -19.1686  -50.0932 H         1 UNK         0.3000 
    221 H221       -3.0767  -19.4273  -51.3281 H         1 UNK         0.0600 
    222 H222       -3.0055  -16.9073  -50.9967 H         1 UNK         0.0600 
    223 H223       -4.6901  -16.9546  -50.5095 H         1 UNK         0.0600 
    224 H224       -3.4650  -17.7974  -49.5573 H         1 UNK         0.0600 
    225 H225       -6.1143  -18.0861  -52.5944 H         1 UNK         0.3000 
    226 H226       -5.1282  -17.0458  -55.0503 H         1 UNK         0.0600 
    227 H227       -7.5492  -17.0411  -55.6819 H         1 UNK         0.0600 
    228 H228       -7.9292  -18.0310  -54.2777 H         1 UNK         0.0600 
    229 H229       -7.3119  -16.3914  -54.0678 H         1 UNK         0.0600 
    230 H230       -5.9136  -20.3402  -54.0839 H         1 UNK         0.3000 
    231 H231       -5.8906  -21.3849  -56.8447 H         1 UNK         0.0600 
    232 H232       -6.2387  -23.5659  -55.7558 H         1 UNK         0.0600 
    233 H233       -7.4249  -22.4124  -55.1656 H         1 UNK         0.0600 
    234 H234       -6.0464  -22.8576  -54.1607 H         1 UNK         0.0600 
    235 H235       -3.8985  -21.4116  -53.8610 H         1 UNK         0.3000 
    236 H236       -1.7812  -22.9892  -54.7358 H         1 UNK         0.0600 
    237 H237       -2.2469  -22.3020  -52.3689 H         1 UNK         0.0600 
    238 H238       -0.5674  -22.0250  -52.8163 H         1 UNK         0.0600 
    239 H239       -1.6944  -20.6768  -52.7361 H         1 UNK         0.0600 
    240 H240       -2.1101  -19.4168  -55.0108 H         1 UNK         0.3000 
    241 H241        0.3287  -19.2228  -56.6588 H         1 UNK         0.0600 
    242 H242       -2.6024  -19.8773  -59.2072 H         1 UNK         0.3800 
    243 H243       -2.5484  -20.5511  -57.6008 H         1 UNK         0.3800 
    244 H244       -1.6284  -17.0777  -55.7406 H         1 UNK         0.0800 
    245 H245       -0.2525  -16.7572  -56.7596 H         1 UNK         0.0800 
    246 H246       -0.3441  -15.3719  -53.3901 H         1 UNK         0.0800 
    247 H247       -1.5937  -16.5734  -53.5546 H         1 UNK         0.0800 
@<TRIPOS>BOND
     1    1    2 1    
     2    1  127 1    
     3    1  128 1    
     4    1  129 1    
     5    2    3 2    
     6    2    4 am   BACKBONE|DICT|INTERRES
     7    4    5 1    
     8    4  130 1    
     9    5    6 1    
    10    5   65 1    
    11    5  131 1    
    12    6    7 1    
    13    6  132 1    
    14    6  133 1    
    15    7    8 1    
    16    8    9 1    
    17    8  134 1    
    18    8  135 1    
    19    9   10 ar   
    20    9   14 ar   
    21   10   11 ar   
    22   10  136 1    
    23   11   12 ar   
    24   11  126 1    
    25   12   13 ar   
    26   12  137 1    
    27   13   14 ar   
    28   13   15 1    
    29   14  138 1    
    30   15   16 1    
    31   15  139 1    
    32   15  140 1    
    33   16   17 1    
    34   17   18 1    
    35   17  141 1    
    36   17  142 1    
    37   18   19 1    
    38   18   67 1    
    39   18  143 1    
    40   19   20 am   BACKBONE|DICT|INTERRES
    41   19  144 1    
    42   20   21 2    
    43   20   22 1    
    44   22   23 1    
    45   22   24 1    
    46   22  145 1    
    47   23  146 1    
    48   23  147 1    
    49   23  148 1    
    50   24   25 am   BACKBONE|DICT|INTERRES
    51   24  149 1    
    52   25   26 2    
    53   25   27 1    
    54   27   28 1    
    55   27   29 1    
    56   27  150 1    
    57   28  151 1    
    58   28  152 1    
    59   28  153 1    
    60   29   30 am   BACKBONE|DICT|INTERRES
    61   29  154 1    
    62   30   31 2    
    63   30   32 1    
    64   32   33 1    
    65   32   34 1    
    66   32  155 1    
    67   33  156 1    
    68   33  157 1    
    69   33  158 1    
    70   34   35 am   BACKBONE|DICT|INTERRES
    71   34  159 1    
    72   35   36 2    
    73   35   37 1    
    74   37   38 1    
    75   37   39 1    
    76   37  160 1    
    77   38  161 1    
    78   38  162 1    
    79   38  163 1    
    80   39   40 am   BACKBONE|DICT|INTERRES
    81   39  164 1    
    82   40   41 2    
    83   40   42 1    
    84   42   43 1    
    85   42   44 1    
    86   42  165 1    
    87   43  166 1    
    88   43  167 1    
    89   43  168 1    
    90   44   45 am   BACKBONE|DICT|INTERRES
    91   44  169 1    
    92   45   46 2    
    93   45   47 1    
    94   47   48 1    
    95   47   49 1    
    96   47  170 1    
    97   48  171 1    
    98   48  172 1    
    99   48  173 1    
   100   49   50 am   BACKBONE|DICT|INTERRES
   101   49  174 1    
   102   50   51 2    
   103   50   52 1    
   104   52   53 1    
   105   52   54 1    
   106   52  175 1    
   107   53  176 1    
   108   53  177 1    
   109   53  178 1    
   110   54   55 am   BACKBONE|DICT|INTERRES
   111   54  179 1    
   112   55   56 2    
   113   55   57 1    
   114   57   58 1    
   115   57   59 1    
   116   57  180 1    
   117   58  181 1    
   118   58  182 1    
   119   58  183 1    
   120   59   60 am   BACKBONE|DICT|INTERRES
   121   59  184 1    
   122   60   61 2    
   123   60   62 1    
   124   62   63 1    
   125   62   64 1    
   126   62  185 1    
   127   63  186 1    
   128   63  187 1    
   129   63  188 1    
   130   64   65 am   BACKBONE|DICT|INTERRES
   131   64  189 1    
   132   65   66 2    
   133   67   68 2    
   134   67   69 am   BACKBONE|DICT|INTERRES
   135   69   70 1    
   136   69  190 1    
   137   70   71 1    
   138   70   72 1    
   139   70  191 1    
   140   71  192 1    
   141   71  193 1    
   142   71  194 1    
   143   72   73 2    
   144   72   74 am   BACKBONE|DICT|INTERRES
   145   74   75 1    
   146   74  195 1    
   147   75   76 1    
   148   75   77 1    
   149   75  196 1    
   150   76  197 1    
   151   76  198 1    
   152   76  199 1    
   153   77   78 2    
   154   77   79 am   BACKBONE|DICT|INTERRES
   155   79   80 1    
   156   79  200 1    
   157   80   81 1    
   158   80   82 1    
   159   80  201 1    
   160   81  202 1    
   161   81  203 1    
   162   81  204 1    
   163   82   83 2    
   164   82   84 am   BACKBONE|DICT|INTERRES
   165   84   85 1    
   166   84  205 1    
   167   85   86 1    
   168   85   87 1    
   169   85  206 1    
   170   86  207 1    
   171   86  208 1    
   172   86  209 1    
   173   87   88 2    
   174   87   89 am   BACKBONE|DICT|INTERRES
   175   89   90 1    
   176   89  210 1    
   177   90   91 1    
   178   90   92 1    
   179   90  211 1    
   180   91  212 1    
   181   91  213 1    
   182   91  214 1    
   183   92   93 2    
   184   92   94 am   BACKBONE|DICT|INTERRES
   185   94   95 1    
   186   94  215 1    
   187   95   96 1    
   188   95   97 1    
   189   95  216 1    
   190   96  217 1    
   191   96  218 1    
   192   96  219 1    
   193   97   98 2    
   194   97   99 am   BACKBONE|DICT|INTERRES
   195   99  100 1    
   196   99  220 1    
   197  100  101 1    
   198  100  102 1    
   199  100  221 1    
   200  101  222 1    
   201  101  223 1    
   202  101  224 1    
   203  102  103 2    
   204  102  104 am   BACKBONE|DICT|INTERRES
   205  104  105 1    
   206  104  225 1    
   207  105  106 1    
   208  105  107 1    
   209  105  226 1    
   210  106  227 1    
   211  106  228 1    
   212  106  229 1    
   213  107  108 2    
   214  107  109 am   BACKBONE|DICT|INTERRES
   215  109  110 1    
   216  109  230 1    
   217  110  111 1    
   218  110  112 1    
   219  110  231 1    
   220  111  232 1    
   221  111  233 1    
   222  111  234 1    
   223  112  113 2    
   224  112  114 am   BACKBONE|DICT|INTERRES
   225  114  115 1    
   226  114  235 1    
   227  115  116 1    
   228  115  117 1    
   229  115  236 1    
   230  116  237 1    
   231  116  238 1    
   232  116  239 1    
   233  117  118 2    
   234  117  119 am   BACKBONE|DICT|INTERRES
   235  119  120 1    
   236  119  240 1    
   237  120  121 1    
   238  120  124 1    
   239  120  241 1    
   240  121  122 am   BACKBONE|DICT|INTERRES
   241  121  123 2    
   242  122  242 1    
   243  122  243 1    
   244  124  125 1    
   245  124  244 1    
   246  124  245 1    
   247  125  126 1    
   248  126  246 1    
   249  126  247 1    
@<TRIPOS>SUBSTRUCTURE
     1 UNK         1 GROUP             0       ****    0 ROOT    
