@<TRIPOS>MOLECULE
3R540
247   249    1
SMALL
USER_CHARGES


@<TRIPOS>ATOM
      1 CA         -0.5625  -12.5766  -47.5855 C.3       0 UNK        -0.1800 
      2 C           0.9284  -12.3175  -47.4255 C.2       0 UNK         0.5000 
      3 O           1.4716  -12.5229  -46.3412 O.2       0 UNK        -0.5000 
      4 N           1.5852  -11.8504  -48.4967 N.am      1 UNK        -0.5000 
      5 CA          3.0061  -11.4690  -48.6101 C.3       1 UNK         0.1400 
      6 C6          4.0152  -12.5976  -48.2637 C.3       23 UNK        -0.0398 
      7 S7          3.8599  -14.0398  -49.3698 S.3       23 UNK        -0.2404 
      8 C8          3.1678  -15.2795  -48.2341 C.3       23 UNK        -0.0205 
      9 C9          2.7620  -16.5425  -48.9757 C.ar      23 UNK        -0.0193 
     10 C10         1.6236  -16.5392  -49.7882 C.ar      23 UNK        -0.1150 
     11 C11         1.2065  -17.7013  -50.4433 C.ar      23 UNK        -0.0193 
     12 C12         1.9633  -18.8684  -50.2934 C.ar      23 UNK        -0.1150 
     13 C13         3.0974  -18.8906  -49.4779 C.ar      23 UNK        -0.0193 
     14 C14         3.4962  -17.7222  -48.8235 C.ar      23 UNK        -0.1150 
     15 C15         3.8724  -20.1876  -49.2920 C.3       23 UNK        -0.0205 
     16 S16         3.2304  -21.1759  -47.9007 S.3       23 UNK        -0.2404 
     17 C17         1.5347  -21.5352  -48.4700 C.3       23 UNK        -0.0398 
     18 CA          0.8314  -22.6300  -47.6408 C.3       11 UNK         0.1400 
     19 N           0.5648  -22.2157  -46.2603 N.am      11 UNK        -0.5000 
     20 C           0.0972  -23.0307  -45.3043 C.2       10 UNK         0.5000 
     21 O          -0.1033  -24.2345  -45.4709 O.2       10 UNK        -0.5000 
     22 CA         -0.2577  -22.3865  -43.9524 C.3       10 UNK         0.1400 
     23 CB          1.0022  -22.1509  -43.1062 C.3       10 UNK        -0.1800 
     24 N          -0.9989  -21.1331  -44.1055 N.am      10 UNK        -0.5000 
     25 C          -2.2227  -21.0398  -44.6463 C.2       9 UNK         0.5000 
     26 O          -2.8727  -22.0116  -45.0302 O.2       9 UNK        -0.5000 
     27 CA         -2.8049  -19.6253  -44.8313 C.3       9 UNK         0.1400 
     28 CB         -3.4022  -19.1016  -43.5175 C.3       9 UNK        -0.1800 
     29 N          -1.8242  -18.6679  -45.3428 N.am      9 UNK        -0.5000 
     30 C          -1.2104  -18.7713  -46.5306 C.2       8 UNK         0.5000 
     31 O          -1.4288  -19.6681  -47.3423 O.2       8 UNK        -0.5000 
     32 CA         -0.1214  -17.7325  -46.8353 C.3       8 UNK         0.1400 
     33 CB         -0.7438  -16.4187  -47.3302 C.3       8 UNK        -0.1800 
     34 N           0.7357  -17.4781  -45.6777 N.am      8 UNK        -0.5000 
     35 C           1.5280  -18.4006  -45.1120 C.2       7 UNK         0.5000 
     36 O           1.6318  -19.5571  -45.5164 O.2       7 UNK        -0.5000 
     37 CA          2.2755  -17.9746  -43.8381 C.3       7 UNK         0.1400 
     38 CB          3.4925  -17.1043  -44.1878 C.3       7 UNK        -0.1800 
     39 N           1.3973  -17.2604  -42.9098 N.am      7 UNK        -0.5000 
     40 C           0.3569  -17.8275  -42.2762 C.2       6 UNK         0.5000 
     41 O           0.0825  -19.0239  -42.3598 O.2       6 UNK        -0.5000 
     42 CA         -0.5624  -16.9084  -41.4456 C.3       6 UNK         0.1400 
     43 CB         -0.0984  -16.8667  -39.9824 C.3       6 UNK        -0.1800 
     44 N          -0.6365  -15.5427  -41.9626 N.am      6 UNK        -0.5000 
     45 C          -1.0522  -15.1986  -43.1895 C.2       5 UNK         0.5000 
     46 O          -1.5492  -15.9972  -43.9843 O.2       5 UNK        -0.5000 
     47 CA         -0.8183  -13.7362  -43.6231 C.3       5 UNK         0.1400 
     48 CB         -2.1369  -12.9505  -43.6294 C.3       5 UNK        -0.1800 
     49 N           0.1661  -13.0135  -42.8083 N.am      5 UNK        -0.5000 
     50 C           1.4627  -13.3275  -42.6825 C.2       4 UNK         0.5000 
     51 O           1.9690  -14.3148  -43.2185 O.2       4 UNK        -0.5000 
     52 CA          2.3155  -12.4112  -41.7767 C.3       4 UNK         0.1400 
     53 CB          3.8096  -12.7814  -41.8087 C.3       4 UNK        -0.1800 
     54 N           2.1824  -10.9928  -42.1125 N.am      4 UNK        -0.5000 
     55 C           1.1510  -10.1915  -41.8100 C.2       3 UNK         0.5000 
     56 O           0.1542  -10.5725  -41.1950 O.2       3 UNK        -0.5000 
     57 CA          1.2383   -8.7281  -42.2924 C.3       3 UNK         0.1400 
     58 CB          1.7068   -7.8133  -41.1506 C.3       3 UNK        -0.1800 
     59 N           2.1371   -8.5599  -43.4387 N.am      3 UNK        -0.5000 
     60 C           1.8711   -8.9990  -44.6759 C.2       2 UNK         0.5000 
     61 O           0.7881   -9.4945  -44.9965 O.2       2 UNK        -0.5000 
     62 CA          3.0004   -8.9038  -45.7184 C.3       2 UNK         0.1400 
     63 CB          4.4178   -8.8583  -45.1048 C.3       2 UNK        -0.1800 
     64 N           2.8745  -10.0522  -46.6063 N.am      2 UNK        -0.5000 
     65 C           3.3505  -10.1700  -47.8471 C.2       1 UNK         0.5000 
     66 O           4.0214   -9.2995  -48.4037 O.2       1 UNK        -0.5000 
     67 C          -0.4539  -23.0952  -48.3550 C.2       11 UNK         0.5000 
     68 O          -0.4278  -24.1337  -49.0125 O.2       11 UNK        -0.5000 
     69 N          -1.5586  -22.3529  -48.1895 N.am      12 UNK        -0.5000 
     70 CA         -2.8741  -22.6923  -48.7334 C.3       12 UNK         0.1400 
     71 CB         -3.8616  -21.5460  -48.4776 C.3       12 UNK        -0.1800 
     72 C          -3.4264  -24.0113  -48.1723 C.2       12 UNK         0.5000 
     73 O          -3.9651  -24.8084  -48.9380 O.2       12 UNK        -0.5000 
     74 N          -3.2522  -24.2376  -46.8630 N.am      13 UNK        -0.5000 
     75 CA         -3.6117  -25.4823  -46.1845 C.3       13 UNK         0.1400 
     76 CB         -3.4668  -25.3079  -44.6654 C.3       13 UNK        -0.1800 
     77 C          -2.7888  -26.6832  -46.6849 C.2       13 UNK         0.5000 
     78 O          -3.3626  -27.7427  -46.9375 O.2       13 UNK        -0.5000 
     79 N          -1.4742  -26.4864  -46.8627 N.am      14 UNK        -0.5000 
     80 CA         -0.5516  -27.4820  -47.4144 C.3       14 UNK         0.1400 
     81 CB          0.8942  -26.9932  -47.2400 C.3       14 UNK        -0.1800 
     82 C          -0.8433  -27.8184  -48.8902 C.2       14 UNK         0.5000 
     83 O          -0.7775  -28.9870  -49.2731 O.2       14 UNK        -0.5000 
     84 N          -1.1885  -26.7946  -49.6822 N.am      15 UNK        -0.5000 
     85 CA         -1.5854  -26.9084  -51.0875 C.3       15 UNK         0.1400 
     86 CB         -1.4666  -25.5239  -51.7452 C.3       15 UNK        -0.1800 
     87 C          -3.0089  -27.4689  -51.2861 C.2       15 UNK         0.5000 
     88 O          -3.3548  -27.8316  -52.4104 O.2       15 UNK        -0.5000 
     89 N          -3.8062  -27.5057  -50.2082 N.am      16 UNK        -0.5000 
     90 CA         -5.2233  -27.8753  -50.1506 C.3       16 UNK         0.1400 
     91 CB         -5.4228  -29.3649  -50.5003 C.3       16 UNK        -0.1800 
     92 C          -6.1103  -26.9224  -50.9808 C.2       16 UNK         0.5000 
     93 O          -7.0107  -27.3746  -51.6906 O.2       16 UNK        -0.5000 
     94 N          -5.8253  -25.6158  -50.8636 N.am      17 UNK        -0.5000 
     95 CA         -6.4677  -24.4871  -51.5438 C.3       17 UNK         0.1400 
     96 CB         -7.9003  -24.2782  -51.0124 C.3       17 UNK        -0.1800 
     97 C          -6.3997  -24.6147  -53.0788 C.2       17 UNK         0.5000 
     98 O          -7.4300  -24.6114  -53.7562 O.2       17 UNK        -0.5000 
     99 N          -5.1704  -24.7472  -53.5954 N.am      18 UNK        -0.5000 
    100 CA        -4.8680  -24.8521  -55.0258 C.3       18 UNK         0.1400 
    101 CB        -3.3905  -25.2320  -55.2003 C.3       18 UNK        -0.1800 
    102 C         -5.1881  -23.5665  -55.8143 C.2       18 UNK         0.5000 
    103 O         -5.4640  -23.6405  -57.0127 O.2       18 UNK        -0.5000 
    104 N         -5.1612  -22.4224  -55.1257 N.am      19 UNK        -0.5000 
    105 CA        -5.5731  -21.1144  -55.6149 C.3       19 UNK         0.1400 
    106 CB        -4.3338  -20.3499  -56.1085 C.3       19 UNK        -0.1800 
    107 C         -6.2937  -20.3719  -54.4785 C.2       19 UNK         0.5000 
    108 O         -6.3146  -20.8544  -53.3419 O.2       19 UNK        -0.5000 
    109 N         -6.8739  -19.2089  -54.8013 N.am      20 UNK        -0.5000 
    110 CA        -7.5768  -18.3230  -53.8705 C.3       20 UNK         0.1400 
    111 CB        -8.1924  -17.1549  -54.6592 C.3       20 UNK        -0.1800 
    112 C         -6.6462  -17.8246  -52.7467 C.2       20 UNK         0.5000 
    113 O         -5.8604  -16.9011  -52.9672 O.2       20 UNK        -0.5000 
    114 N         -6.7293  -18.4920  -51.5868 N.am      21 UNK        -0.5000 
    115 CA        -5.8835  -18.3251  -50.4008 C.3       21 UNK         0.1400 
    116 CB        -6.1344  -16.9548  -49.7365 C.3       21 UNK        -0.1800 
    117 C         -4.3885  -18.6000  -50.6768 C.2       21 UNK         0.5000 
    118 O         -3.5282  -17.9319  -50.1019 O.2       21 UNK        -0.5000 
    119 N         -4.1013  -19.5818  -51.5426 N.am      22 UNK        -0.5000 
    120 CA        -2.7445  -20.0070  -51.9087 C.3       22 UNK         0.1400 
    121 C         -2.7211  -21.4610  -52.4646 C.2       22 UNK         0.5000 
    122 N         -1.5811  -21.9322  -52.9478 N.am      22 UNK        -0.7600 
    123 O         -3.7164  -22.1821  -52.4465 O.2       22 UNK        -0.5000 
    124 C124       -2.0288  -18.9635  -52.8204 C.3       23 UNK        -0.0398 
    125 S125       -0.2235  -18.9197  -52.5623 S.3       23 UNK        -0.2404 
    126 C126       -0.1075  -17.6845  -51.2222 C.3       23 UNK        -0.0205 
    127 H127       -0.8463  -12.6649  -48.6344 H         1 UNK         0.0600 
    128 H128       -1.1305  -11.7593  -47.1413 H         1 UNK         0.0600 
    129 H129       -0.8467  -13.4976  -47.0791 H         1 UNK         0.0600 
    130 H130        1.0538  -11.6936  -49.3416 H         1 UNK         0.3000 
    131 H131        3.1463  -11.2320  -49.6663 H         1 UNK         0.0600 
    132 H132        3.9173  -12.9095  -47.2229 H         1 UNK         0.0800 
    133 H133        5.0381  -12.2310  -48.3670 H         1 UNK         0.0800 
    134 H134        2.2968  -14.8695  -47.7240 H         1 UNK         0.0800 
    135 H135        3.8999  -15.5053  -47.4572 H         1 UNK         0.0800 
    136 H136        1.0449  -15.6312  -49.8854 H         1 UNK         0.1150 
    137 H137        1.6532  -19.7809  -50.7797 H         1 UNK         0.1150 
    138 H138        4.3677  -17.7373  -48.1843 H         1 UNK         0.1150 
    139 H139        3.8404  -20.7815  -50.2067 H         1 UNK         0.0800 
    140 H140        4.9253  -19.9670  -49.1107 H         1 UNK         0.0800 
    141 H141        1.5960  -21.8351  -49.5180 H         1 UNK         0.0800 
    142 H142        0.9509  -20.6143  -48.4380 H         1 UNK         0.0800 
    143 H143        1.4975  -23.4943  -47.5955 H         1 UNK         0.0600 
    144 H144        0.7570  -21.2438  -46.0323 H         1 UNK         0.3000 
    145 H145       -0.8986  -23.0864  -43.4123 H         1 UNK         0.0600 
    146 H146        0.7456  -21.7771  -42.1149 H         1 UNK         0.0600 
    147 H147        1.6735  -21.4290  -43.5713 H         1 UNK         0.0600 
    148 H148        1.5599  -23.0783  -42.9701 H         1 UNK         0.0600 
    149 H149       -0.5425  -20.2917  -43.7676 H         1 UNK         0.3000 
    150 H150       -3.6099  -19.6912  -45.5660 H         1 UNK         0.0600 
    151 H151       -4.2005  -19.7565  -43.1663 H         1 UNK         0.0600 
    152 H152       -3.8281  -18.1061  -43.6444 H         1 UNK         0.0600 
    153 H153       -2.6533  -19.0486  -42.7280 H         1 UNK         0.0600 
    154 H154       -1.6061  -17.8699  -44.7547 H         1 UNK         0.3000 
    155 H155        0.5086  -18.1373  -47.6289 H         1 UNK         0.0600 
    156 H156       -1.4286  -15.9889  -46.5998 H         1 UNK         0.0600 
    157 H157       -1.3090  -16.5816  -48.2488 H         1 UNK         0.0600 
    158 H158        0.0230  -15.6770  -47.5463 H         1 UNK         0.0600 
    159 H159        0.6642  -16.5690  -45.2458 H         1 UNK         0.3000 
    160 H160        2.6347  -18.8774  -43.3392 H         1 UNK         0.0600 
    161 H161        3.2030  -16.1942  -44.7146 H         1 UNK         0.0600 
    162 H162        4.1851  -17.6472  -44.8322 H         1 UNK         0.0600 
    163 H163        4.0402  -16.8121  -43.2917 H         1 UNK         0.0600 
    164 H164        1.5474  -16.2599  -42.8264 H         1 UNK         0.3000 
    165 H165       -1.5690  -17.3286  -41.4748 H         1 UNK         0.0600 
    166 H166       -0.7841  -16.2842  -39.3668 H         1 UNK         0.0600 
    167 H167       -0.0559  -17.8709  -39.5581 H         1 UNK         0.0600 
    168 H168        0.8957  -16.4278  -39.8876 H         1 UNK         0.0600 
    169 H169       -0.2494  -14.8170  -41.3785 H         1 UNK         0.3000 
    170 H170       -0.4348  -13.7677  -44.6444 H         1 UNK         0.0600 
    171 H171       -2.8842  -13.4443  -44.2521 H         1 UNK         0.0600 
    172 H172       -2.5531  -12.8565  -42.6257 H         1 UNK         0.0600 
    173 H173       -1.9937  -11.9467  -44.0304 H         1 UNK         0.0600 
    174 H174       -0.1626  -12.1897  -42.3150 H         1 UNK         0.3000 
    175 H175        1.9606  -12.5579  -40.7546 H         1 UNK         0.0600 
    176 H176        4.2296  -12.6695  -42.8092 H         1 UNK         0.0600 
    177 H177        4.3869  -12.1541  -41.1294 H         1 UNK         0.0600 
    178 H178        3.9650  -13.8163  -41.5007 H         1 UNK         0.0600 
    179 H179        2.9388  -10.5953  -42.6481 H         1 UNK         0.3000 
    180 H180        0.2342   -8.4177  -42.5895 H         1 UNK         0.0600 
    181 H181        1.7110   -6.7677  -41.4591 H         1 UNK         0.0600 
    182 H182        2.7125   -8.0697  -40.8152 H         1 UNK         0.0600 
    183 H183        1.0429   -7.8936  -40.2887 H         1 UNK         0.0600 
    184 H184        3.0406   -8.1499  -43.2500 H         1 UNK         0.3000 
    185 H185        2.8303   -7.9920  -46.2940 H         1 UNK         0.0600 
    186 H186        4.6126   -9.7283  -44.4764 H         1 UNK         0.0600 
    187 H187        5.1837   -8.8354  -45.8801 H         1 UNK         0.0600 
    188 H188        4.5630   -7.9639  -44.4983 H         1 UNK         0.0600 
    189 H189        2.2843  -10.8047  -46.2558 H         1 UNK         0.3000 
    190 H190       -1.4941  -21.4748  -47.6781 H         1 UNK         0.3000 
    191 H191       -2.7614  -22.8120  -49.8119 H         1 UNK         0.0600 
    192 H192       -3.4643  -20.6001  -48.8399 H         1 UNK         0.0600 
    193 H193       -4.0784  -21.4265  -47.4161 H         1 UNK         0.0600 
    194 H194       -4.8071  -21.7245  -48.9912 H         1 UNK         0.0600 
    195 H195       -2.8551  -23.5011  -46.2864 H         1 UNK         0.3000 
    196 H196       -4.6622  -25.6870  -46.4017 H         1 UNK         0.0600 
    197 H197       -4.1097  -24.5076  -44.2986 H         1 UNK         0.0600 
    198 H198       -2.4421  -25.0683  -44.3812 H         1 UNK         0.0600 
    199 H199       -3.7496  -26.2201  -44.1387 H         1 UNK         0.0600 
    200 H200       -1.0728  -25.5936  -46.5920 H         1 UNK         0.3000 
    201 H201       -0.6692  -28.4010  -46.8365 H         1 UNK         0.0600 
    202 H202        1.1273  -26.8202  -46.1891 H         1 UNK         0.0600 
    203 H203        1.0735  -26.0625  -47.7785 H         1 UNK         0.0600 
    204 H204        1.6042  -27.7317  -47.6142 H         1 UNK         0.0600 
    205 H205       -1.1365  -25.8506  -49.3060 H         1 UNK         0.3000 
    206 H206       -0.8916  -27.5864  -51.5883 H         1 UNK         0.0600 
    207 H207       -2.1605  -24.8073  -51.3036 H         1 UNK         0.0600 
    208 H208       -0.4588  -25.1216  -51.6406 H         1 UNK         0.0600 
    209 H209       -1.6813  -25.5789  -52.8117 H         1 UNK         0.0600 
    210 H210       -3.4227  -27.1463  -49.3440 H         1 UNK         0.3000 
    211 H211       -5.5259  -27.7406  -49.1111 H         1 UNK         0.0600 
    212 H212       -5.1973  -29.5720  -51.5466 H         1 UNK         0.0600 
    213 H213       -6.4540  -29.6716  -50.3223 H         1 UNK         0.0600 
    214 H214       -4.7849  -30.0012  -49.8868 H         1 UNK         0.0600 
    215 H215       -5.0709  -25.3612  -50.2263 H         1 UNK         0.3000 
    216 H216       -5.8898  -23.5990  -51.2822 H         1 UNK         0.0600 
    217 H217       -8.3504  -23.3870  -51.4513 H         1 UNK         0.0600 
    218 H218       -7.9022  -24.1438  -49.9307 H         1 UNK         0.0600 
    219 H219       -8.5487  -25.1229  -51.2470 H         1 UNK         0.0600 
    220 H220       -4.3809  -24.7139  -52.9671 H         1 UNK         0.3000 
    221 H221       -5.4803  -25.6553  -55.4408 H         1 UNK         0.0600 
    222 H222       -2.7295  -24.4712  -54.7839 H         1 UNK         0.0600 
    223 H223       -3.1674  -26.1812  -54.7130 H         1 UNK         0.0600 
    224 H224       -3.1380  -25.3437  -56.2555 H         1 UNK         0.0600 
    225 H225       -4.9561  -22.4527  -54.1304 H         1 UNK         0.3000 
    226 H226       -6.2839  -21.2283  -56.4359 H         1 UNK         0.0600 
    227 H227       -3.8647  -20.8663  -56.9461 H         1 UNK         0.0600 
    228 H228       -4.5890  -19.3462  -56.4496 H         1 UNK         0.0600 
    229 H229       -3.5884  -20.2545  -55.3209 H         1 UNK         0.0600 
    230 H230       -6.7946  -18.8755  -55.7508 H         1 UNK         0.3000 
    231 H231       -8.3957  -18.8880  -53.4202 H         1 UNK         0.0600 
    232 H232       -8.7177  -16.4694  -53.9930 H         1 UNK         0.0600 
    233 H233       -8.9157  -17.5119  -55.3926 H         1 UNK         0.0600 
    234 H234       -7.4331  -16.5793  -55.1902 H         1 UNK         0.0600 
    235 H235       -7.3655  -19.2769  -51.5502 H         1 UNK         0.3000 
    236 H236       -6.1995  -19.0928  -49.6930 H         1 UNK         0.0600 
    237 H237       -5.7834  -16.1319  -50.3598 H         1 UNK         0.0600 
    238 H238       -7.1953  -16.7993  -49.5409 H         1 UNK         0.0600 
    239 H239       -5.6156  -16.8833  -48.7798 H         1 UNK         0.0600 
    240 H240       -4.8501  -20.1183  -51.9708 H         1 UNK         0.3000 
    241 H241       -2.1976  -20.0743  -50.9660 H         1 UNK         0.0600 
    242 H242       -1.5456  -22.8727  -53.3022 H         1 UNK         0.3800 
    243 H243       -0.7535  -21.3554  -52.9749 H         1 UNK         0.3800 
    244 H244       -2.4113  -17.9577  -52.6420 H         1 UNK         0.0800 
    245 H245       -2.2274  -19.1583  -53.8737 H         1 UNK         0.0800 
    246 H246       -0.2805  -16.6950  -51.6480 H         1 UNK         0.0800 
    247 H247       -0.9101  -17.8617  -50.5058 H         1 UNK         0.0800 
@<TRIPOS>BOND
     1    1    2 1    
     2    1  127 1    
     3    1  128 1    
     4    1  129 1    
     5    2    3 2    
     6    2    4 am   BACKBONE|DICT|INTERRES
     7    4    5 1    
     8    4  130 1    
     9    5    6 1    
    10    5   65 1    
    11    5  131 1    
    12    6    7 1    
    13    6  132 1    
    14    6  133 1    
    15    7    8 1    
    16    8    9 1    
    17    8  134 1    
    18    8  135 1    
    19    9   10 ar   
    20    9   14 ar   
    21   10   11 ar   
    22   10  136 1    
    23   11   12 ar   
    24   11  126 1    
    25   12   13 ar   
    26   12  137 1    
    27   13   14 ar   
    28   13   15 1    
    29   14  138 1    
    30   15   16 1    
    31   15  139 1    
    32   15  140 1    
    33   16   17 1    
    34   17   18 1    
    35   17  141 1    
    36   17  142 1    
    37   18   19 1    
    38   18   67 1    
    39   18  143 1    
    40   19   20 am   BACKBONE|DICT|INTERRES
    41   19  144 1    
    42   20   21 2    
    43   20   22 1    
    44   22   23 1    
    45   22   24 1    
    46   22  145 1    
    47   23  146 1    
    48   23  147 1    
    49   23  148 1    
    50   24   25 am   BACKBONE|DICT|INTERRES
    51   24  149 1    
    52   25   26 2    
    53   25   27 1    
    54   27   28 1    
    55   27   29 1    
    56   27  150 1    
    57   28  151 1    
    58   28  152 1    
    59   28  153 1    
    60   29   30 am   BACKBONE|DICT|INTERRES
    61   29  154 1    
    62   30   31 2    
    63   30   32 1    
    64   32   33 1    
    65   32   34 1    
    66   32  155 1    
    67   33  156 1    
    68   33  157 1    
    69   33  158 1    
    70   34   35 am   BACKBONE|DICT|INTERRES
    71   34  159 1    
    72   35   36 2    
    73   35   37 1    
    74   37   38 1    
    75   37   39 1    
    76   37  160 1    
    77   38  161 1    
    78   38  162 1    
    79   38  163 1    
    80   39   40 am   BACKBONE|DICT|INTERRES
    81   39  164 1    
    82   40   41 2    
    83   40   42 1    
    84   42   43 1    
    85   42   44 1    
    86   42  165 1    
    87   43  166 1    
    88   43  167 1    
    89   43  168 1    
    90   44   45 am   BACKBONE|DICT|INTERRES
    91   44  169 1    
    92   45   46 2    
    93   45   47 1    
    94   47   48 1    
    95   47   49 1    
    96   47  170 1    
    97   48  171 1    
    98   48  172 1    
    99   48  173 1    
   100   49   50 am   BACKBONE|DICT|INTERRES
   101   49  174 1    
   102   50   51 2    
   103   50   52 1    
   104   52   53 1    
   105   52   54 1    
   106   52  175 1    
   107   53  176 1    
   108   53  177 1    
   109   53  178 1    
   110   54   55 am   BACKBONE|DICT|INTERRES
   111   54  179 1    
   112   55   56 2    
   113   55   57 1    
   114   57   58 1    
   115   57   59 1    
   116   57  180 1    
   117   58  181 1    
   118   58  182 1    
   119   58  183 1    
   120   59   60 am   BACKBONE|DICT|INTERRES
   121   59  184 1    
   122   60   61 2    
   123   60   62 1    
   124   62   63 1    
   125   62   64 1    
   126   62  185 1    
   127   63  186 1    
   128   63  187 1    
   129   63  188 1    
   130   64   65 am   BACKBONE|DICT|INTERRES
   131   64  189 1    
   132   65   66 2    
   133   67   68 2    
   134   67   69 am   BACKBONE|DICT|INTERRES
   135   69   70 1    
   136   69  190 1    
   137   70   71 1    
   138   70   72 1    
   139   70  191 1    
   140   71  192 1    
   141   71  193 1    
   142   71  194 1    
   143   72   73 2    
   144   72   74 am   BACKBONE|DICT|INTERRES
   145   74   75 1    
   146   74  195 1    
   147   75   76 1    
   148   75   77 1    
   149   75  196 1    
   150   76  197 1    
   151   76  198 1    
   152   76  199 1    
   153   77   78 2    
   154   77   79 am   BACKBONE|DICT|INTERRES
   155   79   80 1    
   156   79  200 1    
   157   80   81 1    
   158   80   82 1    
   159   80  201 1    
   160   81  202 1    
   161   81  203 1    
   162   81  204 1    
   163   82   83 2    
   164   82   84 am   BACKBONE|DICT|INTERRES
   165   84   85 1    
   166   84  205 1    
   167   85   86 1    
   168   85   87 1    
   169   85  206 1    
   170   86  207 1    
   171   86  208 1    
   172   86  209 1    
   173   87   88 2    
   174   87   89 am   BACKBONE|DICT|INTERRES
   175   89   90 1    
   176   89  210 1    
   177   90   91 1    
   178   90   92 1    
   179   90  211 1    
   180   91  212 1    
   181   91  213 1    
   182   91  214 1    
   183   92   93 2    
   184   92   94 am   BACKBONE|DICT|INTERRES
   185   94   95 1    
   186   94  215 1    
   187   95   96 1    
   188   95   97 1    
   189   95  216 1    
   190   96  217 1    
   191   96  218 1    
   192   96  219 1    
   193   97   98 2    
   194   97   99 am   BACKBONE|DICT|INTERRES
   195   99  100 1    
   196   99  220 1    
   197  100  101 1    
   198  100  102 1    
   199  100  221 1    
   200  101  222 1    
   201  101  223 1    
   202  101  224 1    
   203  102  103 2    
   204  102  104 am   BACKBONE|DICT|INTERRES
   205  104  105 1    
   206  104  225 1    
   207  105  106 1    
   208  105  107 1    
   209  105  226 1    
   210  106  227 1    
   211  106  228 1    
   212  106  229 1    
   213  107  108 2    
   214  107  109 am   BACKBONE|DICT|INTERRES
   215  109  110 1    
   216  109  230 1    
   217  110  111 1    
   218  110  112 1    
   219  110  231 1    
   220  111  232 1    
   221  111  233 1    
   222  111  234 1    
   223  112  113 2    
   224  112  114 am   BACKBONE|DICT|INTERRES
   225  114  115 1    
   226  114  235 1    
   227  115  116 1    
   228  115  117 1    
   229  115  236 1    
   230  116  237 1    
   231  116  238 1    
   232  116  239 1    
   233  117  118 2    
   234  117  119 am   BACKBONE|DICT|INTERRES
   235  119  120 1    
   236  119  240 1    
   237  120  121 1    
   238  120  124 1    
   239  120  241 1    
   240  121  122 am   BACKBONE|DICT|INTERRES
   241  121  123 2    
   242  122  242 1    
   243  122  243 1    
   244  124  125 1    
   245  124  244 1    
   246  124  245 1    
   247  125  126 1    
   248  126  246 1    
   249  126  247 1    
@<TRIPOS>SUBSTRUCTURE
     1 UNK         1 GROUP             0       ****    0 ROOT    
