@<TRIPOS>MOLECULE
3R540
247   249    1
SMALL
USER_CHARGES


@<TRIPOS>ATOM
      1 CA         -3.7110  -12.7994  -44.8709 C.3       0 UNK        -0.1800 
      2 C          -2.6292  -12.1393  -45.7153 C.2       0 UNK         0.5000 
      3 O          -2.2324  -11.0102  -45.4253 O.2       0 UNK        -0.5000 
      4 N          -2.1636  -12.8375  -46.7578 N.am      1 UNK        -0.5000 
      5 CA         -1.0436  -12.4445  -47.6186 C.3       1 UNK         0.1400 
      6 C6         -1.2956  -12.8616  -49.0965 C.3       23 UNK        -0.0398 
      7 S7         -1.4868  -14.6632  -49.3630 S.3       23 UNK        -0.2404 
      8 C8         -0.2784  -14.9587  -50.6937 C.3       23 UNK        -0.0205 
      9 C9         -0.1456  -16.4425  -50.9928 C.ar      23 UNK        -0.0193 
     10 C10        -0.9128  -17.0340  -52.0014 C.ar      23 UNK        -0.1150 
     11 C11        -0.8066  -18.4038  -52.2605 C.ar      23 UNK        -0.0193 
     12 C12         0.0708  -19.1796  -51.4971 C.ar      23 UNK        -0.1150 
     13 C13         0.8467  -18.6011  -50.4896 C.ar      23 UNK        -0.0193 
     14 C14         0.7418  -17.2279  -50.2512 C.ar      23 UNK        -0.1150 
     15 C15         1.7981  -19.4610  -49.6665 C.3       23 UNK        -0.0205 
     16 S16         1.4112  -19.4356  -47.8855 S.3       23 UNK        -0.2404 
     17 C17        -0.2476  -20.1944  -47.8259 C.3       23 UNK        -0.0398 
     18 CA         -0.2785  -21.5395  -47.0582 C.3       11 UNK         0.1400 
     19 N           0.1654  -21.4318  -45.6613 N.am      11 UNK        -0.5000 
     20 C           0.3335  -22.4750  -44.8334 C.2       10 UNK         0.5000 
     21 O           0.2215  -23.6476  -45.1876 O.2       10 UNK        -0.5000 
     22 CA          0.5952  -22.1671  -43.3472 C.3       10 UNK         0.1400 
     23 CB          2.0865  -21.9207  -43.0730 C.3       10 UNK        -0.1800 
     24 N          -0.2061  -21.0371  -42.8738 N.am      10 UNK        -0.5000 
     25 C          -1.5379  -21.0802  -42.7201 C.2       9 UNK         0.5000 
     26 O          -2.2053  -22.1014  -42.8839 O.2       9 UNK        -0.5000 
     27 CA         -2.2530  -19.7604  -42.3700 C.3       9 UNK         0.1400 
     28 CB         -2.2940  -19.5484  -40.8498 C.3       9 UNK        -0.1800 
     29 N          -1.6452  -18.5950  -43.0136 N.am      9 UNK        -0.5000 
     30 C          -1.6132  -18.3883  -44.3377 C.2       8 UNK         0.5000 
     31 O          -2.1700  -19.1243  -45.1512 O.2       8 UNK        -0.5000 
     32 CA         -0.7695  -17.1995  -44.8404 C.3       8 UNK         0.1400 
     33 CB         -1.5924  -15.9048  -44.8280 C.3       8 UNK        -0.1800 
     34 N           0.4630  -17.0152  -44.0683 N.am      8 UNK        -0.5000 
     35 C           1.4438  -17.9270  -43.9921 C.2       7 UNK         0.5000 
     36 O           1.4238  -18.9926  -44.6026 O.2       7 UNK        -0.5000 
     37 CA          2.5977  -17.6456  -43.0159 C.3       7 UNK         0.1400 
     38 CB          3.6831  -16.7648  -43.6537 C.3       7 UNK        -0.1800 
     39 N           2.1076  -17.0303  -41.7837 N.am      7 UNK        -0.5000 
     40 C           1.4799  -17.7057  -40.8104 C.2       6 UNK         0.5000 
     41 O           1.3225  -18.9266  -40.8230 O.2       6 UNK        -0.5000 
     42 CA          0.9037  -16.8777  -39.6446 C.3       6 UNK         0.1400 
     43 CB          1.9613  -16.6839  -38.5479 C.3       6 UNK        -0.1800 
     44 N           0.4040  -15.5679  -40.0675 N.am      6 UNK        -0.5000 
     45 C          -0.6627  -15.3800  -40.8579 C.2       5 UNK         0.5000 
     46 O          -1.3785  -16.2956  -41.2599 O.2       5 UNK        -0.5000 
     47 CA         -0.9440  -13.9358  -41.3235 C.3       5 UNK         0.1400 
     48 CB         -1.9187  -13.2391  -40.3634 C.3       5 UNK        -0.1800 
     49 N           0.2636  -13.1154  -41.4714 N.am      5 UNK        -0.5000 
     50 C           1.2822  -13.4055  -42.2912 C.2       4 UNK         0.5000 
     51 O           1.3144  -14.4118  -43.0059 O.2       4 UNK        -0.5000 
     52 CA          2.4951  -12.4659  -42.2440 C.3       4 UNK         0.1400 
     53 CB          3.2610  -12.6562  -40.9178 C.3       4 UNK        -0.1800 
     54 N           3.3526  -12.7884  -43.3780 N.am      4 UNK        -0.5000 
     55 C           4.4381  -12.1261  -43.7924 C.2       3 UNK         0.5000 
     56 O           4.8559  -11.0933  -43.2675 O.2       3 UNK        -0.5000 
     57 CA          5.1928  -12.7237  -44.9971 C.3       3 UNK         0.1400 
     58 CB          6.3452  -13.6179  -44.5133 C.3       3 UNK        -0.1800 
     59 N           4.3247  -13.5075  -45.8789 N.am      3 UNK        -0.5000 
     60 C           3.4365  -12.9775  -46.7297 C.2       2 UNK         0.5000 
     61 O           3.3327  -11.7646  -46.9305 O.2       2 UNK        -0.5000 
     62 CA          2.5335  -13.9639  -47.5051 C.3       2 UNK         0.1400 
     63 CB          2.3273  -15.3168  -46.7838 C.3       2 UNK        -0.1800 
     64 N           1.2347  -13.3795  -47.8551 N.am      2 UNK        -0.5000 
     65 C           0.2941  -12.9362  -47.0070 C.2       1 UNK         0.5000 
     66 O           0.4488  -12.9098  -45.7842 O.2       1 UNK        -0.5000 
     67 C          -1.6798  -22.1806  -47.1485 C.2       11 UNK         0.5000 
     68 O          -1.8680  -23.1119  -47.9269 O.2       11 UNK        -0.5000 
     69 N          -2.6183  -21.7220  -46.3074 N.am      12 UNK        -0.5000 
     70 CA         -3.9786  -22.2575  -46.2091 C.3       12 UNK         0.1400 
     71 CB         -4.8111  -21.3764  -45.2668 C.3       12 UNK        -0.1800 
     72 C          -4.0424  -23.7372  -45.7781 C.2       12 UNK         0.5000 
     73 O          -4.9490  -24.4516  -46.2058 O.2       12 UNK        -0.5000 
     74 N          -3.0812  -24.1795  -44.9572 N.am      13 UNK        -0.5000 
     75 CA         -2.9202  -25.5792  -44.5649 C.3       13 UNK         0.1400 
     76 CB         -2.0599  -25.6537  -43.2944 C.3       13 UNK        -0.1800 
     77 C          -2.3112  -26.4440  -45.6870 C.2       13 UNK         0.5000 
     78 O          -2.6584  -27.6201  -45.8025 O.2       13 UNK        -0.5000 
     79 N          -1.4227  -25.8570  -46.4991 N.am      14 UNK        -0.5000 
     80 CA         -0.6554  -26.5092  -47.5629 C.3       14 UNK         0.1400 
     81 CB          0.6495  -25.7225  -47.7832 C.3       14 UNK        -0.1800 
     82 C          -1.4530  -26.7333  -48.8687 C.2       14 UNK         0.5000 
     83 O          -0.9624  -26.4174  -49.9553 O.2       14 UNK        -0.5000 
     84 N          -2.6514  -27.3201  -48.7400 N.am      15 UNK        -0.5000 
     85 CA         -3.5308  -27.8162  -49.8042 C.3       15 UNK         0.1400 
     86 CB         -2.9708  -29.1442  -50.3603 C.3       15 UNK        -0.1800 
     87 C          -3.8276  -26.7662  -50.8972 C.2       15 UNK         0.5000 
     88 O          -4.5875  -25.8318  -50.6446 O.2       15 UNK        -0.5000 
     89 N          -3.2259  -26.9283  -52.0851 N.am      16 UNK        -0.5000 
     90 CA         -3.3930  -26.0680  -53.2608 C.3       16 UNK         0.1400 
     91 CB         -2.6049  -26.6669  -54.4350 C.3       16 UNK        -0.1800 
     92 C          -2.9889  -24.5976  -53.0398 C.2       16 UNK         0.5000 
     93 O          -3.5237  -23.7184  -53.7148 O.2       16 UNK        -0.5000 
     94 N          -2.0990  -24.3409  -52.0714 N.am      17 UNK        -0.5000 
     95 CA         -1.6983  -22.9988  -51.6440 C.3       17 UNK         0.1400 
     96 CB         -0.4052  -23.1029  -50.8216 C.3       17 UNK        -0.1800 
     97 C          -2.8068  -22.2129  -50.9042 C.2       17 UNK         0.5000 
     98 O          -2.6137  -21.0316  -50.6223 O.2       17 UNK        -0.5000 
     99 N          -3.9544  -22.8480  -50.6236 N.am      18 UNK        -0.5000 
    100 CA        -5.1558  -22.1887  -50.1135 C.3       18 UNK         0.1400 
    101 CB        -6.0503  -23.2368  -49.4353 C.3       18 UNK        -0.1800 
    102 C         -5.9522  -21.4491  -51.2076 C.2       18 UNK         0.5000 
    103 O         -6.7981  -20.6209  -50.8659 O.2       18 UNK        -0.5000 
    104 N         -5.7094  -21.7679  -52.4891 N.am      19 UNK        -0.5000 
    105 CA        -6.3834  -21.1517  -53.6334 C.3       19 UNK         0.1400 
    106 CB        -6.0677  -21.9589  -54.9021 C.3       19 UNK        -0.1800 
    107 C         -5.9745  -19.6798  -53.8223 C.2       19 UNK         0.5000 
    108 O         -4.8304  -19.3198  -53.5448 O.2       19 UNK        -0.5000 
    109 N         -6.9043  -18.8624  -54.3331 N.am      20 UNK        -0.5000 
    110 CA        -6.6984  -17.4326  -54.5937 C.3       20 UNK         0.1400 
    111 CB        -8.0593  -16.7769  -54.8751 C.3       20 UNK        -0.1800 
    112 C         -5.7143  -17.1448  -55.7465 C.2       20 UNK         0.5000 
    113 O         -5.1266  -16.0633  -55.7867 O.2       20 UNK        -0.5000 
    114 N         -5.5522  -18.1148  -56.6526 N.am      21 UNK        -0.5000 
    115 CA        -4.6309  -18.0846  -57.7819 C.3       21 UNK         0.1400 
    116 CB        -5.4067  -17.7381  -59.0663 C.3       21 UNK        -0.1800 
    117 C         -3.9229  -19.4456  -57.8450 C.2       21 UNK         0.5000 
    118 O         -4.1614  -20.2315  -58.7634 O.2       21 UNK        -0.5000 
    119 N         -3.1021  -19.7197  -56.8239 N.am      22 UNK        -0.5000 
    120 CA        -2.3494  -20.9749  -56.6611 C.3       22 UNK         0.1400 
    121 C         -1.1899  -21.2112  -57.6769 C.2       22 UNK         0.5000 
    122 N         -0.7703  -20.2208  -58.4552 N.am      22 UNK        -0.7600 
    123 O         -0.6708  -22.3203  -57.7687 O.2       22 UNK        -0.5000 
    124 C124       -1.8869  -21.1752  -55.1957 C.3       23 UNK        -0.0398 
    125 S125       -0.6953  -19.9223  -54.5933 S.3       23 UNK        -0.2404 
    126 C126       -1.6761  -19.0609  -53.3230 C.3       23 UNK        -0.0205 
    127 H127       -4.5988  -12.1680  -44.8356 H         1 UNK         0.0600 
    128 H128       -3.3529  -12.9445  -43.8516 H         1 UNK         0.0600 
    129 H129       -4.0012  -13.7716  -45.2702 H         1 UNK         0.0600 
    130 H130       -2.5270  -13.7626  -46.9358 H         1 UNK         0.3000 
    131 H131       -0.9745  -11.3548  -47.6180 H         1 UNK         0.0600 
    132 H132       -2.2138  -12.3863  -49.4447 H         1 UNK         0.0800 
    133 H133       -0.5149  -12.4628  -49.7457 H         1 UNK         0.0800 
    134 H134       -0.5883  -14.4189  -51.5900 H         1 UNK         0.0800 
    135 H135        0.6961  -14.5583  -50.4134 H         1 UNK         0.0800 
    136 H136       -1.6041  -16.4298  -52.5720 H         1 UNK         0.1150 
    137 H137        0.1414  -20.2395  -51.6915 H         1 UNK         0.1150 
    138 H138        1.3382  -16.7751  -49.4728 H         1 UNK         0.1150 
    139 H139        1.7947  -20.4947  -50.0155 H         1 UNK         0.0800 
    140 H140        2.8148  -19.0930  -49.8089 H         1 UNK         0.0800 
    141 H141       -0.9268  -19.4722  -47.3743 H         1 UNK         0.0800 
    142 H142       -0.6108  -20.3370  -48.8443 H         1 UNK         0.0800 
    143 H143        0.4150  -22.2176  -47.5598 H         1 UNK         0.0600 
    144 H144        0.3536  -20.4968  -45.3118 H         1 UNK         0.3000 
    145 H145        0.2985  -23.0468  -42.7718 H         1 UNK         0.0600 
    146 H146        2.2612  -21.6807  -42.0239 H         1 UNK         0.0600 
    147 H147        2.6715  -22.8111  -43.3057 H         1 UNK         0.0600 
    148 H148        2.4880  -21.1066  -43.6743 H         1 UNK         0.0600 
    149 H149        0.2774  -20.1618  -42.7254 H         1 UNK         0.3000 
    150 H150       -3.2819  -19.8368  -42.7267 H         1 UNK         0.0600 
    151 H151       -2.7745  -20.3912  -40.3514 H         1 UNK         0.0600 
    152 H152       -2.8594  -18.6527  -40.5919 H         1 UNK         0.0600 
    153 H153       -1.2940  -19.4452  -40.4292 H         1 UNK         0.0600 
    154 H154       -1.2423  -17.8924  -42.4014 H         1 UNK         0.3000 
    155 H155       -0.4793  -17.4062  -45.8728 H         1 UNK         0.0600 
    156 H156       -0.9869  -15.0510  -45.1278 H         1 UNK         0.0600 
    157 H157       -2.0028  -15.6953  -43.8410 H         1 UNK         0.0600 
    158 H158       -2.4306  -15.9735  -45.5220 H         1 UNK         0.0600 
    159 H159        0.5753  -16.1362  -43.5725 H         1 UNK         0.3000 
    160 H160        3.0587  -18.6041  -42.7669 H         1 UNK         0.0600 
    161 H161        3.3104  -15.7754  -43.9093 H         1 UNK         0.0600 
    162 H162        4.0630  -17.2200  -44.5691 H         1 UNK         0.0600 
    163 H163        4.5297  -16.6367  -42.9791 H         1 UNK         0.0600 
    164 H164        2.1263  -16.0206  -41.7464 H         1 UNK         0.3000 
    165 H165        0.0687  -17.4393  -39.2200 H         1 UNK         0.0600 
    166 H166        2.8139  -16.1060  -38.9071 H         1 UNK         0.0600 
    167 H167        1.5436  -16.1658  -37.6844 H         1 UNK         0.0600 
    168 H168        2.3400  -17.6448  -38.1971 H         1 UNK         0.0600 
    169 H169        0.9339  -14.7603  -39.7760 H         1 UNK         0.3000 
    170 H170       -1.4189  -13.9943  -42.3042 H         1 UNK         0.0600 
    171 H171       -2.8375  -13.8168  -40.2529 H         1 UNK         0.0600 
    172 H172       -1.4865  -13.1157  -39.3696 H         1 UNK         0.0600 
    173 H173       -2.1999  -12.2530  -40.7336 H         1 UNK         0.0600 
    174 H174        0.3124  -12.2813  -40.9042 H         1 UNK         0.3000 
    175 H175        2.1482  -11.4353  -42.3389 H         1 UNK         0.0600 
    176 H176        4.1114  -11.9791  -40.8430 H         1 UNK         0.0600 
    177 H177        2.6224  -12.4540  -40.0574 H         1 UNK         0.0600 
    178 H178        3.6374  -13.6750  -40.8158 H         1 UNK         0.0600 
    179 H179        3.0302  -13.5931  -43.9006 H         1 UNK         0.3000 
    180 H180        5.6194  -11.8961  -45.5679 H         1 UNK         0.0600 
    181 H181        6.9266  -14.0011  -45.3521 H         1 UNK         0.0600 
    182 H182        7.0296  -13.0597  -43.8731 H         1 UNK         0.0600 
    183 H183        5.9807  -14.4703  -43.9387 H         1 UNK         0.0600 
    184 H184        4.3777  -14.5113  -45.7923 H         1 UNK         0.3000 
    185 H185        3.0410  -14.1648  -48.4495 H         1 UNK         0.0600 
    186 H186        1.6172  -15.9468  -47.3187 H         1 UNK         0.0600 
    187 H187        3.2571  -15.8812  -46.7109 H         1 UNK         0.0600 
    188 H188        1.9360  -15.1786  -45.7759 H         1 UNK         0.0600 
    189 H189        1.0448  -13.3216  -48.8432 H         1 UNK         0.3000 
    190 H190       -2.4007  -20.9177  -45.7243 H         1 UNK         0.3000 
    191 H191       -4.4205  -22.1929  -47.2028 H         1 UNK         0.0600 
    192 H192       -5.8489  -21.7105  -45.2375 H         1 UNK         0.0600 
    193 H193       -4.8128  -20.3368  -45.5951 H         1 UNK         0.0600 
    194 H194       -4.4296  -21.4060  -44.2467 H         1 UNK         0.0600 
    195 H195       -2.4079  -23.5169  -44.5927 H         1 UNK         0.3000 
    196 H196       -3.9042  -25.9887  -44.3267 H         1 UNK         0.0600 
    197 H197       -1.9640  -26.6836  -42.9485 H         1 UNK         0.0600 
    198 H198       -2.5048  -25.0772  -42.4829 H         1 UNK         0.0600 
    199 H199       -1.0538  -25.2700  -43.4635 H         1 UNK         0.0600 
    200 H200       -1.2093  -24.8790  -46.3429 H         1 UNK         0.3000 
    201 H201       -0.3698  -27.5028  -47.2118 H         1 UNK         0.0600 
    202 H202        1.2461  -25.6921  -46.8714 H         1 UNK         0.0600 
    203 H203        0.4530  -24.6939  -48.0828 H         1 UNK         0.0600 
    204 H204        1.2671  -26.1821  -48.5558 H         1 UNK         0.0600 
    205 H205       -2.9569  -27.5148  -47.7922 H         1 UNK         0.3000 
    206 H206       -4.4892  -28.0374  -49.3323 H         1 UNK         0.0600 
    207 H207       -2.9081  -29.8966  -49.5740 H         1 UNK         0.0600 
    208 H208       -3.6174  -29.5511  -51.1391 H         1 UNK         0.0600 
    209 H209       -1.9712  -29.0276  -50.7805 H         1 UNK         0.0600 
    210 H210       -2.5897  -27.7053  -52.1879 H         1 UNK         0.3000 
    211 H211       -4.4531  -26.0734  -53.5219 H         1 UNK         0.0600 
    212 H212       -1.5373  -26.7179  -54.2173 H         1 UNK         0.0600 
    213 H213       -2.7278  -26.0647  -55.3364 H         1 UNK         0.0600 
    214 H214       -2.9496  -27.6741  -54.6699 H         1 UNK         0.0600 
    215 H215       -1.7323  -25.1155  -51.5282 H         1 UNK         0.3000 
    216 H216       -1.4651  -22.4175  -52.5375 H         1 UNK         0.0600 
    217 H217       -0.1194  -22.1426  -50.3950 H         1 UNK         0.0600 
    218 H218        0.4250  -23.4466  -51.4384 H         1 UNK         0.0600 
    219 H219       -0.5160  -23.8037  -49.9977 H         1 UNK         0.0600 
    220 H220       -4.0346  -23.8396  -50.8213 H         1 UNK         0.3000 
    221 H221       -4.8598  -21.4509  -49.3657 H         1 UNK         0.0600 
    222 H222       -6.4882  -23.9218  -50.1624 H         1 UNK         0.0600 
    223 H223       -5.4887  -23.8342  -48.7185 H         1 UNK         0.0600 
    224 H224       -6.8705  -22.7614  -48.8964 H         1 UNK         0.0600 
    225 H225       -4.9732  -22.4300  -52.7013 H         1 UNK         0.3000 
    226 H226       -7.4597  -21.1966  -53.4543 H         1 UNK         0.0600 
    227 H227       -6.3451  -23.0066  -54.7840 H         1 UNK         0.0600 
    228 H228       -6.6173  -21.5721  -55.7609 H         1 UNK         0.0600 
    229 H229       -5.0071  -21.9208  -55.1502 H         1 UNK         0.0600 
    230 H230       -7.8216  -19.2292  -54.5434 H         1 UNK         0.3000 
    231 H231       -6.2825  -16.9808  -53.6906 H         1 UNK         0.0600 
    232 H232       -7.9493  -15.7048  -55.0442 H         1 UNK         0.0600 
    233 H233       -8.7402  -16.9027  -54.0330 H         1 UNK         0.0600 
    234 H234       -8.5353  -17.2013  -55.7600 H         1 UNK         0.0600 
    235 H235       -6.0588  -18.9785  -56.5215 H         1 UNK         0.3000 
    236 H236       -3.8594  -17.3267  -57.6298 H         1 UNK         0.0600 
    237 H237       -6.2030  -18.4568  -59.2641 H         1 UNK         0.0600 
    238 H238       -5.8602  -16.7494  -58.9953 H         1 UNK         0.0600 
    239 H239       -4.7444  -17.7309  -59.9328 H         1 UNK         0.0600 
    240 H240       -2.9731  -19.0302  -56.0978 H         1 UNK         0.3000 
    241 H241       -3.0591  -21.7794  -56.8644 H         1 UNK         0.0600 
    242 H242       -0.0240  -20.3874  -59.1118 H         1 UNK         0.3800 
    243 H243       -1.1812  -19.3042  -58.3854 H         1 UNK         0.3800 
    244 H244       -1.4303  -22.1595  -55.0784 H         1 UNK         0.0800 
    245 H245       -2.7613  -21.1903  -54.5445 H         1 UNK         0.0800 
    246 H246       -2.3195  -18.3270  -53.8100 H         1 UNK         0.0800 
    247 H247       -2.3373  -19.7665  -52.8237 H         1 UNK         0.0800 
@<TRIPOS>BOND
     1    1    2 1    
     2    1  127 1    
     3    1  128 1    
     4    1  129 1    
     5    2    3 2    
     6    2    4 am   BACKBONE|DICT|INTERRES
     7    4    5 1    
     8    4  130 1    
     9    5    6 1    
    10    5   65 1    
    11    5  131 1    
    12    6    7 1    
    13    6  132 1    
    14    6  133 1    
    15    7    8 1    
    16    8    9 1    
    17    8  134 1    
    18    8  135 1    
    19    9   10 ar   
    20    9   14 ar   
    21   10   11 ar   
    22   10  136 1    
    23   11   12 ar   
    24   11  126 1    
    25   12   13 ar   
    26   12  137 1    
    27   13   14 ar   
    28   13   15 1    
    29   14  138 1    
    30   15   16 1    
    31   15  139 1    
    32   15  140 1    
    33   16   17 1    
    34   17   18 1    
    35   17  141 1    
    36   17  142 1    
    37   18   19 1    
    38   18   67 1    
    39   18  143 1    
    40   19   20 am   BACKBONE|DICT|INTERRES
    41   19  144 1    
    42   20   21 2    
    43   20   22 1    
    44   22   23 1    
    45   22   24 1    
    46   22  145 1    
    47   23  146 1    
    48   23  147 1    
    49   23  148 1    
    50   24   25 am   BACKBONE|DICT|INTERRES
    51   24  149 1    
    52   25   26 2    
    53   25   27 1    
    54   27   28 1    
    55   27   29 1    
    56   27  150 1    
    57   28  151 1    
    58   28  152 1    
    59   28  153 1    
    60   29   30 am   BACKBONE|DICT|INTERRES
    61   29  154 1    
    62   30   31 2    
    63   30   32 1    
    64   32   33 1    
    65   32   34 1    
    66   32  155 1    
    67   33  156 1    
    68   33  157 1    
    69   33  158 1    
    70   34   35 am   BACKBONE|DICT|INTERRES
    71   34  159 1    
    72   35   36 2    
    73   35   37 1    
    74   37   38 1    
    75   37   39 1    
    76   37  160 1    
    77   38  161 1    
    78   38  162 1    
    79   38  163 1    
    80   39   40 am   BACKBONE|DICT|INTERRES
    81   39  164 1    
    82   40   41 2    
    83   40   42 1    
    84   42   43 1    
    85   42   44 1    
    86   42  165 1    
    87   43  166 1    
    88   43  167 1    
    89   43  168 1    
    90   44   45 am   BACKBONE|DICT|INTERRES
    91   44  169 1    
    92   45   46 2    
    93   45   47 1    
    94   47   48 1    
    95   47   49 1    
    96   47  170 1    
    97   48  171 1    
    98   48  172 1    
    99   48  173 1    
   100   49   50 am   BACKBONE|DICT|INTERRES
   101   49  174 1    
   102   50   51 2    
   103   50   52 1    
   104   52   53 1    
   105   52   54 1    
   106   52  175 1    
   107   53  176 1    
   108   53  177 1    
   109   53  178 1    
   110   54   55 am   BACKBONE|DICT|INTERRES
   111   54  179 1    
   112   55   56 2    
   113   55   57 1    
   114   57   58 1    
   115   57   59 1    
   116   57  180 1    
   117   58  181 1    
   118   58  182 1    
   119   58  183 1    
   120   59   60 am   BACKBONE|DICT|INTERRES
   121   59  184 1    
   122   60   61 2    
   123   60   62 1    
   124   62   63 1    
   125   62   64 1    
   126   62  185 1    
   127   63  186 1    
   128   63  187 1    
   129   63  188 1    
   130   64   65 am   BACKBONE|DICT|INTERRES
   131   64  189 1    
   132   65   66 2    
   133   67   68 2    
   134   67   69 am   BACKBONE|DICT|INTERRES
   135   69   70 1    
   136   69  190 1    
   137   70   71 1    
   138   70   72 1    
   139   70  191 1    
   140   71  192 1    
   141   71  193 1    
   142   71  194 1    
   143   72   73 2    
   144   72   74 am   BACKBONE|DICT|INTERRES
   145   74   75 1    
   146   74  195 1    
   147   75   76 1    
   148   75   77 1    
   149   75  196 1    
   150   76  197 1    
   151   76  198 1    
   152   76  199 1    
   153   77   78 2    
   154   77   79 am   BACKBONE|DICT|INTERRES
   155   79   80 1    
   156   79  200 1    
   157   80   81 1    
   158   80   82 1    
   159   80  201 1    
   160   81  202 1    
   161   81  203 1    
   162   81  204 1    
   163   82   83 2    
   164   82   84 am   BACKBONE|DICT|INTERRES
   165   84   85 1    
   166   84  205 1    
   167   85   86 1    
   168   85   87 1    
   169   85  206 1    
   170   86  207 1    
   171   86  208 1    
   172   86  209 1    
   173   87   88 2    
   174   87   89 am   BACKBONE|DICT|INTERRES
   175   89   90 1    
   176   89  210 1    
   177   90   91 1    
   178   90   92 1    
   179   90  211 1    
   180   91  212 1    
   181   91  213 1    
   182   91  214 1    
   183   92   93 2    
   184   92   94 am   BACKBONE|DICT|INTERRES
   185   94   95 1    
   186   94  215 1    
   187   95   96 1    
   188   95   97 1    
   189   95  216 1    
   190   96  217 1    
   191   96  218 1    
   192   96  219 1    
   193   97   98 2    
   194   97   99 am   BACKBONE|DICT|INTERRES
   195   99  100 1    
   196   99  220 1    
   197  100  101 1    
   198  100  102 1    
   199  100  221 1    
   200  101  222 1    
   201  101  223 1    
   202  101  224 1    
   203  102  103 2    
   204  102  104 am   BACKBONE|DICT|INTERRES
   205  104  105 1    
   206  104  225 1    
   207  105  106 1    
   208  105  107 1    
   209  105  226 1    
   210  106  227 1    
   211  106  228 1    
   212  106  229 1    
   213  107  108 2    
   214  107  109 am   BACKBONE|DICT|INTERRES
   215  109  110 1    
   216  109  230 1    
   217  110  111 1    
   218  110  112 1    
   219  110  231 1    
   220  111  232 1    
   221  111  233 1    
   222  111  234 1    
   223  112  113 2    
   224  112  114 am   BACKBONE|DICT|INTERRES
   225  114  115 1    
   226  114  235 1    
   227  115  116 1    
   228  115  117 1    
   229  115  236 1    
   230  116  237 1    
   231  116  238 1    
   232  116  239 1    
   233  117  118 2    
   234  117  119 am   BACKBONE|DICT|INTERRES
   235  119  120 1    
   236  119  240 1    
   237  120  121 1    
   238  120  124 1    
   239  120  241 1    
   240  121  122 am   BACKBONE|DICT|INTERRES
   241  121  123 2    
   242  122  242 1    
   243  122  243 1    
   244  124  125 1    
   245  124  244 1    
   246  124  245 1    
   247  125  126 1    
   248  126  246 1    
   249  126  247 1    
@<TRIPOS>SUBSTRUCTURE
     1 UNK         1 GROUP             0       ****    0 ROOT    
