@<TRIPOS>MOLECULE
3R540
247   249    1
SMALL
USER_CHARGES


@<TRIPOS>ATOM
      1 CA          0.3830  -11.5106  -51.0652 C.3       0 UNK        -0.1800 
      2 C           0.2150  -11.8552  -49.5922 C.2       0 UNK         0.5000 
      3 O          -0.9098  -12.0742  -49.1435 O.2       0 UNK        -0.5000 
      4 N           1.3306  -11.9089  -48.8511 N.am      1 UNK        -0.5000 
      5 CA          1.4222  -12.2359  -47.4211 C.3       1 UNK         0.1400 
      6 C6          0.9910  -13.6859  -47.0695 C.3       23 UNK        -0.0398 
      7 S7          1.8996  -14.9569  -48.0052 S.3       23 UNK        -0.2404 
      8 C8          0.5292  -15.7185  -48.9225 C.3       23 UNK        -0.0205 
      9 C9          1.0298  -16.8304  -49.8250 C.ar      23 UNK        -0.0193 
     10 C10         1.2807  -16.5846  -51.1770 C.ar      23 UNK        -0.1150 
     11 C11         1.7277  -17.6116  -52.0149 C.ar      23 UNK        -0.0193 
     12 C12         1.9461  -18.8852  -51.4799 C.ar      23 UNK        -0.1150 
     13 C13         1.7133  -19.1375  -50.1243 C.ar      23 UNK        -0.0193 
     14 C14         1.2451  -18.1082  -49.3054 C.ar      23 UNK        -0.1150 
     15 C15         1.9936  -20.5146  -49.5443 C.3       23 UNK        -0.0205 
     16 S16         0.6546  -21.6857  -49.9073 S.3       23 UNK        -0.2404 
     17 C17        -0.6438  -21.2180  -48.7111 C.3       23 UNK        -0.0398 
     18 CA         -0.8999  -22.3628  -47.6978 C.3       11 UNK         0.1400 
     19 N          -0.0451  -22.2817  -46.5081 N.am      11 UNK        -0.5000 
     20 C           0.1690  -23.3229  -45.6905 C.2       10 UNK         0.5000 
     21 O          -0.3316  -24.4348  -45.8584 O.2       10 UNK        -0.5000 
     22 CA          1.0508  -23.0780  -44.4567 C.3       10 UNK         0.1400 
     23 CB          2.5318  -22.9839  -44.8540 C.3       10 UNK        -0.1800 
     24 N           0.6549  -21.8859  -43.7085 N.am      10 UNK        -0.5000 
     25 C          -0.5288  -21.7257  -43.0997 C.2       9 UNK         0.5000 
     26 O          -1.4179  -22.5766  -43.0997 O.2       9 UNK        -0.5000 
     27 CA         -0.7833  -20.3719  -42.4123 C.3       9 UNK         0.1400 
     28 CB         -0.0718  -20.2995  -41.0532 C.3       9 UNK        -0.1800 
     29 N          -0.3802  -19.2361  -43.2406 N.am      9 UNK        -0.5000 
     30 C          -0.9260  -18.9326  -44.4275 C.2       8 UNK         0.5000 
     31 O          -1.8484  -19.5620  -44.9414 O.2       8 UNK        -0.5000 
     32 CA         -0.3006  -17.7589  -45.1978 C.3       8 UNK         0.1400 
     33 CB         -0.9114  -16.4276  -44.7430 C.3       8 UNK        -0.1800 
     34 N           1.1568  -17.7191  -45.0666 N.am      8 UNK        -0.5000 
     35 C           1.9614  -18.6860  -45.5333 C.2       7 UNK         0.5000 
     36 O           1.5533  -19.6947  -46.1127 O.2       7 UNK        -0.5000 
     37 CA          3.4660  -18.5216  -45.2700 C.3       7 UNK         0.1400 
     38 CB          4.0443  -17.3507  -46.0790 C.3       7 UNK        -0.1800 
     39 N           3.7746  -18.3377  -43.8521 N.am      7 UNK        -0.5000 
     40 C           3.5207  -19.2304  -42.8834 C.2       6 UNK         0.5000 
     41 O           2.9672  -20.3104  -43.0776 O.2       6 UNK        -0.5000 
     42 CA          3.9487  -18.8570  -41.4517 C.3       6 UNK         0.1400 
     43 CB          5.3251  -19.4575  -41.1294 C.3       6 UNK        -0.1800 
     44 N           3.9926  -17.4116  -41.2332 N.am      6 UNK        -0.5000 
     45 C           2.9109  -16.6251  -41.1740 C.2       5 UNK         0.5000 
     46 O           1.7568  -17.0622  -41.2058 O.2       5 UNK        -0.5000 
     47 CA          3.1714  -15.1058  -41.0531 C.3       5 UNK         0.1400 
     48 CB          4.4714  -14.6513  -41.7548 C.3       5 UNK        -0.1800 
     49 N           2.0497  -14.2916  -41.5243 N.am      5 UNK        -0.5000 
     50 C           1.4742  -14.3121  -42.7335 C.2       4 UNK         0.5000 
     51 O           1.8313  -15.0415  -43.6619 O.2       4 UNK        -0.5000 
     52 CA          0.3123  -13.3237  -42.9452 C.3       4 UNK         0.1400 
     53 CB         -0.8107  -13.4921  -41.9014 C.3       4 UNK        -0.1800 
     54 N           0.7705  -11.9336  -43.0433 N.am      4 UNK        -0.5000 
     55 C           1.3577  -11.1687  -42.1087 C.2       3 UNK         0.5000 
     56 O           1.4988  -11.5145  -40.9346 O.2       3 UNK        -0.5000 
     57 CA          1.9134   -9.7978  -42.5535 C.3       3 UNK         0.1400 
     58 CB          3.4306   -9.7310  -42.3096 C.3       3 UNK        -0.1800 
     59 N           1.6638   -9.5096  -43.9684 N.am      3 UNK        -0.5000 
     60 C           0.5935   -8.8620  -44.4479 C.2       2 UNK         0.5000 
     61 O          -0.2851   -8.3715  -43.7383 O.2       2 UNK        -0.5000 
     62 CA          0.4681   -8.7765  -45.9850 C.3       2 UNK         0.1400 
     63 CB          1.0934   -7.4729  -46.5043 C.3       2 UNK        -0.1800 
     64 N           1.0605   -9.9130  -46.7042 N.am      2 UNK        -0.5000 
     65 C           0.6850  -11.1917  -46.5553 C.2       1 UNK         0.5000 
     66 O          -0.1948  -11.5471  -45.7702 O.2       1 UNK        -0.5000 
     67 C          -2.3956  -22.5201  -47.3493 C.2       11 UNK         0.5000 
     68 O          -3.1174  -23.1438  -48.1283 O.2       11 UNK        -0.5000 
     69 N          -2.8434  -22.0077  -46.1942 N.am      12 UNK        -0.5000 
     70 CA         -4.1832  -22.2641  -45.6624 C.3       12 UNK         0.1400 
     71 CB         -4.5033  -21.2881  -44.5209 C.3       12 UNK        -0.1800 
     72 C          -4.3502  -23.7239  -45.2056 C.2       12 UNK         0.5000 
     73 O          -5.3345  -24.3616  -45.5787 O.2       12 UNK        -0.5000 
     74 N          -3.3724  -24.2397  -44.4460 N.am      13 UNK        -0.5000 
     75 CA         -3.3386  -25.6175  -43.9460 C.3       13 UNK         0.1400 
     76 CB         -2.1729  -25.7775  -42.9584 C.3       13 UNK        -0.1800 
     77 C          -3.2484  -26.6690  -45.0676 C.2       13 UNK         0.5000 
     78 O          -3.9093  -27.7049  -44.9861 O.2       13 UNK        -0.5000 
     79 N          -2.4609  -26.3688  -46.1088 N.am      14 UNK        -0.5000 
     80 CA         -2.3228  -27.1844  -47.3174 C.3       14 UNK         0.1400 
     81 CB         -1.0429  -26.7564  -48.0537 C.3       14 UNK        -0.1800 
     82 C          -3.5340  -27.0907  -48.2687 C.2       14 UNK         0.5000 
     83 O          -3.6179  -27.8843  -49.2061 O.2       14 UNK        -0.5000 
     84 N          -4.4174  -26.1057  -48.0410 N.am      15 UNK        -0.5000 
     85 CA         -5.5723  -25.7158  -48.8604 C.3       15 UNK         0.1400 
     86 CB         -6.5997  -26.8597  -48.9755 C.3       15 UNK        -0.1800 
     87 C          -5.1893  -25.1247  -50.2344 C.2       15 UNK         0.5000 
     88 O          -6.0574  -24.9476  -51.0882 O.2       15 UNK        -0.5000 
     89 N          -3.9109  -24.7706  -50.4101 N.am      16 UNK        -0.5000 
     90 CA         -3.3608  -24.1030  -51.5873 C.3       16 UNK         0.1400 
     91 CB         -1.8297  -24.1162  -51.4867 C.3       16 UNK        -0.1800 
     92 C          -3.8897  -22.6666  -51.7438 C.2       16 UNK         0.5000 
     93 O          -4.0980  -22.2152  -52.8704 O.2       16 UNK        -0.5000 
     94 N          -4.1406  -21.9916  -50.6125 N.am      17 UNK        -0.5000 
     95 CA         -4.7847  -20.6786  -50.5617 C.3       17 UNK         0.1400 
     96 CB         -4.6403  -20.0848  -49.1520 C.3       17 UNK        -0.1800 
     97 C          -6.2683  -20.7452  -50.9688 C.2       17 UNK         0.5000 
     98 O          -6.7426  -19.8590  -51.6786 O.2       17 UNK        -0.5000 
     99 N          -6.9620  -21.8094  -50.5383 N.am      18 UNK        -0.5000 
    100 CA        -8.3653  -22.0773  -50.8626 C.3       18 UNK         0.1400 
    101 CB        -8.9149  -23.1538  -49.9136 C.3       18 UNK        -0.1800 
    102 C         -8.5548  -22.4889  -52.3339 C.2       18 UNK         0.5000 
    103 O         -9.5126  -22.0512  -52.9719 O.2       18 UNK        -0.5000 
    104 N         -7.6149  -23.2902  -52.8539 N.am      19 UNK        -0.5000 
    105 CA        -7.5312  -23.6922  -54.2596 C.3       19 UNK         0.1400 
    106 CB        -6.5572  -24.8753  -54.3752 C.3       19 UNK        -0.1800 
    107 C         -7.0926  -22.5517  -55.2014 C.2       19 UNK         0.5000 
    108 O         -7.2687  -22.6780  -56.4137 O.2       19 UNK        -0.5000 
    109 N         -6.5226  -21.4790  -54.6310 N.am      20 UNK        -0.5000 
    110 CA        -5.9423  -20.3095  -55.2953 C.3       20 UNK         0.1400 
    111 CB        -7.0254  -19.4934  -56.0311 C.3       20 UNK        -0.1800 
    112 C         -4.7452  -20.6929  -56.1884 C.2       20 UNK         0.5000 
    113 O         -4.6699  -20.2820  -57.3479 O.2       20 UNK        -0.5000 
    114 N         -3.8345  -21.4991  -55.6245 N.am      21 UNK        -0.5000 
    115 CA        -2.6180  -21.9762  -56.2852 C.3       21 UNK         0.1400 
    116 CB        -2.0168  -23.1216  -55.4579 C.3       21 UNK        -0.1800 
    117 C         -1.5770  -20.8606  -56.5021 C.2       21 UNK         0.5000 
    118 O         -0.8220  -20.9152  -57.4737 O.2       21 UNK        -0.5000 
    119 N         -1.5635  -19.8696  -55.6014 N.am      22 UNK        -0.5000 
    120 CA        -0.7855  -18.6323  -55.7277 C.3       22 UNK         0.1400 
    121 C         -1.4225  -17.6937  -56.7916 C.2       22 UNK         0.5000 
    122 N         -0.6732  -17.2841  -57.8063 N.am      22 UNK        -0.7600 
    123 O         -2.5865  -17.3140  -56.6849 O.2       22 UNK        -0.5000 
    124 C124       -0.6397  -17.9398  -54.3488 C.3       23 UNK        -0.0398 
    125 S125        0.5888  -16.5871  -54.3549 S.3       23 UNK        -0.2404 
    126 C126        2.0041  -17.3433  -53.4895 C.3       23 UNK        -0.0205 
    127 H127        1.4263  -11.3279  -51.3236 H         1 UNK         0.0600 
    128 H128       -0.1895  -10.6157  -51.3092 H         1 UNK         0.0600 
    129 H129        0.0184  -12.3300  -51.6848 H         1 UNK         0.0600 
    130 H130        2.2158  -11.7220  -49.3009 H         1 UNK         0.3000 
    131 H131        2.4781  -12.1458  -47.1609 H         1 UNK         0.0600 
    132 H132        1.1764  -13.8818  -46.0132 H         1 UNK         0.0800 
    133 H133       -0.0827  -13.8159  -47.2147 H         1 UNK         0.0800 
    134 H134        0.0146  -14.9568  -49.5102 H         1 UNK         0.0800 
    135 H135       -0.2034  -16.1162  -48.2186 H         1 UNK         0.0800 
    136 H136        1.1229  -15.5941  -51.5804 H         1 UNK         0.1150 
    137 H137        2.3049  -19.6832  -52.1148 H         1 UNK         0.1150 
    138 H138        1.0591  -18.2941  -48.2589 H         1 UNK         0.1150 
    139 H139        2.1612  -20.4652  -48.4691 H         1 UNK         0.0800 
    140 H140        2.9190  -20.9012  -49.9733 H         1 UNK         0.0800 
    141 H141       -1.5309  -21.0039  -49.3087 H         1 UNK         0.0800 
    142 H142       -0.3946  -20.2872  -48.2004 H         1 UNK         0.0800 
    143 H143       -0.6478  -23.3017  -48.1955 H         1 UNK         0.0600 
    144 H144        0.4077  -21.3940  -46.3124 H         1 UNK         0.3000 
    145 H145        0.9349  -23.9377  -43.7936 H         1 UNK         0.0600 
    146 H146        2.8402  -23.8592  -45.4269 H         1 UNK         0.0600 
    147 H147        3.1716  -22.9311  -43.9732 H         1 UNK         0.0600 
    148 H148        2.7318  -22.1029  -45.4648 H         1 UNK         0.0600 
    149 H149        1.3546  -21.1522  -43.6314 H         1 UNK         0.3000 
    150 H150       -1.8575  -20.2870  -42.2357 H         1 UNK         0.0600 
    151 H151        1.0099  -20.3802  -41.1578 H         1 UNK         0.0600 
    152 H152       -0.3988  -21.1091  -40.3996 H         1 UNK         0.0600 
    153 H153       -0.2887  -19.3607  -40.5431 H         1 UNK         0.0600 
    154 H154        0.3863  -18.6713  -42.9018 H         1 UNK         0.3000 
    155 H155       -0.5365  -17.8941  -46.2555 H         1 UNK         0.0600 
    156 H156       -0.5102  -15.5944  -45.3183 H         1 UNK         0.0600 
    157 H157       -0.7169  -16.2394  -43.6872 H         1 UNK         0.0600 
    158 H158       -1.9932  -16.4271  -44.8822 H         1 UNK         0.0600 
    159 H159        1.5551  -16.9173  -44.5884 H         1 UNK         0.3000 
    160 H160        3.9588  -19.4381  -45.6014 H         1 UNK         0.0600 
    161 H161        3.8099  -17.4553  -47.1395 H         1 UNK         0.0600 
    162 H162        5.1298  -17.3077  -45.9895 H         1 UNK         0.0600 
    163 H163        3.6428  -16.3921  -45.7475 H         1 UNK         0.0600 
    164 H164        4.2100  -17.4652  -43.5942 H         1 UNK         0.3000 
    165 H165        3.2192  -19.2885  -40.7632 H         1 UNK         0.0600 
    166 H166        5.3178  -20.5406  -41.2596 H         1 UNK         0.0600 
    167 H167        6.1035  -19.0543  -41.7785 H         1 UNK         0.0600 
    168 H168        5.6109  -19.2578  -40.0965 H         1 UNK         0.0600 
    169 H169        4.9079  -16.9885  -41.1795 H         1 UNK         0.3000 
    170 H170        3.2724  -14.8958  -39.9877 H         1 UNK         0.0600 
    171 H171        4.5839  -13.5680  -41.7030 H         1 UNK         0.0600 
    172 H172        4.4834  -14.9333  -42.8085 H         1 UNK         0.0600 
    173 H173        5.3556  -15.0810  -41.2833 H         1 UNK         0.0600 
    174 H174        1.7036  -13.5993  -40.8699 H         1 UNK         0.3000 
    175 H175       -0.1236  -13.5611  -43.9159 H         1 UNK         0.0600 
    176 H176       -0.4870  -13.2424  -40.8913 H         1 UNK         0.0600 
    177 H177       -1.1687  -14.5220  -41.8805 H         1 UNK         0.0600 
    178 H178       -1.6636  -12.8578  -42.1424 H         1 UNK         0.0600 
    179 H179        0.6508  -11.5320  -43.9665 H         1 UNK         0.3000 
    180 H180        1.4367   -9.0368  -41.9322 H         1 UNK         0.0600 
    181 H181        3.9643  -10.4922  -42.8802 H         1 UNK         0.0600 
    182 H182        3.6672   -9.8854  -41.2560 H         1 UNK         0.0600 
    183 H183        3.8325   -8.7572  -42.5900 H         1 UNK         0.0600 
    184 H184        2.3400   -9.8672  -44.6273 H         1 UNK         0.3000 
    185 H185       -0.5978   -8.7598  -46.2215 H         1 UNK         0.0600 
    186 H186        0.6561   -6.6049  -46.0089 H         1 UNK         0.0600 
    187 H187        2.1693   -7.4443  -46.3275 H         1 UNK         0.0600 
    188 H188        0.9246   -7.3527  -47.5746 H         1 UNK         0.0600 
    189 H189        1.7780   -9.6937  -47.3805 H         1 UNK         0.3000 
    190 H190       -2.2302  -21.4328  -45.6260 H         1 UNK         0.3000 
    191 H191       -4.9075  -22.0870  -46.4595 H         1 UNK         0.0600 
    192 H192       -4.4955  -20.2569  -44.8740 H         1 UNK         0.0600 
    193 H193       -5.4940  -21.4811  -44.1076 H         1 UNK         0.0600 
    194 H194       -3.7853  -21.3679  -43.7048 H         1 UNK         0.0600 
    195 H195       -2.6073  -23.6370  -44.1531 H         1 UNK         0.3000 
    196 H196       -4.2691  -25.7950  -43.4029 H         1 UNK         0.0600 
    197 H197       -2.1303  -26.7931  -42.5631 H         1 UNK         0.0600 
    198 H198       -2.2812  -25.1025  -42.1094 H         1 UNK         0.0600 
    199 H199       -1.2131  -25.5672  -43.4316 H         1 UNK         0.0600 
    200 H200       -1.8838  -25.5327  -46.0567 H         1 UNK         0.3000 
    201 H201       -2.2159  -28.2300  -47.0218 H         1 UNK         0.0600 
    202 H202       -0.8729  -27.3710  -48.9386 H         1 UNK         0.0600 
    203 H203       -0.1662  -26.8604  -47.4141 H         1 UNK         0.0600 
    204 H204       -1.0967  -25.7176  -48.3810 H         1 UNK         0.0600 
    205 H205       -4.2568  -25.5165  -47.2338 H         1 UNK         0.3000 
    206 H206       -6.0537  -24.9022  -48.3163 H         1 UNK         0.0600 
    207 H207       -6.8571  -27.2580  -47.9941 H         1 UNK         0.0600 
    208 H208       -7.5245  -26.5091  -49.4349 H         1 UNK         0.0600 
    209 H209       -6.2276  -27.6822  -49.5865 H         1 UNK         0.0600 
    210 H210       -3.2942  -24.8625  -49.6152 H         1 UNK         0.3000 
    211 H211       -3.6554  -24.6669  -52.4742 H         1 UNK         0.0600 
    212 H212       -1.4440  -25.1357  -51.4981 H         1 UNK         0.0600 
    213 H213       -1.3693  -23.5846  -52.3190 H         1 UNK         0.0600 
    214 H214       -1.4882  -23.6422  -50.5672 H         1 UNK         0.0600 
    215 H215       -3.9163  -22.4363  -49.7268 H         1 UNK         0.3000 
    216 H216       -4.2730  -20.0181  -51.2651 H         1 UNK         0.0600 
    217 H217       -5.1026  -20.7214  -48.3979 H         1 UNK         0.0600 
    218 H218       -5.1179  -19.1061  -49.0908 H         1 UNK         0.0600 
    219 H219       -3.5945  -19.9478  -48.8808 H         1 UNK         0.0600 
    220 H220       -6.4833  -22.5050  -49.9875 H         1 UNK         0.3000 
    221 H221       -8.9338  -21.1595  -50.6976 H         1 UNK         0.0600 
    222 H222       -8.3920  -24.1032  -50.0283 H         1 UNK         0.0600 
    223 H223       -8.8255  -22.8450  -48.8720 H         1 UNK         0.0600 
    224 H224       -9.9722  -23.3386  -50.1075 H         1 UNK         0.0600 
    225 H225       -6.9128  -23.6827  -52.2324 H         1 UNK         0.3000 
    226 H226       -8.5196  -24.0261  -54.5817 H         1 UNK         0.0600 
    227 H227       -6.8738  -25.7108  -53.7506 H         1 UNK         0.0600 
    228 H228       -6.5015  -25.2395  -55.4018 H         1 UNK         0.0600 
    229 H229       -5.5485  -24.5930  -54.0718 H         1 UNK         0.0600 
    230 H230       -6.4039  -21.5047  -53.6279 H         1 UNK         0.3000 
    231 H231       -5.5406  -19.6779  -54.5016 H         1 UNK         0.0600 
    232 H232       -7.4462  -20.0399  -56.8754 H         1 UNK         0.0600 
    233 H233       -6.6124  -18.5617  -56.4192 H         1 UNK         0.0600 
    234 H234       -7.8431  -19.2314  -55.3596 H         1 UNK         0.0600 
    235 H235       -3.9766  -21.7963  -54.6607 H         1 UNK         0.3000 
    236 H236       -2.8954  -22.3703  -57.2651 H         1 UNK         0.0600 
    237 H237       -1.6962  -22.7739  -54.4762 H         1 UNK         0.0600 
    238 H238       -2.7373  -23.9266  -55.3114 H         1 UNK         0.0600 
    239 H239       -1.1455  -23.5483  -55.9563 H         1 UNK         0.0600 
    240 H240       -2.2447  -19.8987  -54.8580 H         1 UNK         0.3000 
    241 H241        0.2162  -18.9111  -56.0620 H         1 UNK         0.0600 
    242 H242        0.2848  -17.5821  -57.9075 H         1 UNK         0.3800 
    243 H243       -1.0746  -16.6668  -58.4950 H         1 UNK         0.3800 
    244 H244       -1.5972  -17.5364  -54.0149 H         1 UNK         0.0800 
    245 H245       -0.3499  -18.6736  -53.5955 H         1 UNK         0.0800 
    246 H246        2.8598  -16.6713  -53.5649 H         1 UNK         0.0800 
    247 H247        2.2866  -18.2606  -54.0087 H         1 UNK         0.0800 
@<TRIPOS>BOND
     1    1    2 1    
     2    1  127 1    
     3    1  128 1    
     4    1  129 1    
     5    2    3 2    
     6    2    4 am   BACKBONE|DICT|INTERRES
     7    4    5 1    
     8    4  130 1    
     9    5    6 1    
    10    5   65 1    
    11    5  131 1    
    12    6    7 1    
    13    6  132 1    
    14    6  133 1    
    15    7    8 1    
    16    8    9 1    
    17    8  134 1    
    18    8  135 1    
    19    9   10 ar   
    20    9   14 ar   
    21   10   11 ar   
    22   10  136 1    
    23   11   12 ar   
    24   11  126 1    
    25   12   13 ar   
    26   12  137 1    
    27   13   14 ar   
    28   13   15 1    
    29   14  138 1    
    30   15   16 1    
    31   15  139 1    
    32   15  140 1    
    33   16   17 1    
    34   17   18 1    
    35   17  141 1    
    36   17  142 1    
    37   18   19 1    
    38   18   67 1    
    39   18  143 1    
    40   19   20 am   BACKBONE|DICT|INTERRES
    41   19  144 1    
    42   20   21 2    
    43   20   22 1    
    44   22   23 1    
    45   22   24 1    
    46   22  145 1    
    47   23  146 1    
    48   23  147 1    
    49   23  148 1    
    50   24   25 am   BACKBONE|DICT|INTERRES
    51   24  149 1    
    52   25   26 2    
    53   25   27 1    
    54   27   28 1    
    55   27   29 1    
    56   27  150 1    
    57   28  151 1    
    58   28  152 1    
    59   28  153 1    
    60   29   30 am   BACKBONE|DICT|INTERRES
    61   29  154 1    
    62   30   31 2    
    63   30   32 1    
    64   32   33 1    
    65   32   34 1    
    66   32  155 1    
    67   33  156 1    
    68   33  157 1    
    69   33  158 1    
    70   34   35 am   BACKBONE|DICT|INTERRES
    71   34  159 1    
    72   35   36 2    
    73   35   37 1    
    74   37   38 1    
    75   37   39 1    
    76   37  160 1    
    77   38  161 1    
    78   38  162 1    
    79   38  163 1    
    80   39   40 am   BACKBONE|DICT|INTERRES
    81   39  164 1    
    82   40   41 2    
    83   40   42 1    
    84   42   43 1    
    85   42   44 1    
    86   42  165 1    
    87   43  166 1    
    88   43  167 1    
    89   43  168 1    
    90   44   45 am   BACKBONE|DICT|INTERRES
    91   44  169 1    
    92   45   46 2    
    93   45   47 1    
    94   47   48 1    
    95   47   49 1    
    96   47  170 1    
    97   48  171 1    
    98   48  172 1    
    99   48  173 1    
   100   49   50 am   BACKBONE|DICT|INTERRES
   101   49  174 1    
   102   50   51 2    
   103   50   52 1    
   104   52   53 1    
   105   52   54 1    
   106   52  175 1    
   107   53  176 1    
   108   53  177 1    
   109   53  178 1    
   110   54   55 am   BACKBONE|DICT|INTERRES
   111   54  179 1    
   112   55   56 2    
   113   55   57 1    
   114   57   58 1    
   115   57   59 1    
   116   57  180 1    
   117   58  181 1    
   118   58  182 1    
   119   58  183 1    
   120   59   60 am   BACKBONE|DICT|INTERRES
   121   59  184 1    
   122   60   61 2    
   123   60   62 1    
   124   62   63 1    
   125   62   64 1    
   126   62  185 1    
   127   63  186 1    
   128   63  187 1    
   129   63  188 1    
   130   64   65 am   BACKBONE|DICT|INTERRES
   131   64  189 1    
   132   65   66 2    
   133   67   68 2    
   134   67   69 am   BACKBONE|DICT|INTERRES
   135   69   70 1    
   136   69  190 1    
   137   70   71 1    
   138   70   72 1    
   139   70  191 1    
   140   71  192 1    
   141   71  193 1    
   142   71  194 1    
   143   72   73 2    
   144   72   74 am   BACKBONE|DICT|INTERRES
   145   74   75 1    
   146   74  195 1    
   147   75   76 1    
   148   75   77 1    
   149   75  196 1    
   150   76  197 1    
   151   76  198 1    
   152   76  199 1    
   153   77   78 2    
   154   77   79 am   BACKBONE|DICT|INTERRES
   155   79   80 1    
   156   79  200 1    
   157   80   81 1    
   158   80   82 1    
   159   80  201 1    
   160   81  202 1    
   161   81  203 1    
   162   81  204 1    
   163   82   83 2    
   164   82   84 am   BACKBONE|DICT|INTERRES
   165   84   85 1    
   166   84  205 1    
   167   85   86 1    
   168   85   87 1    
   169   85  206 1    
   170   86  207 1    
   171   86  208 1    
   172   86  209 1    
   173   87   88 2    
   174   87   89 am   BACKBONE|DICT|INTERRES
   175   89   90 1    
   176   89  210 1    
   177   90   91 1    
   178   90   92 1    
   179   90  211 1    
   180   91  212 1    
   181   91  213 1    
   182   91  214 1    
   183   92   93 2    
   184   92   94 am   BACKBONE|DICT|INTERRES
   185   94   95 1    
   186   94  215 1    
   187   95   96 1    
   188   95   97 1    
   189   95  216 1    
   190   96  217 1    
   191   96  218 1    
   192   96  219 1    
   193   97   98 2    
   194   97   99 am   BACKBONE|DICT|INTERRES
   195   99  100 1    
   196   99  220 1    
   197  100  101 1    
   198  100  102 1    
   199  100  221 1    
   200  101  222 1    
   201  101  223 1    
   202  101  224 1    
   203  102  103 2    
   204  102  104 am   BACKBONE|DICT|INTERRES
   205  104  105 1    
   206  104  225 1    
   207  105  106 1    
   208  105  107 1    
   209  105  226 1    
   210  106  227 1    
   211  106  228 1    
   212  106  229 1    
   213  107  108 2    
   214  107  109 am   BACKBONE|DICT|INTERRES
   215  109  110 1    
   216  109  230 1    
   217  110  111 1    
   218  110  112 1    
   219  110  231 1    
   220  111  232 1    
   221  111  233 1    
   222  111  234 1    
   223  112  113 2    
   224  112  114 am   BACKBONE|DICT|INTERRES
   225  114  115 1    
   226  114  235 1    
   227  115  116 1    
   228  115  117 1    
   229  115  236 1    
   230  116  237 1    
   231  116  238 1    
   232  116  239 1    
   233  117  118 2    
   234  117  119 am   BACKBONE|DICT|INTERRES
   235  119  120 1    
   236  119  240 1    
   237  120  121 1    
   238  120  124 1    
   239  120  241 1    
   240  121  122 am   BACKBONE|DICT|INTERRES
   241  121  123 2    
   242  122  242 1    
   243  122  243 1    
   244  124  125 1    
   245  124  244 1    
   246  124  245 1    
   247  125  126 1    
   248  126  246 1    
   249  126  247 1    
@<TRIPOS>SUBSTRUCTURE
     1 UNK         1 GROUP             0       ****    0 ROOT    
