@<TRIPOS>MOLECULE
3R540
247   249    1
SMALL
USER_CHARGES


@<TRIPOS>ATOM
      1 CA          2.9683  -22.1018  -44.4090 C.3       0 UNK        -0.1800 
      2 C           3.0858  -20.5842  -44.4108 C.2       0 UNK         0.5000 
      3 O           2.8781  -19.9480  -43.3783 O.2       0 UNK        -0.5000 
      4 N           3.4439  -20.0018  -45.5644 N.am      1 UNK        -0.5000 
      5 CA          3.5699  -18.5540  -45.8086 C.3       1 UNK         0.1400 
      6 C6          3.8009  -18.2705  -47.3104 C.3       23 UNK        -0.0398 
      7 S7          3.2705  -16.6086  -47.8579 S.3       23 UNK        -0.2404 
      8 C8          3.8478  -16.5905  -49.5909 C.3       23 UNK        -0.0205 
      9 C9          2.9016  -17.3531  -50.5075 C.ar      23 UNK        -0.0193 
     10 C10         1.9849  -16.6752  -51.3171 C.ar      23 UNK        -0.1150 
     11 C11         1.0928  -17.3876  -52.1262 C.ar      23 UNK        -0.0193 
     12 C12         1.0731  -18.7848  -52.0669 C.ar      23 UNK        -0.1150 
     13 C13         1.9797  -19.4709  -51.2539 C.ar      23 UNK        -0.0193 
     14 C14         2.9324  -18.7479  -50.5344 C.ar      23 UNK        -0.1150 
     15 C15         1.9143  -20.9875  -51.1242 C.3       23 UNK        -0.0205 
     16 S16         1.9122  -21.5520  -49.3830 S.3       23 UNK        -0.2404 
     17 C17         0.5962  -20.5236  -48.6376 C.3       23 UNK        -0.0398 
     18 CA          0.0863  -21.0911  -47.2905 C.3       11 UNK         0.1400 
     19 N          -0.3678  -20.0269  -46.3877 N.am      11 UNK        -0.5000 
     20 C          -0.5587  -20.1598  -45.0663 C.2       10 UNK         0.5000 
     21 O          -0.4110  -21.2205  -44.4596 O.2       10 UNK        -0.5000 
     22 CA         -1.0625  -18.9124  -44.3220 C.3       10 UNK         0.1400 
     23 CB          0.0352  -17.8383  -44.2223 C.3       10 UNK        -0.1800 
     24 N          -2.2472  -18.3767  -44.9949 N.am      10 UNK        -0.5000 
     25 C          -3.4855  -18.8631  -44.8196 C.2       9 UNK         0.5000 
     26 O          -3.7694  -19.6954  -43.9587 O.2       9 UNK        -0.5000 
     27 CA         -4.5918  -18.3839  -45.7804 C.3       9 UNK         0.1400 
     28 CB         -5.5866  -17.4371  -45.0932 C.3       9 UNK        -0.1800 
     29 N          -4.0683  -17.7423  -46.9851 N.am      9 UNK        -0.5000 
     30 C          -3.6172  -18.4093  -48.0556 C.2       8 UNK         0.5000 
     31 O          -3.5975  -19.6346  -48.1378 O.2       8 UNK        -0.5000 
     32 CA         -3.0631  -17.5638  -49.2144 C.3       8 UNK         0.1400 
     33 CB         -4.2235  -17.1000  -50.1083 C.3       8 UNK        -0.1800 
     34 N          -2.3013  -16.3988  -48.7622 N.am      8 UNK        -0.5000 
     35 C          -1.2219  -16.4355  -47.9682 C.2       7 UNK         0.5000 
     36 O          -0.7301  -17.4783  -47.5356 O.2       7 UNK        -0.5000 
     37 CA         -0.6219  -15.0846  -47.5312 C.3       7 UNK         0.1400 
     38 CB         -0.9190  -13.9362  -48.5192 C.3       7 UNK        -0.1800 
     39 N          -1.0220  -14.6949  -46.1715 N.am      7 UNK        -0.5000 
     40 C          -2.2641  -14.6081  -45.6654 C.2       6 UNK         0.5000 
     41 O          -3.2795  -14.9549  -46.2703 O.2       6 UNK        -0.5000 
     42 CA         -2.4128  -14.0195  -44.2471 C.3       6 UNK         0.1400 
     43 CB         -2.8246  -15.0883  -43.2236 C.3       6 UNK        -0.1800 
     44 N          -1.2098  -13.3440  -43.7586 N.am      6 UNK        -0.5000 
     45 C          -0.8531  -12.0935  -44.0683 C.2       5 UNK         0.5000 
     46 O          -1.4588  -11.3965  -44.8830 O.2       5 UNK        -0.5000 
     47 CA          0.3718  -11.5080  -43.3380 C.3       5 UNK         0.1400 
     48 CB          0.0038  -11.0836  -41.9032 C.3       5 UNK        -0.1800 
     49 N           1.5818  -12.3431  -43.3464 N.am      5 UNK        -0.5000 
     50 C           1.8043  -13.5365  -42.7758 C.2       4 UNK         0.5000 
     51 O           0.9316  -14.2039  -42.2150 O.2       4 UNK        -0.5000 
     52 CA          3.2524  -14.0588  -42.8946 C.3       4 UNK         0.1400 
     53 CB          4.2783  -13.0629  -42.3115 C.3       4 UNK        -0.1800 
     54 N           3.4615  -15.3950  -42.3290 N.am      4 UNK        -0.5000 
     55 C           3.3796  -15.7881  -41.0469 C.2       3 UNK         0.5000 
     56 O           3.0932  -15.0429  -40.1087 O.2       3 UNK        -0.5000 
     57 CA          3.7005  -17.2705  -40.7506 C.3       3 UNK         0.1400 
     58 CB          2.4028  -18.0776  -40.5942 C.3       3 UNK        -0.1800 
     59 N           4.5350  -17.9031  -41.7765 N.am      3 UNK        -0.5000 
     60 C           5.8188  -17.5895  -42.0170 C.2       2 UNK         0.5000 
     61 O           6.4748  -16.8278  -41.3058 O.2       2 UNK        -0.5000 
     62 CA          6.4789  -18.1924  -43.2778 C.3       2 UNK         0.1400 
     63 CB          7.3749  -19.3812  -42.8983 C.3       2 UNK        -0.1800 
     64 N           5.5281  -18.6281  -44.3048 N.am      2 UNK        -0.5000 
     65 C           4.6218  -17.8518  -44.9178 C.2       1 UNK         0.5000 
     66 O           4.5543  -16.6353  -44.7464 O.2       1 UNK        -0.5000 
     67 C          -0.9524  -22.2194  -47.4860 C.2       11 UNK         0.5000 
     68 O          -0.6004  -23.2808  -47.9999 O.2       11 UNK        -0.5000 
     69 N          -2.1969  -22.0185  -47.0288 N.am      12 UNK        -0.5000 
     70 CA         -3.2624  -23.0223  -46.9690 C.3       12 UNK         0.1400 
     71 CB         -4.5177  -22.4046  -46.3405 C.3       12 UNK        -0.1800 
     72 C          -2.8724  -24.3039  -46.2087 C.2       12 UNK         0.5000 
     73 O          -3.3226  -25.3869  -46.5799 O.2       12 UNK        -0.5000 
     74 N          -2.0105  -24.1608  -45.1936 N.am      13 UNK        -0.5000 
     75 CA         -1.4568  -25.2634  -44.4095 C.3       13 UNK         0.1400 
     76 CB         -0.8312  -24.6829  -43.1314 C.3       13 UNK        -0.1800 
     77 C          -0.4201  -26.1143  -45.1733 C.2       13 UNK         0.5000 
     78 O          -0.1490  -27.2385  -44.7488 O.2       13 UNK        -0.5000 
     79 N           0.1554  -25.5701  -46.2547 N.am      14 UNK        -0.5000 
     80 CA          1.2376  -26.1869  -47.0203 C.3       14 UNK         0.1400 
     81 CB          2.4130  -25.1977  -47.0997 C.3       14 UNK        -0.1800 
     82 C           0.7906  -26.6007  -48.4312 C.2       14 UNK         0.5000 
     83 O           1.0783  -27.7235  -48.8482 O.2       14 UNK        -0.5000 
     84 N           0.1275  -25.6855  -49.1485 N.am      15 UNK        -0.5000 
     85 CA         -0.1459  -25.7892  -50.5837 C.3       15 UNK         0.1400 
     86 CB          0.6108  -24.6493  -51.2879 C.3       15 UNK        -0.1800 
     87 C          -1.6436  -25.7201  -50.9311 C.2       15 UNK         0.5000 
     88 O          -1.9770  -25.8152  -52.1128 O.2       15 UNK        -0.5000 
     89 N          -2.5159  -25.5255  -49.9277 N.am      16 UNK        -0.5000 
     90 CA         -3.9681  -25.3129  -50.0617 C.3       16 UNK         0.1400 
     91 CB         -4.6678  -26.5711  -50.6171 C.3       16 UNK        -0.1800 
     92 C          -4.3225  -24.0317  -50.8549 C.2       16 UNK         0.5000 
     93 O          -5.3686  -23.9708  -51.5034 O.2       16 UNK        -0.5000 
     94 N          -3.4386  -23.0236  -50.7809 N.am      17 UNK        -0.5000 
     95 CA         -3.4603  -21.7910  -51.5751 C.3       17 UNK         0.1400 
     96 CB         -2.2279  -20.9521  -51.2240 C.3       17 UNK        -0.1800 
     97 C          -4.7309  -20.9358  -51.4360 C.2       17 UNK         0.5000 
     98 O          -5.0604  -20.2053  -52.3692 O.2       17 UNK        -0.5000 
     99 N          -5.4456  -21.0595  -50.3096 N.am      18 UNK        -0.5000 
    100 CA        -6.7281  -20.4009  -50.0461 C.3       18 UNK         0.1400 
    101 CB        -7.1563  -20.6787  -48.5983 C.3       18 UNK        -0.1800 
    102 C         -7.8515  -20.7845  -51.0311 C.2       18 UNK         0.5000 
    103 O         -8.7848  -20.0006  -51.2024 O.2       18 UNK        -0.5000 
    104 N         -7.7338  -21.9494  -51.6875 N.am      19 UNK        -0.5000 
    105 CA        -8.6318  -22.3802  -52.7615 C.3       19 UNK         0.1400 
    106 CB        -8.3983  -23.8707  -53.0500 C.3       19 UNK        -0.1800 
    107 C         -8.4623  -21.5474  -54.0488 C.2       19 UNK         0.5000 
    108 O         -9.4408  -21.3361  -54.7661 O.2       19 UNK        -0.5000 
    109 N         -7.2323  -21.0837  -54.3097 N.am      20 UNK        -0.5000 
    110 CA        -6.8868  -20.2104  -55.4330 C.3       20 UNK         0.1400 
    111 CB        -5.4875  -20.5947  -55.9401 C.3       20 UNK        -0.1800 
    112 C         -6.9119  -18.7210  -55.0417 C.2       20 UNK         0.5000 
    113 O         -7.0001  -17.8667  -55.9244 O.2       20 UNK        -0.5000 
    114 N         -6.7800  -18.4355  -53.7372 N.am      21 UNK        -0.5000 
    115 CA        -6.6654  -17.1146  -53.1085 C.3       21 UNK         0.1400 
    116 CB        -7.9881  -16.3330  -53.2412 C.3       21 UNK        -0.1800 
    117 C         -5.4385  -16.3204  -53.6101 C.2       21 UNK         0.5000 
    118 O         -5.4904  -15.0922  -53.6899 O.2       21 UNK        -0.5000 
    119 N         -4.3719  -17.0495  -53.9734 N.am      22 UNK        -0.5000 
    120 CA        -3.1739  -16.5566  -54.6790 C.3       22 UNK         0.1400 
    121 C         -3.4466  -16.0073  -56.1175 C.2       22 UNK         0.5000 
    122 N         -4.5956  -16.2660  -56.7327 N.am      22 UNK        -0.7600 
    123 O         -2.5853  -15.3653  -56.7128 O.2       22 UNK        -0.5000 
    124 C124       -2.3045  -15.5942  -53.8168 C.3       23 UNK        -0.0398 
    125 S125       -1.5006  -16.4460  -52.4161 S.3       23 UNK        -0.2404 
    126 C126        0.1736  -16.6528  -53.0878 C.3       23 UNK        -0.0205 
    127 H127        1.9949  -22.4036  -44.0234 H         1 UNK         0.0600 
    128 H128        3.7370  -22.5366  -43.7706 H         1 UNK         0.0600 
    129 H129        3.0787  -22.5173  -45.4107 H         1 UNK         0.0600 
    130 H130        3.6334  -20.5918  -46.3621 H         1 UNK         0.3000 
    131 H131        2.6056  -18.1229  -45.5382 H         1 UNK         0.0600 
    132 H132        4.8411  -18.4430  -47.5925 H         1 UNK         0.0800 
    133 H133        3.2071  -18.9841  -47.8751 H         1 UNK         0.0800 
    134 H134        3.9294  -15.5532  -49.9188 H         1 UNK         0.0800 
    135 H135        4.8532  -17.0089  -49.6553 H         1 UNK         0.0800 
    136 H136        1.9739  -15.5943  -51.3282 H         1 UNK         0.1150 
    137 H137        0.3537  -19.3342  -52.6578 H         1 UNK         0.1150 
    138 H138        3.6644  -19.2820  -49.9482 H         1 UNK         0.1150 
    139 H139        1.0270  -21.3778  -51.6223 H         1 UNK         0.0800 
    140 H140        2.7721  -21.4248  -51.6363 H         1 UNK         0.0800 
    141 H141        1.0185  -19.5301  -48.4836 H         1 UNK         0.0800 
    142 H142       -0.2149  -20.3789  -49.3476 H         1 UNK         0.0800 
    143 H143        0.9358  -21.5578  -46.7876 H         1 UNK         0.0600 
    144 H144       -0.5216  -19.1138  -46.8137 H         1 UNK         0.3000 
    145 H145       -1.3233  -19.2115  -43.3044 H         1 UNK         0.0600 
    146 H146        0.9390  -18.2533  -43.7798 H         1 UNK         0.0600 
    147 H147        0.3071  -17.4273  -45.1930 H         1 UNK         0.0600 
    148 H148       -0.2657  -17.0109  -43.5844 H         1 UNK         0.0600 
    149 H149       -2.0837  -17.7385  -45.7615 H         1 UNK         0.3000 
    150 H150       -5.1499  -19.2753  -46.0715 H         1 UNK         0.0600 
    151 H151       -5.8958  -17.8197  -44.1197 H         1 UNK         0.0600 
    152 H152       -6.4875  -17.3221  -45.6959 H         1 UNK         0.0600 
    153 H153       -5.1675  -16.4443  -44.9450 H         1 UNK         0.0600 
    154 H154       -3.9903  -16.7297  -46.9654 H         1 UNK         0.3000 
    155 H155       -2.3898  -18.1871  -49.8056 H         1 UNK         0.0600 
    156 H156       -3.8909  -16.4139  -50.8847 H         1 UNK         0.0600 
    157 H157       -5.0007  -16.5918  -49.5358 H         1 UNK         0.0600 
    158 H158       -4.6821  -17.9528  -50.6068 H         1 UNK         0.0600 
    159 H159       -2.6571  -15.4953  -49.0368 H         1 UNK         0.3000 
    160 H160        0.4594  -15.2277  -47.5099 H         1 UNK         0.0600 
    161 H161       -1.9740  -13.6605  -48.5286 H         1 UNK         0.0600 
    162 H162       -0.6343  -14.2085  -49.5369 H         1 UNK         0.0600 
    163 H163       -0.3514  -13.0437  -48.2555 H         1 UNK         0.0600 
    164 H164       -0.2681  -14.4059  -45.5658 H         1 UNK         0.3000 
    165 H165       -3.2209  -13.2865  -44.2953 H         1 UNK         0.0600 
    166 H166       -2.0902  -15.8858  -43.1450 H         1 UNK         0.0600 
    167 H167       -2.9483  -14.6532  -42.2317 H         1 UNK         0.0600 
    168 H168       -3.7758  -15.5441  -43.4887 H         1 UNK         0.0600 
    169 H169       -0.6260  -13.8439  -43.0903 H         1 UNK         0.3000 
    170 H170        0.6445  -10.6006  -43.8792 H         1 UNK         0.0600 
    171 H171       -0.8402  -10.3928  -41.9056 H         1 UNK         0.0600 
    172 H172       -0.2758  -11.9362  -41.2836 H         1 UNK         0.0600 
    173 H173        0.8371  -10.5761  -41.4171 H         1 UNK         0.0600 
    174 H174        2.3633  -11.9172  -43.8249 H         1 UNK         0.3000 
    175 H175        3.4561  -14.1606  -43.9616 H         1 UNK         0.0600 
    176 H176        4.0653  -12.8242  -41.2691 H         1 UNK         0.0600 
    177 H177        5.2897  -13.4669  -42.3613 H         1 UNK         0.0600 
    178 H178        4.2838  -12.1236  -42.8649 H         1 UNK         0.0600 
    179 H179        3.7315  -16.0903  -43.0161 H         1 UNK         0.3000 
    180 H180        4.2422  -17.3080  -39.8032 H         1 UNK         0.0600 
    181 H181        1.8116  -18.0674  -41.5102 H         1 UNK         0.0600 
    182 H182        1.7805  -17.6667  -39.7983 H         1 UNK         0.0600 
    183 H183        2.6110  -19.1175  -40.3417 H         1 UNK         0.0600 
    184 H184        4.0682  -18.5644  -42.3891 H         1 UNK         0.3000 
    185 H185        7.1060  -17.4146  -43.7182 H         1 UNK         0.0600 
    186 H186        7.9158  -19.7614  -43.7651 H         1 UNK         0.0600 
    187 H187        8.1189  -19.0893  -42.1558 H         1 UNK         0.0600 
    188 H188        6.7944  -20.2025  -42.4761 H         1 UNK         0.0600 
    189 H189        5.4956  -19.6198  -44.4898 H         1 UNK         0.3000 
    190 H190       -2.4340  -21.0943  -46.6970 H         1 UNK         0.3000 
    191 H191       -3.4974  -23.2994  -47.9939 H         1 UNK         0.0600 
    192 H192       -5.3360  -23.1252  -46.3070 H         1 UNK         0.0600 
    193 H193       -4.8657  -21.5515  -46.9168 H         1 UNK         0.0600 
    194 H194       -4.3329  -22.0685  -45.3197 H         1 UNK         0.0600 
    195 H195       -1.6809  -23.2319  -44.9628 H         1 UNK         0.3000 
    196 H196       -2.2757  -25.9255  -44.1202 H         1 UNK         0.0600 
    197 H197       -0.4289  -25.4733  -42.4965 H         1 UNK         0.0600 
    198 H198       -1.5696  -24.1386  -42.5425 H         1 UNK         0.0600 
    199 H199       -0.0144  -23.9969  -43.3605 H         1 UNK         0.0600 
    200 H200       -0.1618  -24.6633  -46.5738 H         1 UNK         0.3000 
    201 H201        1.5999  -27.0864  -46.5183 H         1 UNK         0.0600 
    202 H202        2.8023  -24.9735  -46.1067 H         1 UNK         0.0600 
    203 H203        2.1213  -24.2551  -47.5649 H         1 UNK         0.0600 
    204 H204        3.2353  -25.6120  -47.6846 H         1 UNK         0.0600 
    205 H205       -0.0706  -24.7791  -48.7262 H         1 UNK         0.3000 
    206 H206        0.2222  -26.7373  -50.9804 H         1 UNK         0.0600 
    207 H207        1.6788  -24.6913  -51.0732 H         1 UNK         0.0600 
    208 H208        0.4958  -24.7050  -52.3710 H         1 UNK         0.0600 
    209 H209        0.2445  -23.6736  -50.9673 H         1 UNK         0.0600 
    210 H210       -2.1493  -25.5009  -48.9862 H         1 UNK         0.3000 
    211 H211       -4.3556  -25.1610  -49.0552 H         1 UNK         0.0600 
    212 H212       -4.4122  -26.7543  -51.6609 H         1 UNK         0.0600 
    213 H213       -5.7524  -26.4700  -50.5627 H         1 UNK         0.0600 
    214 H214       -4.3972  -27.4577  -50.0437 H         1 UNK         0.0600 
    215 H215       -2.6105  -23.1725  -50.2240 H         1 UNK         0.3000 
    216 H216       -3.3862  -22.0833  -52.6244 H         1 UNK         0.0600 
    217 H217       -2.1766  -20.0465  -51.8307 H         1 UNK         0.0600 
    218 H218       -1.3088  -21.5117  -51.3921 H         1 UNK         0.0600 
    219 H219       -2.2564  -20.6476  -50.1793 H         1 UNK         0.0600 
    220 H220       -5.0825  -21.6541  -49.5808 H         1 UNK         0.3000 
    221 H221       -6.5755  -19.3253  -50.1483 H         1 UNK         0.0600 
    222 H222       -7.1977  -21.7476  -48.3862 H         1 UNK         0.0600 
    223 H223       -6.4657  -20.2160  -47.8952 H         1 UNK         0.0600 
    224 H224       -8.1435  -20.2631  -48.3921 H         1 UNK         0.0600 
    225 H225       -6.9376  -22.5483  -51.4948 H         1 UNK         0.3000 
    226 H226       -9.6609  -22.2575  -52.4173 H         1 UNK         0.0600 
    227 H227       -8.5513  -24.4750  -52.1556 H         1 UNK         0.0600 
    228 H228       -9.0900  -24.2339  -53.8111 H         1 UNK         0.0600 
    229 H229       -7.3860  -24.0573  -53.4106 H         1 UNK         0.0600 
    230 H230       -6.4904  -21.2799  -53.6507 H         1 UNK         0.3000 
    231 H231       -7.5966  -20.3520  -56.2506 H         1 UNK         0.0600 
    232 H232       -5.1953  -19.9765  -56.7901 H         1 UNK         0.0600 
    233 H233       -5.4607  -21.6332  -56.2704 H         1 UNK         0.0600 
    234 H234       -4.7282  -20.4696  -55.1670 H         1 UNK         0.0600 
    235 H235       -6.5909  -19.2166  -53.1200 H         1 UNK         0.3000 
    236 H236       -6.4995  -17.2967  -52.0467 H         1 UNK         0.0600 
    237 H237       -8.8299  -16.9217  -52.8763 H         1 UNK         0.0600 
    238 H238       -7.9595  -15.4128  -52.6566 H         1 UNK         0.0600 
    239 H239       -8.1942  -16.0571  -54.2757 H         1 UNK         0.0600 
    240 H240       -4.4244  -18.0506  -53.8478 H         1 UNK         0.3000 
    241 H241       -2.5713  -17.4466  -54.8634 H         1 UNK         0.0600 
    242 H242       -5.3368  -16.7939  -56.2854 H         1 UNK         0.3800 
    243 H243       -4.7393  -15.9115  -57.6648 H         1 UNK         0.3800 
    244 H244       -1.5239  -15.1225  -54.4151 H         1 UNK         0.0800 
    245 H245       -2.9041  -14.7715  -53.4273 H         1 UNK         0.0800 
    246 H246        0.5903  -15.6730  -53.3267 H         1 UNK         0.0800 
    247 H247        0.1189  -17.2013  -54.0295 H         1 UNK         0.0800 
@<TRIPOS>BOND
     1    1    2 1    
     2    1  127 1    
     3    1  128 1    
     4    1  129 1    
     5    2    3 2    
     6    2    4 am   BACKBONE|DICT|INTERRES
     7    4    5 1    
     8    4  130 1    
     9    5    6 1    
    10    5   65 1    
    11    5  131 1    
    12    6    7 1    
    13    6  132 1    
    14    6  133 1    
    15    7    8 1    
    16    8    9 1    
    17    8  134 1    
    18    8  135 1    
    19    9   10 ar   
    20    9   14 ar   
    21   10   11 ar   
    22   10  136 1    
    23   11   12 ar   
    24   11  126 1    
    25   12   13 ar   
    26   12  137 1    
    27   13   14 ar   
    28   13   15 1    
    29   14  138 1    
    30   15   16 1    
    31   15  139 1    
    32   15  140 1    
    33   16   17 1    
    34   17   18 1    
    35   17  141 1    
    36   17  142 1    
    37   18   19 1    
    38   18   67 1    
    39   18  143 1    
    40   19   20 am   BACKBONE|DICT|INTERRES
    41   19  144 1    
    42   20   21 2    
    43   20   22 1    
    44   22   23 1    
    45   22   24 1    
    46   22  145 1    
    47   23  146 1    
    48   23  147 1    
    49   23  148 1    
    50   24   25 am   BACKBONE|DICT|INTERRES
    51   24  149 1    
    52   25   26 2    
    53   25   27 1    
    54   27   28 1    
    55   27   29 1    
    56   27  150 1    
    57   28  151 1    
    58   28  152 1    
    59   28  153 1    
    60   29   30 am   BACKBONE|DICT|INTERRES
    61   29  154 1    
    62   30   31 2    
    63   30   32 1    
    64   32   33 1    
    65   32   34 1    
    66   32  155 1    
    67   33  156 1    
    68   33  157 1    
    69   33  158 1    
    70   34   35 am   BACKBONE|DICT|INTERRES
    71   34  159 1    
    72   35   36 2    
    73   35   37 1    
    74   37   38 1    
    75   37   39 1    
    76   37  160 1    
    77   38  161 1    
    78   38  162 1    
    79   38  163 1    
    80   39   40 am   BACKBONE|DICT|INTERRES
    81   39  164 1    
    82   40   41 2    
    83   40   42 1    
    84   42   43 1    
    85   42   44 1    
    86   42  165 1    
    87   43  166 1    
    88   43  167 1    
    89   43  168 1    
    90   44   45 am   BACKBONE|DICT|INTERRES
    91   44  169 1    
    92   45   46 2    
    93   45   47 1    
    94   47   48 1    
    95   47   49 1    
    96   47  170 1    
    97   48  171 1    
    98   48  172 1    
    99   48  173 1    
   100   49   50 am   BACKBONE|DICT|INTERRES
   101   49  174 1    
   102   50   51 2    
   103   50   52 1    
   104   52   53 1    
   105   52   54 1    
   106   52  175 1    
   107   53  176 1    
   108   53  177 1    
   109   53  178 1    
   110   54   55 am   BACKBONE|DICT|INTERRES
   111   54  179 1    
   112   55   56 2    
   113   55   57 1    
   114   57   58 1    
   115   57   59 1    
   116   57  180 1    
   117   58  181 1    
   118   58  182 1    
   119   58  183 1    
   120   59   60 am   BACKBONE|DICT|INTERRES
   121   59  184 1    
   122   60   61 2    
   123   60   62 1    
   124   62   63 1    
   125   62   64 1    
   126   62  185 1    
   127   63  186 1    
   128   63  187 1    
   129   63  188 1    
   130   64   65 am   BACKBONE|DICT|INTERRES
   131   64  189 1    
   132   65   66 2    
   133   67   68 2    
   134   67   69 am   BACKBONE|DICT|INTERRES
   135   69   70 1    
   136   69  190 1    
   137   70   71 1    
   138   70   72 1    
   139   70  191 1    
   140   71  192 1    
   141   71  193 1    
   142   71  194 1    
   143   72   73 2    
   144   72   74 am   BACKBONE|DICT|INTERRES
   145   74   75 1    
   146   74  195 1    
   147   75   76 1    
   148   75   77 1    
   149   75  196 1    
   150   76  197 1    
   151   76  198 1    
   152   76  199 1    
   153   77   78 2    
   154   77   79 am   BACKBONE|DICT|INTERRES
   155   79   80 1    
   156   79  200 1    
   157   80   81 1    
   158   80   82 1    
   159   80  201 1    
   160   81  202 1    
   161   81  203 1    
   162   81  204 1    
   163   82   83 2    
   164   82   84 am   BACKBONE|DICT|INTERRES
   165   84   85 1    
   166   84  205 1    
   167   85   86 1    
   168   85   87 1    
   169   85  206 1    
   170   86  207 1    
   171   86  208 1    
   172   86  209 1    
   173   87   88 2    
   174   87   89 am   BACKBONE|DICT|INTERRES
   175   89   90 1    
   176   89  210 1    
   177   90   91 1    
   178   90   92 1    
   179   90  211 1    
   180   91  212 1    
   181   91  213 1    
   182   91  214 1    
   183   92   93 2    
   184   92   94 am   BACKBONE|DICT|INTERRES
   185   94   95 1    
   186   94  215 1    
   187   95   96 1    
   188   95   97 1    
   189   95  216 1    
   190   96  217 1    
   191   96  218 1    
   192   96  219 1    
   193   97   98 2    
   194   97   99 am   BACKBONE|DICT|INTERRES
   195   99  100 1    
   196   99  220 1    
   197  100  101 1    
   198  100  102 1    
   199  100  221 1    
   200  101  222 1    
   201  101  223 1    
   202  101  224 1    
   203  102  103 2    
   204  102  104 am   BACKBONE|DICT|INTERRES
   205  104  105 1    
   206  104  225 1    
   207  105  106 1    
   208  105  107 1    
   209  105  226 1    
   210  106  227 1    
   211  106  228 1    
   212  106  229 1    
   213  107  108 2    
   214  107  109 am   BACKBONE|DICT|INTERRES
   215  109  110 1    
   216  109  230 1    
   217  110  111 1    
   218  110  112 1    
   219  110  231 1    
   220  111  232 1    
   221  111  233 1    
   222  111  234 1    
   223  112  113 2    
   224  112  114 am   BACKBONE|DICT|INTERRES
   225  114  115 1    
   226  114  235 1    
   227  115  116 1    
   228  115  117 1    
   229  115  236 1    
   230  116  237 1    
   231  116  238 1    
   232  116  239 1    
   233  117  118 2    
   234  117  119 am   BACKBONE|DICT|INTERRES
   235  119  120 1    
   236  119  240 1    
   237  120  121 1    
   238  120  124 1    
   239  120  241 1    
   240  121  122 am   BACKBONE|DICT|INTERRES
   241  121  123 2    
   242  122  242 1    
   243  122  243 1    
   244  124  125 1    
   245  124  244 1    
   246  124  245 1    
   247  125  126 1    
   248  126  246 1    
   249  126  247 1    
@<TRIPOS>SUBSTRUCTURE
     1 UNK         1 GROUP             0       ****    0 ROOT    
