@<TRIPOS>MOLECULE
3R540
247   249    1
SMALL
USER_CHARGES


@<TRIPOS>ATOM
      1 CA         -2.8890  -16.8110  -43.6813 C.3       0 UNK        -0.1800 
      2 C          -3.8448  -16.3606  -44.7764 C.2       0 UNK         0.5000 
      3 O          -5.0517  -16.2978  -44.5456 O.2       0 UNK        -0.5000 
      4 N          -3.3082  -16.0459  -45.9633 N.am      1 UNK        -0.5000 
      5 CA         -4.0644  -15.6119  -47.1473 C.3       1 UNK         0.1400 
      6 C6         -3.1848  -15.5679  -48.4217 C.3       23 UNK        -0.0398 
      7 S7         -2.3415  -17.1458  -48.7619 S.3       23 UNK        -0.2404 
      8 C8         -1.2132  -16.6277  -50.0906 C.3       23 UNK        -0.0205 
      9 C9         -0.4386  -17.8157  -50.6343 C.ar      23 UNK        -0.0193 
     10 C10        -0.7657  -18.3722  -51.8725 C.ar      23 UNK        -0.1150 
     11 C11        -0.0729  -19.4847  -52.3567 C.ar      23 UNK        -0.0193 
     12 C12         0.9573  -20.0402  -51.5917 C.ar      23 UNK        -0.1150 
     13 C13         1.2902  -19.4948  -50.3480 C.ar      23 UNK        -0.0193 
     14 C14         0.6002  -18.3715  -49.8863 C.ar      23 UNK        -0.1150 
     15 C15         2.3791  -20.1246  -49.4904 C.3       23 UNK        -0.0205 
     16 S16         1.9566  -21.8149  -48.9513 S.3       23 UNK        -0.2404 
     17 C17         0.3041  -21.5871  -48.2094 C.3       23 UNK        -0.0398 
     18 CA          0.0065  -22.6564  -47.1323 C.3       11 UNK         0.1400 
     19 N           0.7518  -22.4249  -45.8894 N.am      11 UNK        -0.5000 
     20 C           0.8073  -23.2883  -44.8652 C.2       10 UNK         0.5000 
     21 O           0.2711  -24.3960  -44.8776 O.2       10 UNK        -0.5000 
     22 CA          1.5352  -22.8209  -43.5913 C.3       10 UNK         0.1400 
     23 CB          3.0587  -22.9338  -43.7492 C.3       10 UNK        -0.1800 
     24 N           1.1688  -21.4579  -43.2026 N.am      10 UNK        -0.5000 
     25 C          -0.0656  -21.0869  -42.8313 C.2       9 UNK         0.5000 
     26 O          -1.0099  -21.8674  -42.7291 O.2       9 UNK        -0.5000 
     27 CA         -0.3070  -19.5880  -42.5840 C.3       9 UNK         0.1400 
     28 CB          0.1649  -19.1731  -41.1831 C.3       9 UNK        -0.1800 
     29 N           0.3372  -18.7463  -43.5888 N.am      9 UNK        -0.5000 
     30 C           0.0582  -18.7622  -44.8984 C.2       8 UNK         0.5000 
     31 O          -0.8350  -19.4396  -45.4030 O.2       8 UNK        -0.5000 
     32 CA          0.9692  -17.9210  -45.8046 C.3       8 UNK         0.1400 
     33 CB          0.5328  -16.4485  -45.8378 C.3       8 UNK        -0.1800 
     34 N           2.3745  -18.0146  -45.4128 N.am      8 UNK        -0.5000 
     35 C           3.1105  -19.1295  -45.5196 C.2       7 UNK         0.5000 
     36 O           2.6811  -20.1882  -45.9753 O.2       7 UNK        -0.5000 
     37 CA          4.5539  -19.0556  -44.9925 C.3       7 UNK         0.1400 
     38 CB          5.4775  -18.4044  -46.0327 C.3       7 UNK        -0.1800 
     39 N           4.6461  -18.3231  -43.7285 N.am      7 UNK        -0.5000 
     40 C           4.1363  -18.7609  -42.5687 C.2       6 UNK         0.5000 
     41 O           3.5694  -19.8457  -42.4378 O.2       6 UNK        -0.5000 
     42 CA          4.2324  -17.8030  -41.3654 C.3       6 UNK         0.1400 
     43 CB          5.6013  -17.9309  -40.6804 C.3       6 UNK        -0.1800 
     44 N           3.9848  -16.3960  -41.7032 N.am      6 UNK        -0.5000 
     45 C           2.8523  -15.9351  -42.2501 C.2       5 UNK         0.5000 
     46 O           1.9224  -16.6629  -42.6019 O.2       5 UNK        -0.5000 
     47 CA          2.7569  -14.4175  -42.4893 C.3       5 UNK         0.1400 
     48 CB          3.4425  -14.0438  -43.8129 C.3       5 UNK        -0.1800 
     49 N           1.3620  -13.9805  -42.5494 N.am      5 UNK        -0.5000 
     50 C           0.5187  -13.9472  -41.5079 C.2       4 UNK         0.5000 
     51 O           0.8656  -14.1644  -40.3453 O.2       4 UNK        -0.5000 
     52 CA         -0.9607  -13.6387  -41.8326 C.3       4 UNK         0.1400 
     53 CB         -1.7366  -13.0626  -40.6296 C.3       4 UNK        -0.1800 
     54 N          -1.1418  -12.8001  -43.0259 N.am      4 UNK        -0.5000 
     55 C          -0.7196  -11.5380  -43.2026 C.2       3 UNK         0.5000 
     56 O          -0.1092  -10.8882  -42.3533 O.2       3 UNK        -0.5000 
     57 CA         -1.0068  -10.8963  -44.5744 C.3       3 UNK         0.1400 
     58 CB          0.2428  -10.9790  -45.4660 C.3       3 UNK        -0.1800 
     59 N          -2.1380  -11.4917  -45.2945 N.am      3 UNK        -0.5000 
     60 C          -3.4277  -11.3390  -44.9545 C.2       2 UNK         0.5000 
     61 O          -3.8067  -10.7318  -43.9531 O.2       2 UNK        -0.5000 
     62 CA         -4.4610  -11.9835  -45.8902 C.3       2 UNK         0.1400 
     63 CB         -4.6786  -11.0953  -47.1325 C.3       2 UNK        -0.1800 
     64 N          -4.0273  -13.3316  -46.2601 N.am      2 UNK        -0.5000 
     65 C          -4.7423  -14.2410  -46.9356 C.2       1 UNK         0.5000 
     66 O          -5.8774  -14.0461  -47.3716 O.2       1 UNK        -0.5000 
     67 C          -1.5106  -22.7945  -46.8819 C.2       11 UNK         0.5000 
     68 O          -2.1269  -23.7177  -47.4158 O.2       11 UNK        -0.5000 
     69 N          -2.0777  -21.9213  -46.0377 N.am      12 UNK        -0.5000 
     70 CA         -3.4792  -21.9667  -45.6181 C.3       12 UNK         0.1400 
     71 CB         -3.8249  -20.6902  -44.8366 C.3       12 UNK        -0.1800 
     72 C          -3.8284  -23.2275  -44.8035 C.2       12 UNK         0.5000 
     73 O          -4.9013  -23.7952  -45.0080 O.2       12 UNK        -0.5000 
     74 N          -2.9166  -23.6564  -43.9186 N.am      13 UNK        -0.5000 
     75 CA         -3.0393  -24.8797  -43.1236 C.3       13 UNK         0.1400 
     76 CB         -1.9776  -24.8883  -42.0134 C.3       13 UNK        -0.1800 
     77 C          -2.9441  -26.1567  -43.9777 C.2       13 UNK         0.5000 
     78 O          -3.7079  -27.0950  -43.7460 O.2       13 UNK        -0.5000 
     79 N          -2.0266  -26.1662  -44.9563 N.am      14 UNK        -0.5000 
     80 CA         -1.8808  -27.2364  -45.9460 C.3       14 UNK         0.1400 
     81 CB         -0.5817  -27.0283  -46.7399 C.3       14 UNK        -0.1800 
     82 C          -3.0889  -27.3219  -46.8971 C.2       14 UNK         0.5000 
     83 O          -3.5067  -28.4242  -47.2528 O.2       14 UNK        -0.5000 
     84 N          -3.6267  -26.1510  -47.2694 N.am      15 UNK        -0.5000 
     85 CA         -4.8264  -25.9241  -48.0799 C.3       15 UNK         0.1400 
     86 CB         -6.0799  -26.4824  -47.3747 C.3       15 UNK        -0.1800 
     87 C          -4.6991  -26.4010  -49.5419 C.2       15 UNK         0.5000 
     88 O          -5.7160  -26.6088  -50.2062 O.2       15 UNK        -0.5000 
     89 N          -3.4587  -26.5435  -50.0315 N.am      16 UNK        -0.5000 
     90 CA         -3.1476  -26.8853  -51.4217 C.3       16 UNK         0.1400 
     91 CB         -1.6649  -27.2737  -51.5295 C.3       16 UNK        -0.1800 
     92 C          -3.4857  -25.7298  -52.3820 C.2       16 UNK         0.5000 
     93 O          -4.0386  -25.9639  -53.4572 O.2       16 UNK        -0.5000 
     94 N          -3.1801  -24.5050  -51.9433 N.am      17 UNK        -0.5000 
     95 CA         -3.5162  -23.2338  -52.5676 C.3       17 UNK         0.1400 
     96 CB         -2.6770  -23.0044  -53.8379 C.3       17 UNK        -0.1800 
     97 C          -3.2523  -22.1448  -51.5194 C.2       17 UNK         0.5000 
     98 O          -2.3235  -22.2890  -50.7213 O.2       17 UNK        -0.5000 
     99 N          -4.0687  -21.0882  -51.5300 N.am      18 UNK        -0.5000 
    100 CA        -3.9893  -19.9667  -50.5930 C.3       18 UNK         0.1400 
    101 CB        -4.5908  -20.3579  -49.2272 C.3       18 UNK        -0.1800 
    102 C         -4.6434  -18.7219  -51.2177 C.2       18 UNK         0.5000 
    103 O         -5.4201  -18.0251  -50.5629 O.2       18 UNK        -0.5000 
    104 N         -4.3334  -18.4815  -52.4955 N.am      19 UNK        -0.5000 
    105 CA        -4.7785  -17.3379  -53.2817 C.3       19 UNK         0.1400 
    106 CB        -6.1169  -17.6673  -53.9647 C.3       19 UNK        -0.1800 
    107 C         -3.6943  -17.0212  -54.3188 C.2       19 UNK         0.5000 
    108 O         -2.9031  -17.9033  -54.6608 O.2       19 UNK        -0.5000 
    109 N         -3.6956  -15.7821  -54.8268 N.am      20 UNK        -0.5000 
    110 CA        -2.7083  -15.2398  -55.7714 C.3       20 UNK         0.1400 
    111 CB        -2.9925  -13.7430  -55.9731 C.3       20 UNK        -0.1800 
    112 C         -2.6285  -15.9614  -57.1346 C.2       20 UNK         0.5000 
    113 O         -1.6657  -15.7509  -57.8743 O.2       20 UNK        -0.5000 
    114 N         -3.6160  -16.8171  -57.4325 N.am      21 UNK        -0.5000 
    115 CA        -3.7043  -17.6733  -58.6166 C.3       21 UNK         0.1400 
    116 CB        -5.0202  -18.4640  -58.5519 C.3       21 UNK        -0.1800 
    117 C         -2.5099  -18.6318  -58.8120 C.2       21 UNK         0.5000 
    118 O         -2.2706  -19.0554  -59.9439 O.2       21 UNK        -0.5000 
    119 N         -1.7710  -18.9415  -57.7353 N.am      22 UNK        -0.5000 
    120 CA        -0.4948  -19.6728  -57.8020 C.3       22 UNK         0.1400 
    121 C          0.6998  -18.8622  -58.3948 C.2       22 UNK         0.5000 
    122 N          0.5942  -17.5523  -58.5928 N.am      22 UNK        -0.7600 
    123 O          1.7403  -19.4399  -58.6981 O.2       22 UNK        -0.5000 
    124 C124       -0.1343  -20.3546  -56.4566 C.3       23 UNK        -0.0398 
    125 S125        0.2608  -19.2048  -55.0911 S.3       23 UNK        -0.2404 
    126 C126       -0.4596  -20.1063  -53.6877 C.3       23 UNK        -0.0205 
    127 H127       -3.1507  -16.3407  -42.7335 H         1 UNK         0.0600 
    128 H128       -2.9566  -17.8909  -43.5560 H         1 UNK         0.0600 
    129 H129       -1.8556  -16.5542  -43.9118 H         1 UNK         0.0600 
    130 H130       -2.3194  -16.1775  -46.1103 H         1 UNK         0.3000 
    131 H131       -4.8574  -16.3448  -47.3136 H         1 UNK         0.0600 
    132 H132       -2.4285  -14.7849  -48.3406 H         1 UNK         0.0800 
    133 H133       -3.7947  -15.3211  -49.2932 H         1 UNK         0.0800 
    134 H134       -0.5167  -15.8794  -49.7093 H         1 UNK         0.0800 
    135 H135       -1.7854  -16.1477  -50.8863 H         1 UNK         0.0800 
    136 H136       -1.5616  -17.9416  -52.4592 H         1 UNK         0.1150 
    137 H137        1.4882  -20.9101  -51.9519 H         1 UNK         0.1150 
    138 H138        0.8558  -17.9315  -48.9358 H         1 UNK         0.1150 
    139 H139        3.3092  -20.1563  -50.0590 H         1 UNK         0.0800 
    140 H140        2.5798  -19.5133  -48.6100 H         1 UNK         0.0800 
    141 H141        0.2191  -20.5847  -47.7872 H         1 UNK         0.0800 
    142 H142       -0.4191  -21.6371  -49.0250 H         1 UNK         0.0800 
    143 H143        0.3338  -23.6223  -47.5235 H         1 UNK         0.0600 
    144 H144        1.2698  -21.5532  -45.8260 H         1 UNK         0.3000 
    145 H145        1.2349  -23.4860  -42.7791 H         1 UNK         0.0600 
    146 H146        3.5705  -22.6757  -42.8219 H         1 UNK         0.0600 
    147 H147        3.3485  -23.9529  -44.0080 H         1 UNK         0.0600 
    148 H148        3.4364  -22.2774  -44.5325 H         1 UNK         0.0600 
    149 H149        1.9086  -20.7641  -43.2160 H         1 UNK         0.3000 
    150 H150       -1.3823  -19.4140  -42.6424 H         1 UNK         0.0600 
    151 H151       -0.3308  -19.7653  -40.4130 H         1 UNK         0.0600 
    152 H152       -0.0617  -18.1250  -40.9861 H         1 UNK         0.0600 
    153 H153        1.2395  -19.3101  -41.0628 H         1 UNK         0.0600 
    154 H154        1.0551  -18.1067  -43.2530 H         1 UNK         0.3000 
    155 H155        0.8776  -18.3276  -46.8106 H         1 UNK         0.0600 
    156 H156        1.1773  -15.8616  -46.4925 H         1 UNK         0.0600 
    157 H157        0.5565  -15.9941  -44.8472 H         1 UNK         0.0600 
    158 H158       -0.4821  -16.3565  -46.2217 H         1 UNK         0.0600 
    159 H159        2.7795  -17.2059  -44.9668 H         1 UNK         0.3000 
    160 H160        4.8994  -20.0776  -44.8222 H         1 UNK         0.0600 
    161 H161        5.2006  -17.3676  -46.2281 H         1 UNK         0.0600 
    162 H162        5.4336  -18.9404  -46.9819 H         1 UNK         0.0600 
    163 H163        6.5157  -18.4179  -45.7008 H         1 UNK         0.0600 
    164 H164        5.0952  -17.4195  -43.7497 H         1 UNK         0.3000 
    165 H165        3.4665  -18.1056  -40.6484 H         1 UNK         0.0600 
    166 H166        6.4113  -17.6016  -41.3324 H         1 UNK         0.0600 
    167 H167        5.6425  -17.3375  -39.7669 H         1 UNK         0.0600 
    168 H168        5.8036  -18.9663  -40.4025 H         1 UNK         0.0600 
    169 H169        4.7123  -15.7405  -41.4565 H         1 UNK         0.3000 
    170 H170        3.2530  -13.8969  -41.6677 H         1 UNK         0.0600 
    171 H171        4.4971  -14.3217  -43.8023 H         1 UNK         0.0600 
    172 H172        2.9792  -14.5449  -44.6639 H         1 UNK         0.0600 
    173 H173        3.3942  -12.9692  -43.9911 H         1 UNK         0.0600 
    174 H174        0.9870  -13.8027  -43.4677 H         1 UNK         0.3000 
    175 H175       -1.4109  -14.6024  -42.0729 H         1 UNK         0.0600 
    176 H176       -2.7771  -12.8676  -40.8892 H         1 UNK         0.0600 
    177 H177       -1.7381  -13.7622  -39.7931 H         1 UNK         0.0600 
    178 H178       -1.2990  -12.1297  -40.2734 H         1 UNK         0.0600 
    179 H179       -1.6331  -13.2314  -43.7931 H         1 UNK         0.3000 
    180 H180       -1.2315   -9.8419  -44.3998 H         1 UNK         0.0600 
    181 H181        0.0913  -10.4512  -46.4078 H         1 UNK         0.0600 
    182 H182        1.1045  -10.5230  -44.9763 H         1 UNK         0.0600 
    183 H183        0.5066  -12.0118  -45.6975 H         1 UNK         0.0600 
    184 H184       -1.9174  -11.9468  -46.1681 H         1 UNK         0.3000 
    185 H185       -5.4023  -12.0643  -45.3428 H         1 UNK         0.0600 
    186 H186       -5.5119  -11.4474  -47.7397 H         1 UNK         0.0600 
    187 H187       -4.9097  -10.0692  -46.8431 H         1 UNK         0.0600 
    188 H188       -3.7922  -11.0656  -47.7670 H         1 UNK         0.0600 
    189 H189       -3.1350  -13.6216  -45.8904 H         1 UNK         0.3000 
    190 H190       -1.5204  -21.1528  -45.6711 H         1 UNK         0.3000 
    191 H191       -4.0939  -21.9836  -46.5197 H         1 UNK         0.0600 
    192 H192       -4.8717  -20.6894  -44.5308 H         1 UNK         0.0600 
    193 H193       -3.6632  -19.8002  -45.4456 H         1 UNK         0.0600 
    194 H194       -3.2184  -20.5941  -43.9359 H         1 UNK         0.0600 
    195 H195       -2.0897  -23.0897  -43.7520 H         1 UNK         0.3000 
    196 H196       -4.0222  -24.8727  -42.6478 H         1 UNK         0.0600 
    197 H197       -2.0545  -25.7903  -41.4051 H         1 UNK         0.0600 
    198 H198       -2.0998  -24.0353  -41.3457 H         1 UNK         0.0600 
    199 H199       -0.9672  -24.8516  -42.4214 H         1 UNK         0.0600 
    200 H200       -1.3838  -25.3826  -45.0332 H         1 UNK         0.3000 
    201 H201       -1.8068  -28.1858  -45.4116 H         1 UNK         0.0600 
    202 H202        0.2872  -27.0406  -46.0817 H         1 UNK         0.0600 
    203 H203       -0.5820  -26.0768  -47.2725 H         1 UNK         0.0600 
    204 H204       -0.4426  -27.8193  -47.4778 H         1 UNK         0.0600 
    205 H205       -3.1418  -25.3025  -46.9888 H         1 UNK         0.3000 
    206 H206       -4.9399  -24.8403  -48.1324 H         1 UNK         0.0600 
    207 H207       -6.1457  -26.1216  -46.3480 H         1 UNK         0.0600 
    208 H208       -6.9906  -26.1683  -47.8858 H         1 UNK         0.0600 
    209 H209       -6.0794  -27.5723  -47.3485 H         1 UNK         0.0600 
    210 H210       -2.6809  -26.3545  -49.4168 H         1 UNK         0.3000 
    211 H211       -3.7500  -27.7501  -51.7079 H         1 UNK         0.0600 
    212 H212       -1.0087  -26.4537  -51.2350 H         1 UNK         0.0600 
    213 H213       -1.4080  -27.5486  -52.5533 H         1 UNK         0.0600 
    214 H214       -1.4355  -28.1309  -50.8960 H         1 UNK         0.0600 
    215 H215       -2.7244  -24.3994  -51.0449 H         1 UNK         0.3000 
    216 H216       -4.5780  -23.2372  -52.8221 H         1 UNK         0.0600 
    217 H217       -2.9024  -22.0363  -54.2856 H         1 UNK         0.0600 
    218 H218       -2.8827  -23.7605  -54.5953 H         1 UNK         0.0600 
    219 H219       -1.6092  -23.0343  -53.6207 H         1 UNK         0.0600 
    220 H220       -4.8115  -21.0348  -52.2140 H         1 UNK         0.3000 
    221 H221       -2.9384  -19.7142  -50.4376 H         1 UNK         0.0600 
    222 H222       -5.6441  -20.6258  -49.3149 H         1 UNK         0.0600 
    223 H223       -4.0626  -21.2064  -48.7930 H         1 UNK         0.0600 
    224 H224       -4.5145  -19.5357  -48.5146 H         1 UNK         0.0600 
    225 H225       -3.6507  -19.0604  -52.9677 H         1 UNK         0.3000 
    226 H226       -4.8977  -16.4682  -52.6319 H         1 UNK         0.0600 
    227 H227       -6.4734  -16.8257  -54.5597 H         1 UNK         0.0600 
    228 H228       -6.0273  -18.5273  -54.6298 H         1 UNK         0.0600 
    229 H229       -6.8893  -17.8930  -53.2293 H         1 UNK         0.0600 
    230 H230       -4.4006  -15.1319  -54.5100 H         1 UNK         0.3000 
    231 H231       -1.7251  -15.3402  -55.3072 H         1 UNK         0.0600 
    232 H232       -2.2571  -13.2894  -56.6391 H         1 UNK         0.0600 
    233 H233       -2.9477  -13.2010  -55.0283 H         1 UNK         0.0600 
    234 H234       -3.9777  -13.5773  -56.4108 H         1 UNK         0.0600 
    235 H235       -4.3495  -16.9284  -56.7492 H         1 UNK         0.3000 
    236 H236       -3.7384  -17.0189  -59.4898 H         1 UNK         0.0600 
    237 H237       -5.0558  -19.1116  -57.6747 H         1 UNK         0.0600 
    238 H238       -5.8814  -17.7967  -58.5129 H         1 UNK         0.0600 
    239 H239       -5.1414  -19.0965  -59.4324 H         1 UNK         0.0600 
    240 H240       -2.0233  -18.5562  -56.8338 H         1 UNK         0.3000 
    241 H241       -0.6481  -20.4896  -58.5101 H         1 UNK         0.0600 
    242 H242        1.3749  -17.0491  -58.9830 H         1 UNK         0.3800 
    243 H243       -0.2494  -17.0463  -58.3426 H         1 UNK         0.3800 
    244 H244        0.7187  -21.0218  -56.5913 H         1 UNK         0.0800 
    245 H245       -0.9616  -20.9985  -56.1549 H         1 UNK         0.0800 
    246 H246       -1.5452  -20.1172  -53.7858 H         1 UNK         0.0800 
    247 H247       -0.1304  -21.1455  -53.7213 H         1 UNK         0.0800 
@<TRIPOS>BOND
     1    1    2 1    
     2    1  127 1    
     3    1  128 1    
     4    1  129 1    
     5    2    3 2    
     6    2    4 am   BACKBONE|DICT|INTERRES
     7    4    5 1    
     8    4  130 1    
     9    5    6 1    
    10    5   65 1    
    11    5  131 1    
    12    6    7 1    
    13    6  132 1    
    14    6  133 1    
    15    7    8 1    
    16    8    9 1    
    17    8  134 1    
    18    8  135 1    
    19    9   10 ar   
    20    9   14 ar   
    21   10   11 ar   
    22   10  136 1    
    23   11   12 ar   
    24   11  126 1    
    25   12   13 ar   
    26   12  137 1    
    27   13   14 ar   
    28   13   15 1    
    29   14  138 1    
    30   15   16 1    
    31   15  139 1    
    32   15  140 1    
    33   16   17 1    
    34   17   18 1    
    35   17  141 1    
    36   17  142 1    
    37   18   19 1    
    38   18   67 1    
    39   18  143 1    
    40   19   20 am   BACKBONE|DICT|INTERRES
    41   19  144 1    
    42   20   21 2    
    43   20   22 1    
    44   22   23 1    
    45   22   24 1    
    46   22  145 1    
    47   23  146 1    
    48   23  147 1    
    49   23  148 1    
    50   24   25 am   BACKBONE|DICT|INTERRES
    51   24  149 1    
    52   25   26 2    
    53   25   27 1    
    54   27   28 1    
    55   27   29 1    
    56   27  150 1    
    57   28  151 1    
    58   28  152 1    
    59   28  153 1    
    60   29   30 am   BACKBONE|DICT|INTERRES
    61   29  154 1    
    62   30   31 2    
    63   30   32 1    
    64   32   33 1    
    65   32   34 1    
    66   32  155 1    
    67   33  156 1    
    68   33  157 1    
    69   33  158 1    
    70   34   35 am   BACKBONE|DICT|INTERRES
    71   34  159 1    
    72   35   36 2    
    73   35   37 1    
    74   37   38 1    
    75   37   39 1    
    76   37  160 1    
    77   38  161 1    
    78   38  162 1    
    79   38  163 1    
    80   39   40 am   BACKBONE|DICT|INTERRES
    81   39  164 1    
    82   40   41 2    
    83   40   42 1    
    84   42   43 1    
    85   42   44 1    
    86   42  165 1    
    87   43  166 1    
    88   43  167 1    
    89   43  168 1    
    90   44   45 am   BACKBONE|DICT|INTERRES
    91   44  169 1    
    92   45   46 2    
    93   45   47 1    
    94   47   48 1    
    95   47   49 1    
    96   47  170 1    
    97   48  171 1    
    98   48  172 1    
    99   48  173 1    
   100   49   50 am   BACKBONE|DICT|INTERRES
   101   49  174 1    
   102   50   51 2    
   103   50   52 1    
   104   52   53 1    
   105   52   54 1    
   106   52  175 1    
   107   53  176 1    
   108   53  177 1    
   109   53  178 1    
   110   54   55 am   BACKBONE|DICT|INTERRES
   111   54  179 1    
   112   55   56 2    
   113   55   57 1    
   114   57   58 1    
   115   57   59 1    
   116   57  180 1    
   117   58  181 1    
   118   58  182 1    
   119   58  183 1    
   120   59   60 am   BACKBONE|DICT|INTERRES
   121   59  184 1    
   122   60   61 2    
   123   60   62 1    
   124   62   63 1    
   125   62   64 1    
   126   62  185 1    
   127   63  186 1    
   128   63  187 1    
   129   63  188 1    
   130   64   65 am   BACKBONE|DICT|INTERRES
   131   64  189 1    
   132   65   66 2    
   133   67   68 2    
   134   67   69 am   BACKBONE|DICT|INTERRES
   135   69   70 1    
   136   69  190 1    
   137   70   71 1    
   138   70   72 1    
   139   70  191 1    
   140   71  192 1    
   141   71  193 1    
   142   71  194 1    
   143   72   73 2    
   144   72   74 am   BACKBONE|DICT|INTERRES
   145   74   75 1    
   146   74  195 1    
   147   75   76 1    
   148   75   77 1    
   149   75  196 1    
   150   76  197 1    
   151   76  198 1    
   152   76  199 1    
   153   77   78 2    
   154   77   79 am   BACKBONE|DICT|INTERRES
   155   79   80 1    
   156   79  200 1    
   157   80   81 1    
   158   80   82 1    
   159   80  201 1    
   160   81  202 1    
   161   81  203 1    
   162   81  204 1    
   163   82   83 2    
   164   82   84 am   BACKBONE|DICT|INTERRES
   165   84   85 1    
   166   84  205 1    
   167   85   86 1    
   168   85   87 1    
   169   85  206 1    
   170   86  207 1    
   171   86  208 1    
   172   86  209 1    
   173   87   88 2    
   174   87   89 am   BACKBONE|DICT|INTERRES
   175   89   90 1    
   176   89  210 1    
   177   90   91 1    
   178   90   92 1    
   179   90  211 1    
   180   91  212 1    
   181   91  213 1    
   182   91  214 1    
   183   92   93 2    
   184   92   94 am   BACKBONE|DICT|INTERRES
   185   94   95 1    
   186   94  215 1    
   187   95   96 1    
   188   95   97 1    
   189   95  216 1    
   190   96  217 1    
   191   96  218 1    
   192   96  219 1    
   193   97   98 2    
   194   97   99 am   BACKBONE|DICT|INTERRES
   195   99  100 1    
   196   99  220 1    
   197  100  101 1    
   198  100  102 1    
   199  100  221 1    
   200  101  222 1    
   201  101  223 1    
   202  101  224 1    
   203  102  103 2    
   204  102  104 am   BACKBONE|DICT|INTERRES
   205  104  105 1    
   206  104  225 1    
   207  105  106 1    
   208  105  107 1    
   209  105  226 1    
   210  106  227 1    
   211  106  228 1    
   212  106  229 1    
   213  107  108 2    
   214  107  109 am   BACKBONE|DICT|INTERRES
   215  109  110 1    
   216  109  230 1    
   217  110  111 1    
   218  110  112 1    
   219  110  231 1    
   220  111  232 1    
   221  111  233 1    
   222  111  234 1    
   223  112  113 2    
   224  112  114 am   BACKBONE|DICT|INTERRES
   225  114  115 1    
   226  114  235 1    
   227  115  116 1    
   228  115  117 1    
   229  115  236 1    
   230  116  237 1    
   231  116  238 1    
   232  116  239 1    
   233  117  118 2    
   234  117  119 am   BACKBONE|DICT|INTERRES
   235  119  120 1    
   236  119  240 1    
   237  120  121 1    
   238  120  124 1    
   239  120  241 1    
   240  121  122 am   BACKBONE|DICT|INTERRES
   241  121  123 2    
   242  122  242 1    
   243  122  243 1    
   244  124  125 1    
   245  124  244 1    
   246  124  245 1    
   247  125  126 1    
   248  126  246 1    
   249  126  247 1    
@<TRIPOS>SUBSTRUCTURE
     1 UNK         1 GROUP             0       ****    0 ROOT    
