@<TRIPOS>MOLECULE
3R540
247   249    1
SMALL
USER_CHARGES


@<TRIPOS>ATOM
      1 CA         -2.9888  -11.4919  -46.9167 C.3       0 UNK        -0.1800 
      2 C          -1.4846  -11.3842  -46.7137 C.2       0 UNK         0.5000 
      3 O          -1.0245  -10.5157  -45.9713 O.2       0 UNK        -0.5000 
      4 N          -0.7146  -12.2566  -47.3751 N.am      1 UNK        -0.5000 
      5 CA          0.7512  -12.2712  -47.3586 C.3       1 UNK         0.1400 
      6 C6          1.3571  -12.9200  -48.6324 C.3       23 UNK        -0.0398 
      7 S7          0.6750  -12.2016  -50.1700 S.3       23 UNK        -0.2404 
      8 C8          0.3187  -13.6718  -51.1934 C.3       23 UNK        -0.0205 
      9 C9         -0.4649  -14.7628  -50.4703 C.ar      23 UNK        -0.0193 
     10 C10        -1.6879  -14.4855  -49.8516 C.ar      23 UNK        -0.1150 
     11 C11        -2.3952  -15.4937  -49.1872 C.ar      23 UNK        -0.0193 
     12 C12        -1.8778  -16.7922  -49.1585 C.ar      23 UNK        -0.1150 
     13 C13        -0.6609  -17.0837  -49.7832 C.ar      23 UNK        -0.0193 
     14 C14         0.0411  -16.0646  -50.4302 C.ar      23 UNK        -0.1150 
     15 C15        -0.1168  -18.5036  -49.8035 C.3       23 UNK        -0.0205 
     16 S16         1.1859  -18.7868  -48.5556 S.3       23 UNK        -0.2404 
     17 C17         0.2707  -18.7363  -46.9764 C.3       23 UNK        -0.0398 
     18 CA         -0.2261  -20.1336  -46.5274 C.3       11 UNK         0.1400 
     19 N          -0.5282  -20.1905  -45.0973 N.am      11 UNK        -0.5000 
     20 C          -0.8927  -21.2957  -44.4296 C.2       10 UNK         0.5000 
     21 O          -0.9208  -22.4223  -44.9242 O.2       10 UNK        -0.5000 
     22 CA         -1.3742  -21.0937  -42.9835 C.3       10 UNK         0.1400 
     23 CB         -0.1891  -21.0392  -42.0078 C.3       10 UNK        -0.1800 
     24 N          -2.1888  -19.8841  -42.8528 N.am      10 UNK        -0.5000 
     25 C          -3.4119  -19.7401  -43.3848 C.2       9 UNK         0.5000 
     26 O          -4.0009  -20.6333  -43.9927 O.2       9 UNK        -0.5000 
     27 CA         -4.0690  -18.3546  -43.2504 C.3       9 UNK         0.1400 
     28 CB         -4.7688  -18.2173  -41.8902 C.3       9 UNK        -0.1800 
     29 N          -3.1106  -17.2613  -43.4152 N.am      9 UNK        -0.5000 
     30 C          -2.5024  -16.9509  -44.5690 C.2       8 UNK         0.5000 
     31 O          -2.7177  -17.5294  -45.6336 O.2       8 UNK        -0.5000 
     32 CA         -1.4373  -15.8386  -44.5058 C.3       8 UNK         0.1400 
     33 CB         -2.0974  -14.4619  -44.6614 C.3       8 UNK        -0.1800 
     34 N          -0.6504  -15.8596  -43.2677 N.am      8 UNK        -0.5000 
     35 C           0.1151  -16.8866  -42.8772 C.2       7 UNK         0.5000 
     36 O           0.1999  -17.9472  -43.5031 O.2       7 UNK        -0.5000 
     37 CA          0.8440  -16.7375  -41.5336 C.3       7 UNK         0.1400 
     38 CB         -0.1663  -16.8418  -40.3719 C.3       7 UNK        -0.1800 
     39 N           1.8331  -17.8056  -41.4542 N.am      7 UNK        -0.5000 
     40 C           2.7486  -18.0174  -40.5021 C.2       6 UNK         0.5000 
     41 O           2.9097  -17.2849  -39.5255 O.2       6 UNK        -0.5000 
     42 CA          3.6320  -19.2725  -40.6623 C.3       6 UNK         0.1400 
     43 CB          3.0751  -20.4313  -39.8203 C.3       6 UNK        -0.1800 
     44 N           3.7368  -19.7058  -42.0583 N.am      6 UNK        -0.5000 
     45 C           4.5505  -19.1379  -42.9578 C.2       5 UNK         0.5000 
     46 O           5.4039  -18.2986  -42.6596 O.2       5 UNK        -0.5000 
     47 CA          4.3999  -19.5809  -44.4329 C.3       5 UNK         0.1400 
     48 CB          3.0428  -20.2509  -44.7486 C.3       5 UNK        -0.1800 
     49 N           4.6533  -18.4756  -45.3661 N.am      5 UNK        -0.5000 
     50 C           4.0112  -17.2985  -45.4037 C.2       4 UNK         0.5000 
     51 O           3.0415  -17.0148  -44.6980 O.2       4 UNK        -0.5000 
     52 CA          4.5437  -16.2666  -46.4109 C.3       4 UNK         0.1400 
     53 CB          3.6997  -16.2635  -47.6952 C.3       4 UNK        -0.1800 
     54 N           4.5169  -14.9352  -45.8105 N.am      4 UNK        -0.5000 
     55 C           5.5046  -14.4292  -45.0575 C.2       3 UNK         0.5000 
     56 O           6.5766  -15.0067  -44.8704 O.2       3 UNK        -0.5000 
     57 CA          5.2876  -13.0423  -44.4157 C.3       3 UNK         0.1400 
     58 CB          6.0406  -11.9620  -45.2081 C.3       3 UNK        -0.1800 
     59 N           3.8807  -12.6564  -44.3216 N.am      3 UNK        -0.5000 
     60 C           3.0040  -13.1569  -43.4412 C.2       2 UNK         0.5000 
     61 O           3.3106  -13.9331  -42.5365 O.2       2 UNK        -0.5000 
     62 CA          1.5308  -12.7273  -43.6024 C.3       2 UNK         0.1400 
     63 CB          1.1597  -11.6561  -42.5666 C.3       2 UNK        -0.1800 
     64 N           1.1706  -12.2410  -44.9399 N.am      2 UNK        -0.5000 
     65 C           1.2524  -12.9536  -46.0710 C.2       1 UNK         0.5000 
     66 O           1.6830  -14.1045  -46.1102 O.2       1 UNK        -0.5000 
     67 C          -1.4350  -20.5962  -47.3598 C.2       11 UNK         0.5000 
     68 O          -1.2877  -21.4978  -48.1815 O.2       11 UNK        -0.5000 
     69 N          -2.6108  -20.0017  -47.1095 N.am      12 UNK        -0.5000 
     70 CA         -3.8639  -20.3281  -47.7899 C.3       12 UNK         0.1400 
     71 CB         -4.9674  -19.3663  -47.3282 C.3       12 UNK        -0.1800 
     72 C          -4.2966  -21.7937  -47.6043 C.2       12 UNK         0.5000 
     73 O          -4.7753  -22.4006  -48.5599 O.2       12 UNK        -0.5000 
     74 N          -4.0870  -22.3444  -46.4006 N.am      13 UNK        -0.5000 
     75 CA         -4.3242  -23.7526  -46.0854 C.3       13 UNK         0.1400 
     76 CB         -4.2372  -23.9620  -44.5661 C.3       13 UNK        -0.1800 
     77 C          -3.3622  -24.7016  -46.8253 C.2       13 UNK         0.5000 
     78 O          -3.8031  -25.7345  -47.3282 O.2       13 UNK        -0.5000 
     79 N          -2.0745  -24.3366  -46.8954 N.am      14 UNK        -0.5000 
     80 CA         -1.0384  -25.0958  -47.5995 C.3       14 UNK         0.1400 
     81 CB          0.3461  -24.5727  -47.1862 C.3       14 UNK        -0.1800 
     82 C          -1.2028  -25.0510  -49.1307 C.2       14 UNK         0.5000 
     83 O          -1.0241  -26.0709  -49.7964 O.2       14 UNK        -0.5000 
     84 N          -1.5518  -23.8711  -49.6559 N.am      15 UNK        -0.5000 
     85 CA         -1.7545  -23.5971  -51.0779 C.3       15 UNK         0.1400 
     86 CB         -1.5184  -22.0971  -51.3214 C.3       15 UNK        -0.1800 
     87 C          -3.1369  -24.0248  -51.6073 C.2       15 UNK         0.5000 
     88 O          -3.3934  -23.8476  -52.8006 O.2       15 UNK        -0.5000 
     89 N          -4.0201  -24.5367  -50.7378 N.am      16 UNK        -0.5000 
     90 CA         -5.3742  -24.9868  -51.0667 C.3       16 UNK         0.1400 
     91 CB         -6.0691  -25.5046  -49.7995 C.3       16 UNK        -0.1800 
     92 C          -5.3663  -26.0623  -52.1668 C.2       16 UNK         0.5000 
     93 O          -4.6929  -27.0833  -52.0137 O.2       16 UNK        -0.5000 
     94 N          -6.0583  -25.7732  -53.2777 N.am      17 UNK        -0.5000 
     95 CA         -6.1251  -26.5188  -54.5445 C.3       17 UNK         0.1400 
     96 CB         -6.6926  -27.9361  -54.3384 C.3       17 UNK        -0.1800 
     97 C          -4.8023  -26.5593  -55.3418 C.2       17 UNK         0.5000 
     98 O          -4.8418  -26.4767  -56.5694 O.2       17 UNK        -0.5000 
     99 N          -3.6639  -26.6656  -54.6460 N.am      18 UNK        -0.5000 
    100 CA        -2.3119  -26.7264  -55.2015 C.3       18 UNK         0.1400 
    101 CB        -1.3249  -27.0562  -54.0709 C.3       18 UNK        -0.1800 
    102 C         -1.8842  -25.4387  -55.9290 C.2       18 UNK         0.5000 
    103 O         -1.2340  -25.5214  -56.9720 O.2       18 UNK        -0.5000 
    104 N         -2.2589  -24.2806  -55.3732 N.am      19 UNK        -0.5000 
    105 CA        -1.9506  -22.9536  -55.9071 C.3       19 UNK         0.1400 
    106 CB        -0.6060  -22.4632  -55.3373 C.3       19 UNK        -0.1800 
    107 C         -3.1135  -21.9694  -55.6733 C.2       19 UNK         0.5000 
    108 O         -2.8897  -20.7604  -55.6105 O.2       19 UNK        -0.5000 
    109 N         -4.3380  -22.5102  -55.5706 N.am      20 UNK        -0.5000 
    110 CA        -5.6166  -21.8052  -55.4148 C.3       20 UNK         0.1400 
    111 CB        -5.9434  -20.9852  -56.6807 C.3       20 UNK        -0.1800 
    112 C         -5.7306  -20.9753  -54.1165 C.2       20 UNK         0.5000 
    113 O         -6.3850  -19.9297  -54.1107 O.2       20 UNK        -0.5000 
    114 N         -5.1180  -21.4696  -53.0303 N.am      21 UNK        -0.5000 
    115 CA        -5.1134  -20.8800  -51.6876 C.3       21 UNK         0.1400 
    116 CB        -6.5194  -20.9809  -51.0492 C.3       21 UNK        -0.1800 
    117 C         -4.5174  -19.4550  -51.6895 C.2       21 UNK         0.5000 
    118 O         -3.3596  -19.2860  -52.0706 O.2       21 UNK        -0.5000 
    119 N         -5.3141  -18.4669  -51.2692 N.am      22 UNK        -0.5000 
    120 CA        -4.9949  -17.0325  -51.3199 C.3       22 UNK         0.1400 
    121 C         -5.2536  -16.3808  -52.7164 C.2       22 UNK         0.5000 
    122 N         -5.7847  -17.0893  -53.7071 N.am      22 UNK        -0.7600 
    123 O         -4.9531  -15.2090  -52.9227 O.2       22 UNK        -0.5000 
    124 C124       -5.7234  -16.2988  -50.1608 C.3       23 UNK        -0.0398 
    125 S125       -5.0069  -14.6900  -49.6794 S.3       23 UNK        -0.2404 
    126 C126       -3.7106  -15.1707  -48.4938 C.3       23 UNK        -0.0205 
    127 H127       -3.4452  -12.0348  -46.0895 H         1 UNK         0.0600 
    128 H128       -3.4348  -10.4983  -46.9595 H         1 UNK         0.0600 
    129 H129       -3.2308  -12.0043  -47.8476 H         1 UNK         0.0600 
    130 H130       -1.1412  -12.9587  -47.9614 H         1 UNK         0.3000 
    131 H131        1.1033  -11.2373  -47.3354 H         1 UNK         0.0600 
    132 H132        2.4390  -12.7792  -48.6460 H         1 UNK         0.0800 
    133 H133        1.2020  -13.9990  -48.6260 H         1 UNK         0.0800 
    134 H134        1.2667  -14.0637  -51.5652 H         1 UNK         0.0800 
    135 H135       -0.2467  -13.3587  -52.0719 H         1 UNK         0.0800 
    136 H136       -2.0918  -13.4835  -49.8913 H         1 UNK         0.1150 
    137 H137       -2.4258  -17.5771  -48.6570 H         1 UNK         0.1150 
    138 H138        0.9820  -16.2928  -50.9113 H         1 UNK         0.1150 
    139 H139       -0.9275  -19.2220  -49.6919 H         1 UNK         0.0800 
    140 H140        0.3078  -18.7046  -50.7881 H         1 UNK         0.0800 
    141 H141       -0.5392  -18.0102  -47.0301 H         1 UNK         0.0800 
    142 H142        0.9628  -18.3388  -46.2326 H         1 UNK         0.0800 
    143 H143        0.5803  -20.8506  -46.6962 H         1 UNK         0.0600 
    144 H144       -0.4741  -19.3137  -44.5849 H         1 UNK         0.3000 
    145 H145       -1.9944  -21.9512  -42.7139 H         1 UNK         0.0600 
    146 H146       -0.5282  -20.9055  -40.9806 H         1 UNK         0.0600 
    147 H147        0.3837  -21.9668  -42.0431 H         1 UNK         0.0600 
    148 H148        0.4952  -20.2263  -42.2437 H         1 UNK         0.0600 
    149 H149       -1.7510  -19.0862  -42.4185 H         1 UNK         0.3000 
    150 H150       -4.8248  -18.2664  -44.0337 H         1 UNK         0.0600 
    151 H151       -5.5024  -19.0119  -41.7475 H         1 UNK         0.0600 
    152 H152       -5.3005  -17.2686  -41.8148 H         1 UNK         0.0600 
    153 H153       -4.0600  -18.2721  -41.0630 H         1 UNK         0.0600 
    154 H154       -2.8759  -16.7310  -42.5896 H         1 UNK         0.3000 
    155 H155       -0.7484  -15.9868  -45.3407 H         1 UNK         0.0600 
    156 H156       -2.8045  -14.2579  -43.8565 H         1 UNK         0.0600 
    157 H157       -1.3560  -13.6646  -44.6626 H         1 UNK         0.0600 
    158 H158       -2.6437  -14.3995  -45.6020 H         1 UNK         0.0600 
    159 H159       -0.7088  -15.0395  -42.6830 H         1 UNK         0.3000 
    160 H160        1.3563  -15.7741  -41.5106 H         1 UNK         0.0600 
    161 H161       -0.6574  -17.8156  -40.3546 H         1 UNK         0.0600 
    162 H162       -0.9444  -16.0821  -40.4524 H         1 UNK         0.0600 
    163 H163        0.3151  -16.6955  -39.4054 H         1 UNK         0.0600 
    164 H164        1.8088  -18.4156  -42.2617 H         1 UNK         0.3000 
    165 H165        4.6278  -19.0296  -40.2851 H         1 UNK         0.0600 
    166 H166        3.7149  -21.3113  -39.8879 H         1 UNK         0.0600 
    167 H167        3.0161  -20.1538  -38.7671 H         1 UNK         0.0600 
    168 H168        2.0729  -20.7186  -40.1389 H         1 UNK         0.0600 
    169 H169        3.0891  -20.4158  -42.3657 H         1 UNK         0.3000 
    170 H170        5.1841  -20.3178  -44.6115 H         1 UNK         0.0600 
    171 H171        2.9241  -21.1921  -44.2111 H         1 UNK         0.0600 
    172 H172        2.2042  -19.6074  -44.4837 H         1 UNK         0.0600 
    173 H173        2.9586  -20.4806  -45.8109 H         1 UNK         0.0600 
    174 H174        5.4530  -18.6008  -45.9702 H         1 UNK         0.3000 
    175 H175        5.5703  -16.5207  -46.6832 H         1 UNK         0.0600 
    176 H176        2.6382  -16.1287  -47.4844 H         1 UNK         0.0600 
    177 H177        4.0103  -15.4699  -48.3748 H         1 UNK         0.0600 
    178 H178        3.8067  -17.2087  -48.2279 H         1 UNK         0.0600 
    179 H179        3.6181  -14.4647  -45.8388 H         1 UNK         0.3000 
    180 H180        5.7052  -13.0786  -43.4073 H         1 UNK         0.0600 
    181 H181        5.6617  -11.8727  -46.2271 H         1 UNK         0.0600 
    182 H182        7.1043  -12.1947  -45.2730 H         1 UNK         0.0600 
    183 H183        5.9520  -10.9867  -44.7290 H         1 UNK         0.0600 
    184 H184        3.5392  -12.0122  -45.0189 H         1 UNK         0.3000 
    185 H185        0.9251  -13.6118  -43.4063 H         1 UNK         0.0600 
    186 H186        1.3806  -11.9959  -41.5538 H         1 UNK         0.0600 
    187 H187        1.7135  -10.7310  -42.7312 H         1 UNK         0.0600 
    188 H188        0.0955  -11.4223  -42.6047 H         1 UNK         0.0600 
    189 H189        0.7349  -11.3272  -44.9907 H         1 UNK         0.3000 
    190 H190       -2.6475  -19.2434  -46.4325 H         1 UNK         0.3000 
    191 H191       -3.7004  -20.1678  -48.8569 H         1 UNK         0.0600 
    192 H192       -5.1651  -19.4657  -46.2608 H         1 UNK         0.0600 
    193 H193       -5.9024  -19.5586  -47.8550 H         1 UNK         0.0600 
    194 H194       -4.6919  -18.3303  -47.5204 H         1 UNK         0.0600 
    195 H195       -3.7508  -21.7563  -45.6449 H         1 UNK         0.3000 
    196 H196       -5.3400  -23.9992  -46.4017 H         1 UNK         0.0600 
    197 H197       -4.4346  -25.0019  -44.3031 H         1 UNK         0.0600 
    198 H198       -4.9701  -23.3486  -44.0417 H         1 UNK         0.0600 
    199 H199       -3.2504  -23.7065  -44.1795 H         1 UNK         0.0600 
    200 H200       -1.7755  -23.4890  -46.4230 H         1 UNK         0.3000 
    201 H201       -1.1113  -26.1398  -47.2878 H         1 UNK         0.0600 
    202 H202        0.5004  -24.6750  -46.1119 H         1 UNK         0.0600 
    203 H203        0.4726  -23.5200  -47.4415 H         1 UNK         0.0600 
    204 H204        1.1401  -25.1303  -47.6843 H         1 UNK         0.0600 
    205 H205       -1.6194  -23.0672  -49.0332 H         1 UNK         0.3000 
    206 H206       -1.0123  -24.1522  -51.6550 H         1 UNK         0.0600 
    207 H207       -1.7373  -21.8106  -52.3498 H         1 UNK         0.0600 
    208 H208       -2.1485  -21.4828  -50.6794 H         1 UNK         0.0600 
    209 H209       -0.4820  -21.8254  -51.1206 H         1 UNK         0.0600 
    210 H210       -3.7391  -24.6297  -49.7721 H         1 UNK         0.3000 
    211 H211       -5.9264  -24.1178  -51.4259 H         1 UNK         0.0600 
    212 H212       -5.5465  -26.3645  -49.3787 H         1 UNK         0.0600 
    213 H213       -7.0924  -25.8147  -50.0140 H         1 UNK         0.0600 
    214 H214       -6.1178  -24.7334  -49.0308 H         1 UNK         0.0600 
    215 H215       -6.5573  -24.8953  -53.2911 H         1 UNK         0.3000 
    216 H216       -6.8385  -25.9730  -55.1641 H         1 UNK         0.0600 
    217 H217       -6.8546  -28.4313  -55.2965 H         1 UNK         0.0600 
    218 H218       -7.6521  -27.9056  -53.8223 H         1 UNK         0.0600 
    219 H219       -6.0190  -28.5675  -53.7586 H         1 UNK         0.0600 
    220 H220       -3.7503  -26.7609  -53.6384 H         1 UNK         0.3000 
    221 H221       -2.2866  -27.5416  -55.9275 H         1 UNK         0.0600 
    222 H222       -1.3378  -26.2947  -53.2899 H         1 UNK         0.0600 
    223 H223       -1.5630  -28.0135  -53.6068 H         1 UNK         0.0600 
    224 H224       -0.3039  -27.1233  -54.4489 H         1 UNK         0.0600 
    225 H225       -2.7598  -24.2923  -54.4866 H         1 UNK         0.3000 
    226 H226       -1.8492  -23.0191  -56.9923 H         1 UNK         0.0600 
    227 H227        0.2056  -23.1355  -55.6158 H         1 UNK         0.0600 
    228 H228       -0.3479  -21.4746  -55.7184 H         1 UNK         0.0600 
    229 H229       -0.6283  -22.4047  -54.2504 H         1 UNK         0.0600 
    230 H230       -4.4009  -23.5149  -55.6487 H         1 UNK         0.3000 
    231 H231       -6.3764  -22.5833  -55.3308 H         1 UNK         0.0600 
    232 H232       -6.9567  -20.5843  -56.6377 H         1 UNK         0.0600 
    233 H233       -5.8786  -21.6010  -57.5777 H         1 UNK         0.0600 
    234 H234       -5.2640  -20.1411  -56.8027 H         1 UNK         0.0600 
    235 H235       -4.5462  -22.3010  -53.1436 H         1 UNK         0.3000 
    236 H236       -4.4432  -21.4869  -51.0821 H         1 UNK         0.0600 
    237 H237       -6.8600  -22.0147  -51.0170 H         1 UNK         0.0600 
    238 H238       -6.5111  -20.6247  -50.0188 H         1 UNK         0.0600 
    239 H239       -7.2690  -20.4084  -51.5960 H         1 UNK         0.0600 
    240 H240       -6.2627  -18.6981  -51.0132 H         1 UNK         0.3000 
    241 H241       -3.9223  -16.9338  -51.1492 H         1 UNK         0.0600 
    242 H242       -5.9339  -16.6427  -54.5974 H         1 UNK         0.3800 
    243 H243       -6.0064  -18.0754  -53.6078 H         1 UNK         0.3800 
    244 H244       -6.7728  -16.1421  -50.4156 H         1 UNK         0.0800 
    245 H245       -5.7357  -16.9263  -49.2691 H         1 UNK         0.0800 
    246 H246       -3.5480  -14.3414  -47.8074 H         1 UNK         0.0800 
    247 H247       -4.0490  -16.0042  -47.8770 H         1 UNK         0.0800 
@<TRIPOS>BOND
     1    1    2 1    
     2    1  127 1    
     3    1  128 1    
     4    1  129 1    
     5    2    3 2    
     6    2    4 am   BACKBONE|DICT|INTERRES
     7    4    5 1    
     8    4  130 1    
     9    5    6 1    
    10    5   65 1    
    11    5  131 1    
    12    6    7 1    
    13    6  132 1    
    14    6  133 1    
    15    7    8 1    
    16    8    9 1    
    17    8  134 1    
    18    8  135 1    
    19    9   10 ar   
    20    9   14 ar   
    21   10   11 ar   
    22   10  136 1    
    23   11   12 ar   
    24   11  126 1    
    25   12   13 ar   
    26   12  137 1    
    27   13   14 ar   
    28   13   15 1    
    29   14  138 1    
    30   15   16 1    
    31   15  139 1    
    32   15  140 1    
    33   16   17 1    
    34   17   18 1    
    35   17  141 1    
    36   17  142 1    
    37   18   19 1    
    38   18   67 1    
    39   18  143 1    
    40   19   20 am   BACKBONE|DICT|INTERRES
    41   19  144 1    
    42   20   21 2    
    43   20   22 1    
    44   22   23 1    
    45   22   24 1    
    46   22  145 1    
    47   23  146 1    
    48   23  147 1    
    49   23  148 1    
    50   24   25 am   BACKBONE|DICT|INTERRES
    51   24  149 1    
    52   25   26 2    
    53   25   27 1    
    54   27   28 1    
    55   27   29 1    
    56   27  150 1    
    57   28  151 1    
    58   28  152 1    
    59   28  153 1    
    60   29   30 am   BACKBONE|DICT|INTERRES
    61   29  154 1    
    62   30   31 2    
    63   30   32 1    
    64   32   33 1    
    65   32   34 1    
    66   32  155 1    
    67   33  156 1    
    68   33  157 1    
    69   33  158 1    
    70   34   35 am   BACKBONE|DICT|INTERRES
    71   34  159 1    
    72   35   36 2    
    73   35   37 1    
    74   37   38 1    
    75   37   39 1    
    76   37  160 1    
    77   38  161 1    
    78   38  162 1    
    79   38  163 1    
    80   39   40 am   BACKBONE|DICT|INTERRES
    81   39  164 1    
    82   40   41 2    
    83   40   42 1    
    84   42   43 1    
    85   42   44 1    
    86   42  165 1    
    87   43  166 1    
    88   43  167 1    
    89   43  168 1    
    90   44   45 am   BACKBONE|DICT|INTERRES
    91   44  169 1    
    92   45   46 2    
    93   45   47 1    
    94   47   48 1    
    95   47   49 1    
    96   47  170 1    
    97   48  171 1    
    98   48  172 1    
    99   48  173 1    
   100   49   50 am   BACKBONE|DICT|INTERRES
   101   49  174 1    
   102   50   51 2    
   103   50   52 1    
   104   52   53 1    
   105   52   54 1    
   106   52  175 1    
   107   53  176 1    
   108   53  177 1    
   109   53  178 1    
   110   54   55 am   BACKBONE|DICT|INTERRES
   111   54  179 1    
   112   55   56 2    
   113   55   57 1    
   114   57   58 1    
   115   57   59 1    
   116   57  180 1    
   117   58  181 1    
   118   58  182 1    
   119   58  183 1    
   120   59   60 am   BACKBONE|DICT|INTERRES
   121   59  184 1    
   122   60   61 2    
   123   60   62 1    
   124   62   63 1    
   125   62   64 1    
   126   62  185 1    
   127   63  186 1    
   128   63  187 1    
   129   63  188 1    
   130   64   65 am   BACKBONE|DICT|INTERRES
   131   64  189 1    
   132   65   66 2    
   133   67   68 2    
   134   67   69 am   BACKBONE|DICT|INTERRES
   135   69   70 1    
   136   69  190 1    
   137   70   71 1    
   138   70   72 1    
   139   70  191 1    
   140   71  192 1    
   141   71  193 1    
   142   71  194 1    
   143   72   73 2    
   144   72   74 am   BACKBONE|DICT|INTERRES
   145   74   75 1    
   146   74  195 1    
   147   75   76 1    
   148   75   77 1    
   149   75  196 1    
   150   76  197 1    
   151   76  198 1    
   152   76  199 1    
   153   77   78 2    
   154   77   79 am   BACKBONE|DICT|INTERRES
   155   79   80 1    
   156   79  200 1    
   157   80   81 1    
   158   80   82 1    
   159   80  201 1    
   160   81  202 1    
   161   81  203 1    
   162   81  204 1    
   163   82   83 2    
   164   82   84 am   BACKBONE|DICT|INTERRES
   165   84   85 1    
   166   84  205 1    
   167   85   86 1    
   168   85   87 1    
   169   85  206 1    
   170   86  207 1    
   171   86  208 1    
   172   86  209 1    
   173   87   88 2    
   174   87   89 am   BACKBONE|DICT|INTERRES
   175   89   90 1    
   176   89  210 1    
   177   90   91 1    
   178   90   92 1    
   179   90  211 1    
   180   91  212 1    
   181   91  213 1    
   182   91  214 1    
   183   92   93 2    
   184   92   94 am   BACKBONE|DICT|INTERRES
   185   94   95 1    
   186   94  215 1    
   187   95   96 1    
   188   95   97 1    
   189   95  216 1    
   190   96  217 1    
   191   96  218 1    
   192   96  219 1    
   193   97   98 2    
   194   97   99 am   BACKBONE|DICT|INTERRES
   195   99  100 1    
   196   99  220 1    
   197  100  101 1    
   198  100  102 1    
   199  100  221 1    
   200  101  222 1    
   201  101  223 1    
   202  101  224 1    
   203  102  103 2    
   204  102  104 am   BACKBONE|DICT|INTERRES
   205  104  105 1    
   206  104  225 1    
   207  105  106 1    
   208  105  107 1    
   209  105  226 1    
   210  106  227 1    
   211  106  228 1    
   212  106  229 1    
   213  107  108 2    
   214  107  109 am   BACKBONE|DICT|INTERRES
   215  109  110 1    
   216  109  230 1    
   217  110  111 1    
   218  110  112 1    
   219  110  231 1    
   220  111  232 1    
   221  111  233 1    
   222  111  234 1    
   223  112  113 2    
   224  112  114 am   BACKBONE|DICT|INTERRES
   225  114  115 1    
   226  114  235 1    
   227  115  116 1    
   228  115  117 1    
   229  115  236 1    
   230  116  237 1    
   231  116  238 1    
   232  116  239 1    
   233  117  118 2    
   234  117  119 am   BACKBONE|DICT|INTERRES
   235  119  120 1    
   236  119  240 1    
   237  120  121 1    
   238  120  124 1    
   239  120  241 1    
   240  121  122 am   BACKBONE|DICT|INTERRES
   241  121  123 2    
   242  122  242 1    
   243  122  243 1    
   244  124  125 1    
   245  124  244 1    
   246  124  245 1    
   247  125  126 1    
   248  126  246 1    
   249  126  247 1    
@<TRIPOS>SUBSTRUCTURE
     1 UNK         1 GROUP             0       ****    0 ROOT    
