@<TRIPOS>MOLECULE
3R540
247   249    1
SMALL
USER_CHARGES


@<TRIPOS>ATOM
      1 CA          4.8518  -13.6722  -47.3894 C.3       0 UNK        -0.1800 
      2 C           4.0867  -12.9330  -46.3025 C.2       0 UNK         0.5000 
      3 O           4.6047  -12.7559  -45.2006 O.2       0 UNK        -0.5000 
      4 N           2.8638  -12.4818  -46.6125 N.am      1 UNK        -0.5000 
      5 CA          1.9322  -11.8284  -45.6794 C.3       1 UNK         0.1400 
      6 C6          0.5259  -11.6347  -46.2909 C.3       23 UNK        -0.0398 
      7 S7         -0.2792  -13.2253  -46.6777 S.3       23 UNK        -0.2404 
      8 C8         -0.0080  -13.3167  -48.4712 C.3       23 UNK        -0.0205 
      9 C9         -0.6664  -14.5424  -49.0814 C.ar      23 UNK        -0.0193 
     10 C10        -1.9659  -14.4565  -49.5850 C.ar      23 UNK        -0.1150 
     11 C11        -2.5489  -15.5523  -50.2235 C.ar      23 UNK        -0.0193 
     12 C12        -1.8267  -16.7423  -50.3470 C.ar      23 UNK        -0.1150 
     13 C13        -0.5344  -16.8589  -49.8169 C.ar      23 UNK        -0.0193 
     14 C14         0.0362  -15.7468  -49.1878 C.ar      23 UNK        -0.1150 
     15 C15         0.2984  -18.1405  -49.9272 C.3       23 UNK        -0.0205 
     16 S16        -0.5930  -19.6477  -50.4545 S.3       23 UNK        -0.2404 
     17 C17        -1.7863  -19.8926  -49.0974 C.3       23 UNK        -0.0398 
     18 CA         -1.6036  -21.2620  -48.3851 C.3       11 UNK         0.1400 
     19 N          -0.9528  -21.1311  -47.0756 N.am      11 UNK        -0.5000 
     20 C          -0.5795  -22.1590  -46.2982 C.2       10 UNK         0.5000 
     21 O          -0.6709  -23.3385  -46.6346 O.2       10 UNK        -0.5000 
     22 CA         -0.0907  -21.8203  -44.8780 C.3       10 UNK         0.1400 
     23 CB          1.3807  -21.3809  -44.8842 C.3       10 UNK        -0.1800 
     24 N          -0.9175  -20.7949  -44.2412 N.am      10 UNK        -0.5000 
     25 C          -2.2144  -20.9463  -43.9382 C.2       9 UNK         0.5000 
     26 O          -2.8271  -22.0022  -44.0867 O.2       9 UNK        -0.5000 
     27 CA         -2.9696  -19.6998  -43.4423 C.3       9 UNK         0.1400 
     28 CB         -2.8072  -19.5172  -41.9258 C.3       9 UNK        -0.1800 
     29 N          -2.5508  -18.4838  -44.1412 N.am      9 UNK        -0.5000 
     30 C          -2.7852  -18.2380  -45.4387 C.2       8 UNK         0.5000 
     31 O          -3.4218  -18.9941  -46.1724 O.2       8 UNK        -0.5000 
     32 CA         -2.1590  -16.9581  -46.0220 C.3       8 UNK         0.1400 
     33 CB         -3.0674  -15.7472  -45.7675 C.3       8 UNK        -0.1800 
     34 N          -0.8188  -16.7066  -45.4849 N.am      8 UNK        -0.5000 
     35 C           0.2436  -17.4810  -45.7550 C.2       7 UNK         0.5000 
     36 O           0.1930  -18.4594  -46.4994 O.2       7 UNK        -0.5000 
     37 CA          1.5647  -17.1617  -45.0246 C.3       7 UNK         0.1400 
     38 CB          2.3511  -16.0754  -45.7701 C.3       7 UNK        -0.1800 
     39 N           1.3700  -16.7512  -43.6332 N.am      7 UNK        -0.5000 
     40 C           0.7625  -17.4983  -42.6985 C.2       6 UNK         0.5000 
     41 O           0.4160  -18.6620  -42.8921 O.2       6 UNK        -0.5000 
     42 CA          0.4366  -16.8440  -41.3392 C.3       6 UNK         0.1400 
     43 CB          1.4122  -17.3385  -40.2611 C.3       6 UNK        -0.1800 
     44 N           0.4533  -15.3810  -41.3532 N.am      6 UNK        -0.5000 
     45 C          -0.2813  -14.5810  -42.1395 C.2       5 UNK         0.5000 
     46 O          -1.1625  -14.9910  -42.8957 O.2       5 UNK        -0.5000 
     47 CA          0.0745  -13.0794  -42.1253 C.3       5 UNK         0.1400 
     48 CB         -0.9811  -12.2844  -41.3433 C.3       5 UNK        -0.1800 
     49 N           1.4054  -12.7702  -41.5808 N.am      5 UNK        -0.5000 
     50 C           2.5736  -13.2123  -42.0681 C.2       4 UNK         0.5000 
     51 O           2.6678  -13.9887  -43.0203 O.2       4 UNK        -0.5000 
     52 CA          3.8406  -12.7607  -41.3361 C.3       4 UNK         0.1400 
     53 CB          4.5146  -13.9502  -40.6272 C.3       4 UNK        -0.1800 
     54 N           4.7549  -12.1519  -42.2957 N.am      4 UNK        -0.5000 
     55 C           5.7364  -11.2987  -41.9754 C.2       3 UNK         0.5000 
     56 O           5.9981  -10.9583  -40.8207 O.2       3 UNK        -0.5000 
     57 CA          6.5427  -10.6981  -43.1375 C.3       3 UNK         0.1400 
     58 CB          7.5258  -11.7256  -43.7218 C.3       3 UNK        -0.1800 
     59 N           5.6491  -10.2123  -44.1869 N.am      3 UNK        -0.5000 
     60 C           5.1296   -8.9765  -44.2266 C.2       2 UNK         0.5000 
     61 O           5.4139   -8.0904  -43.4196 O.2       2 UNK        -0.5000 
     62 CA          4.1215   -8.6679  -45.3527 C.3       2 UNK         0.1400 
     63 CB          4.8358   -8.0256  -46.5517 C.3       2 UNK        -0.1800 
     64 N           3.3938   -9.8510  -45.8116 N.am      2 UNK        -0.5000 
     65 C           2.4656  -10.5019  -45.0963 C.2       1 UNK         0.5000 
     66 O           2.0500  -10.1127  -44.0046 O.2       1 UNK        -0.5000 
     67 C          -2.9463  -22.0183  -48.2897 C.2       11 UNK         0.5000 
     68 O          -3.2055  -22.8852  -49.1213 O.2       11 UNK        -0.5000 
     69 N          -3.7618  -21.6935  -47.2753 N.am      12 UNK        -0.5000 
     70 CA         -5.0365  -22.3559  -46.9899 C.3       12 UNK         0.1400 
     71 CB         -5.8110  -21.5554  -45.9328 C.3       12 UNK        -0.1800 
     72 C          -4.8747  -23.8273  -46.5641 C.2       12 UNK         0.5000 
     73 O          -5.6728  -24.6683  -46.9778 O.2       12 UNK        -0.5000 
     74 N          -3.8435  -24.1196  -45.7613 N.am      13 UNK        -0.5000 
     75 CA         -3.4942  -25.4710  -45.3235 C.3       13 UNK         0.1400 
     76 CB         -2.4698  -25.3900  -44.1814 C.3       13 UNK        -0.1800 
     77 C          -2.9618  -26.3456  -46.4739 C.2       13 UNK         0.5000 
     78 O          -3.3441  -27.5110  -46.5808 O.2       13 UNK        -0.5000 
     79 N          -2.1081  -25.7625  -47.3238 N.am      14 UNK        -0.5000 
     80 CA         -1.4590  -26.4175  -48.4592 C.3       14 UNK         0.1400 
     81 CB          0.0005  -25.9339  -48.5372 C.3       14 UNK        -0.1800 
     82 C          -2.2054  -26.1783  -49.7867 C.2       14 UNK         0.5000 
     83 O          -1.5685  -26.1860  -50.8406 O.2       14 UNK        -0.5000 
     84 N          -3.5320  -25.9855  -49.7365 N.am      15 UNK        -0.5000 
     85 CA         -4.3857  -25.5918  -50.8671 C.3       15 UNK         0.1400 
     86 CB         -5.8139  -25.3470  -50.3597 C.3       15 UNK        -0.1800 
     87 C          -4.4077  -26.5635  -52.0673 C.2       15 UNK         0.5000 
     88 O          -4.8291  -26.1692  -53.1560 O.2       15 UNK        -0.5000 
     89 N          -3.9663  -27.8105  -51.8589 N.am      16 UNK        -0.5000 
     90 CA         -3.7793  -28.8084  -52.9119 C.3       16 UNK         0.1400 
     91 CB         -3.7550  -30.2061  -52.2747 C.3       16 UNK        -0.1800 
     92 C          -2.4974  -28.5717  -53.7365 C.2       16 UNK         0.5000 
     93 O          -2.4662  -28.9315  -54.9138 O.2       16 UNK        -0.5000 
     94 N          -1.4677  -27.9850  -53.1106 N.am      17 UNK        -0.5000 
     95 CA         -0.1848  -27.6565  -53.7321 C.3       17 UNK         0.1400 
     96 CB          0.9499  -27.9099  -52.7260 C.3       17 UNK        -0.1800 
     97 C          -0.1859  -26.1960  -54.2056 C.2       17 UNK         0.5000 
     98 O           0.1148  -25.9250  -55.3689 O.2       17 UNK        -0.5000 
     99 N          -0.5812  -25.2848  -53.3083 N.am      18 UNK        -0.5000 
    100 CA        -0.8687  -23.8834  -53.5926 C.3       18 UNK         0.1400 
    101 CB        -0.6343  -23.0604  -52.3119 C.3       18 UNK        -0.1800 
    102 C         -2.3191  -23.7955  -54.0932 C.2       18 UNK         0.5000 
    103 O         -3.2022  -23.4226  -53.3244 O.2       18 UNK        -0.5000 
    104 N         -2.5269  -24.2330  -55.3435 N.am      19 UNK        -0.5000 
    105 CA        -3.8006  -24.5329  -56.0062 C.3       19 UNK         0.1400 
    106 CB        -3.5539  -24.6285  -57.5211 C.3       19 UNK        -0.1800 
    107 C         -4.9615  -23.5661  -55.6913 C.2       19 UNK         0.5000 
    108 O         -5.0071  -22.4611  -56.2351 O.2       19 UNK        -0.5000 
    109 N         -5.8648  -24.0224  -54.8126 N.am      20 UNK        -0.5000 
    110 CA        -7.0748  -23.3491  -54.3261 C.3       20 UNK         0.1400 
    111 CB        -8.0441  -23.0289  -55.4837 C.3       20 UNK        -0.1800 
    112 C         -6.8061  -22.1299  -53.4173 C.2       20 UNK         0.5000 
    113 O         -7.7058  -21.3084  -53.2234 O.2       20 UNK        -0.5000 
    114 N         -5.5964  -22.0492  -52.8443 N.am      21 UNK        -0.5000 
    115 CA        -5.1213  -21.0347  -51.9032 C.3       21 UNK         0.1400 
    116 CB        -5.8171  -21.2229  -50.5379 C.3       21 UNK        -0.1800 
    117 C         -5.2466  -19.6131  -52.4867 C.2       21 UNK         0.5000 
    118 O         -4.6169  -19.3205  -53.5046 O.2       21 UNK        -0.5000 
    119 N         -6.0597  -18.7686  -51.8445 N.am      22 UNK        -0.5000 
    120 CA        -6.3806  -17.4028  -52.2815 C.3       22 UNK         0.1400 
    121 C         -7.5955  -17.3228  -53.2535 C.2       22 UNK         0.5000 
    122 N         -8.2289  -18.4254  -53.6386 N.am      22 UNK        -0.7600 
    123 O         -7.9682  -16.2333  -53.6804 O.2       22 UNK        -0.5000 
    124 C124       -6.5490  -16.4370  -51.0763 C.3       23 UNK        -0.0398 
    125 S125       -5.1373  -16.4743  -49.9168 S.3       23 UNK        -0.2404 
    126 C126       -3.9414  -15.4453  -50.8215 C.3       23 UNK        -0.0205 
    127 H127        4.2697  -13.7611  -48.3069 H         1 UNK         0.0600 
    128 H128        5.1049  -14.6762  -47.0489 H         1 UNK         0.0600 
    129 H129        5.7776  -13.1455  -47.6204 H         1 UNK         0.0600 
    130 H130        2.5042  -12.6455  -47.5402 H         1 UNK         0.3000 
    131 H131        1.8183  -12.5036  -44.8345 H         1 UNK         0.0600 
    132 H132       -0.1272  -11.1147  -45.5873 H         1 UNK         0.0800 
    133 H133        0.5709  -11.0058  -47.1816 H         1 UNK         0.0800 
    134 H134        1.0612  -13.3331  -48.6825 H         1 UNK         0.0800 
    135 H135       -0.4007  -12.4147  -48.9433 H         1 UNK         0.0800 
    136 H136       -2.5125  -13.5276  -49.5016 H         1 UNK         0.1150 
    137 H137       -2.2886  -17.5712  -50.8624 H         1 UNK         0.1150 
    138 H138        1.0403  -15.8132  -48.7933 H         1 UNK         0.1150 
    139 H139        1.0996  -17.9594  -50.6445 H         1 UNK         0.0800 
    140 H140        0.7874  -18.3450  -48.9753 H         1 UNK         0.0800 
    141 H141       -2.7775  -19.7856  -49.5432 H         1 UNK         0.0800 
    142 H142       -1.7110  -19.0708  -48.3861 H         1 UNK         0.0800 
    143 H143       -0.9517  -21.8955  -48.9911 H         1 UNK         0.0600 
    144 H144       -0.7835  -20.1869  -46.7433 H         1 UNK         0.3000 
    145 H145       -0.1673  -22.7274  -44.2750 H         1 UNK         0.0600 
    146 H146        1.5359  -20.4875  -45.4878 H         1 UNK         0.0600 
    147 H147        1.7327  -21.1674  -43.8748 H         1 UNK         0.0600 
    148 H148        2.0178  -22.1658  -45.2933 H         1 UNK         0.0600 
    149 H149       -0.4638  -19.9152  -44.0105 H         1 UNK         0.3000 
    150 H150       -4.0310  -19.8519  -43.6479 H         1 UNK         0.0600 
    151 H151       -3.1912  -20.3860  -41.3898 H         1 UNK         0.0600 
    152 H152       -3.3592  -18.6468  -41.5708 H         1 UNK         0.0600 
    153 H153       -1.7638  -19.3946  -41.6375 H         1 UNK         0.0600 
    154 H154       -1.9897  -17.8256  -43.6209 H         1 UNK         0.3000 
    155 H155       -2.0741  -17.0869  -47.1029 H         1 UNK         0.0600 
    156 H156       -3.1599  -15.5251  -44.7040 H         1 UNK         0.0600 
    157 H157       -2.6864  -14.8574  -46.2667 H         1 UNK         0.0600 
    158 H158       -4.0708  -15.9262  -46.1560 H         1 UNK         0.0600 
    159 H159       -0.7261  -15.9441  -44.8245 H         1 UNK         0.3000 
    160 H160        2.1664  -18.0725  -45.0183 H         1 UNK         0.0600 
    161 H161        2.5227  -16.3557  -46.8098 H         1 UNK         0.0600 
    162 H162        3.3258  -15.9103  -45.3105 H         1 UNK         0.0600 
    163 H163        1.8185  -15.1249  -45.7663 H         1 UNK         0.0600 
    164 H164        1.6653  -15.8107  -43.3933 H         1 UNK         0.3000 
    165 H165       -0.5718  -17.1579  -41.0632 H         1 UNK         0.0600 
    166 H166        1.1405  -16.9572  -39.2766 H         1 UNK         0.0600 
    167 H167        1.4069  -18.4277  -40.1982 H         1 UNK         0.0600 
    168 H168        2.4359  -17.0266  -40.4728 H         1 UNK         0.0600 
    169 H169        1.1533  -14.9412  -40.7753 H         1 UNK         0.3000 
    170 H170        0.0554  -12.7394  -43.1624 H         1 UNK         0.0600 
    171 H171       -1.9812  -12.4663  -41.7396 H         1 UNK         0.0600 
    172 H172       -0.9910  -12.5590  -40.2878 H         1 UNK         0.0600 
    173 H173       -0.7977  -11.2119  -41.4114 H         1 UNK         0.0600 
    174 H174        1.4194  -12.1454  -40.7873 H         1 UNK         0.3000 
    175 H175        3.5640  -12.0144  -40.5881 H         1 UNK         0.0600 
    176 H176        4.8472  -14.7051  -41.3409 H         1 UNK         0.0600 
    177 H177        5.3827  -13.6308  -40.0507 H         1 UNK         0.0600 
    178 H178        3.8261  -14.4339  -39.9333 H         1 UNK         0.0600 
    179 H179        4.5991  -12.4013  -43.2705 H         1 UNK         0.3000 
    180 H180        7.1323   -9.8665  -42.7455 H         1 UNK         0.0600 
    181 H181        7.0155  -12.6047  -44.1156 H         1 UNK         0.0600 
    182 H182        8.2251  -12.0696  -42.9589 H         1 UNK         0.0600 
    183 H183        8.1141  -11.2909  -44.5299 H         1 UNK         0.0600 
    184 H184        5.3132  -10.9105  -44.8407 H         1 UNK         0.3000 
    185 H185        3.3973   -7.9501  -44.9614 H         1 UNK         0.0600 
    186 H186        4.1253   -7.7390  -47.3274 H         1 UNK         0.0600 
    187 H187        5.3684   -7.1224  -46.2509 H         1 UNK         0.0600 
    188 H188        5.5651   -8.7038  -46.9967 H         1 UNK         0.0600 
    189 H189        3.6762  -10.2433  -46.6980 H         1 UNK         0.3000 
    190 H190       -3.5056  -20.9179  -46.6723 H         1 UNK         0.3000 
    191 H191       -5.6299  -22.3494  -47.9038 H         1 UNK         0.0600 
    192 H192       -5.2890  -21.5348  -44.9769 H         1 UNK         0.0600 
    193 H193       -6.7946  -21.9929  -45.7580 H         1 UNK         0.0600 
    194 H194       -5.9650  -20.5247  -46.2530 H         1 UNK         0.0600 
    195 H195       -3.2781  -23.3581  -45.3972 H         1 UNK         0.3000 
    196 H196       -4.3974  -25.9451  -44.9338 H         1 UNK         0.0600 
    197 H197       -2.2107  -26.3849  -43.8174 H         1 UNK         0.0600 
    198 H198       -2.8661  -24.8267  -43.3364 H         1 UNK         0.0600 
    199 H199       -1.5466  -24.9059  -44.5010 H         1 UNK         0.0600 
    200 H200       -1.8281  -24.8004  -47.1500 H         1 UNK         0.3000 
    201 H201       -1.4390  -27.4969  -48.2979 H         1 UNK         0.0600 
    202 H202        0.5144  -26.0719  -47.5858 H         1 UNK         0.0600 
    203 H203        0.0574  -24.8762  -48.7980 H         1 UNK         0.0600 
    204 H204        0.5611  -26.4886  -49.2905 H         1 UNK         0.0600 
    205 H205       -3.9710  -25.9840  -48.8269 H         1 UNK         0.3000 
    206 H206       -3.9984  -24.6412  -51.2338 H         1 UNK         0.0600 
    207 H207       -5.8324  -24.5538  -49.6141 H         1 UNK         0.0600 
    208 H208       -6.4733  -25.0362  -51.1713 H         1 UNK         0.0600 
    209 H209       -6.2407  -26.2438  -49.9094 H         1 UNK         0.0600 
    210 H210       -3.6626  -28.0596  -50.9294 H         1 UNK         0.3000 
    211 H211       -4.6293  -28.7621  -53.5962 H         1 UNK         0.0600 
    212 H212       -2.9292  -30.3141  -51.5704 H         1 UNK         0.0600 
    213 H213       -3.6412  -30.9798  -53.0353 H         1 UNK         0.0600 
    214 H214       -4.6824  -30.4118  -51.7399 H         1 UNK         0.0600 
    215 H215       -1.6057  -27.6370  -52.1681 H         1 UNK         0.3000 
    216 H216       -0.0122  -28.2955  -54.6008 H         1 UNK         0.0600 
    217 H217        1.9192  -27.6661  -53.1624 H         1 UNK         0.0600 
    218 H218        0.9818  -28.9580  -52.4281 H         1 UNK         0.0600 
    219 H219        0.8360  -27.3104  -51.8221 H         1 UNK         0.0600 
    220 H220       -0.8645  -25.6078  -52.3848 H         1 UNK         0.3000 
    221 H221       -0.2019  -23.5076  -54.3715 H         1 UNK         0.0600 
    222 H222       -1.2608  -23.4021  -51.4861 H         1 UNK         0.0600 
    223 H223        0.4044  -23.1222  -51.9879 H         1 UNK         0.0600 
    224 H224       -0.8619  -22.0075  -52.4811 H         1 UNK         0.0600 
    225 H225       -1.7059  -24.5395  -55.8484 H         1 UNK         0.3000 
    226 H226       -4.0937  -25.5288  -55.6693 H         1 UNK         0.0600 
    227 H227       -2.8404  -25.4185  -57.7566 H         1 UNK         0.0600 
    228 H228       -4.4775  -24.8569  -58.0547 H         1 UNK         0.0600 
    229 H229       -3.1640  -23.6930  -57.9242 H         1 UNK         0.0600 
    230 H230       -5.6505  -24.9031  -54.3489 H         1 UNK         0.3000 
    231 H231       -7.5712  -24.0798  -53.6861 H         1 UNK         0.0600 
    232 H232       -9.0121  -22.7006  -55.1035 H         1 UNK         0.0600 
    233 H233       -8.2228  -23.9070  -56.1042 H         1 UNK         0.0600 
    234 H234       -7.6622  -22.2345  -56.1252 H         1 UNK         0.0600 
    235 H235       -4.8872  -22.7280  -53.1162 H         1 UNK         0.3000 
    236 H236       -4.0553  -21.2191  -51.7599 H         1 UNK         0.0600 
    237 H237       -5.4041  -20.5495  -49.7857 H         1 UNK         0.0600 
    238 H238       -5.6653  -22.2396  -50.1807 H         1 UNK         0.0600 
    239 H239       -6.8935  -21.0557  -50.5892 H         1 UNK         0.0600 
    240 H240       -6.5524  -19.0983  -51.0280 H         1 UNK         0.3000 
    241 H241       -5.5393  -17.0323  -52.8684 H         1 UNK         0.0600 
    242 H242       -7.9322  -19.3472  -53.3318 H         1 UNK         0.3800 
    243 H243       -9.0095  -18.3464  -54.2705 H         1 UNK         0.3800 
    244 H244       -6.6881  -15.4104  -51.4198 H         1 UNK         0.0800 
    245 H245       -7.4487  -16.6921  -50.5142 H         1 UNK         0.0800 
    246 H246       -3.8929  -15.7574  -51.8648 H         1 UNK         0.0800 
    247 H247       -4.2880  -14.4107  -50.8232 H         1 UNK         0.0800 
@<TRIPOS>BOND
     1    1    2 1    
     2    1  127 1    
     3    1  128 1    
     4    1  129 1    
     5    2    3 2    
     6    2    4 am   BACKBONE|DICT|INTERRES
     7    4    5 1    
     8    4  130 1    
     9    5    6 1    
    10    5   65 1    
    11    5  131 1    
    12    6    7 1    
    13    6  132 1    
    14    6  133 1    
    15    7    8 1    
    16    8    9 1    
    17    8  134 1    
    18    8  135 1    
    19    9   10 ar   
    20    9   14 ar   
    21   10   11 ar   
    22   10  136 1    
    23   11   12 ar   
    24   11  126 1    
    25   12   13 ar   
    26   12  137 1    
    27   13   14 ar   
    28   13   15 1    
    29   14  138 1    
    30   15   16 1    
    31   15  139 1    
    32   15  140 1    
    33   16   17 1    
    34   17   18 1    
    35   17  141 1    
    36   17  142 1    
    37   18   19 1    
    38   18   67 1    
    39   18  143 1    
    40   19   20 am   BACKBONE|DICT|INTERRES
    41   19  144 1    
    42   20   21 2    
    43   20   22 1    
    44   22   23 1    
    45   22   24 1    
    46   22  145 1    
    47   23  146 1    
    48   23  147 1    
    49   23  148 1    
    50   24   25 am   BACKBONE|DICT|INTERRES
    51   24  149 1    
    52   25   26 2    
    53   25   27 1    
    54   27   28 1    
    55   27   29 1    
    56   27  150 1    
    57   28  151 1    
    58   28  152 1    
    59   28  153 1    
    60   29   30 am   BACKBONE|DICT|INTERRES
    61   29  154 1    
    62   30   31 2    
    63   30   32 1    
    64   32   33 1    
    65   32   34 1    
    66   32  155 1    
    67   33  156 1    
    68   33  157 1    
    69   33  158 1    
    70   34   35 am   BACKBONE|DICT|INTERRES
    71   34  159 1    
    72   35   36 2    
    73   35   37 1    
    74   37   38 1    
    75   37   39 1    
    76   37  160 1    
    77   38  161 1    
    78   38  162 1    
    79   38  163 1    
    80   39   40 am   BACKBONE|DICT|INTERRES
    81   39  164 1    
    82   40   41 2    
    83   40   42 1    
    84   42   43 1    
    85   42   44 1    
    86   42  165 1    
    87   43  166 1    
    88   43  167 1    
    89   43  168 1    
    90   44   45 am   BACKBONE|DICT|INTERRES
    91   44  169 1    
    92   45   46 2    
    93   45   47 1    
    94   47   48 1    
    95   47   49 1    
    96   47  170 1    
    97   48  171 1    
    98   48  172 1    
    99   48  173 1    
   100   49   50 am   BACKBONE|DICT|INTERRES
   101   49  174 1    
   102   50   51 2    
   103   50   52 1    
   104   52   53 1    
   105   52   54 1    
   106   52  175 1    
   107   53  176 1    
   108   53  177 1    
   109   53  178 1    
   110   54   55 am   BACKBONE|DICT|INTERRES
   111   54  179 1    
   112   55   56 2    
   113   55   57 1    
   114   57   58 1    
   115   57   59 1    
   116   57  180 1    
   117   58  181 1    
   118   58  182 1    
   119   58  183 1    
   120   59   60 am   BACKBONE|DICT|INTERRES
   121   59  184 1    
   122   60   61 2    
   123   60   62 1    
   124   62   63 1    
   125   62   64 1    
   126   62  185 1    
   127   63  186 1    
   128   63  187 1    
   129   63  188 1    
   130   64   65 am   BACKBONE|DICT|INTERRES
   131   64  189 1    
   132   65   66 2    
   133   67   68 2    
   134   67   69 am   BACKBONE|DICT|INTERRES
   135   69   70 1    
   136   69  190 1    
   137   70   71 1    
   138   70   72 1    
   139   70  191 1    
   140   71  192 1    
   141   71  193 1    
   142   71  194 1    
   143   72   73 2    
   144   72   74 am   BACKBONE|DICT|INTERRES
   145   74   75 1    
   146   74  195 1    
   147   75   76 1    
   148   75   77 1    
   149   75  196 1    
   150   76  197 1    
   151   76  198 1    
   152   76  199 1    
   153   77   78 2    
   154   77   79 am   BACKBONE|DICT|INTERRES
   155   79   80 1    
   156   79  200 1    
   157   80   81 1    
   158   80   82 1    
   159   80  201 1    
   160   81  202 1    
   161   81  203 1    
   162   81  204 1    
   163   82   83 2    
   164   82   84 am   BACKBONE|DICT|INTERRES
   165   84   85 1    
   166   84  205 1    
   167   85   86 1    
   168   85   87 1    
   169   85  206 1    
   170   86  207 1    
   171   86  208 1    
   172   86  209 1    
   173   87   88 2    
   174   87   89 am   BACKBONE|DICT|INTERRES
   175   89   90 1    
   176   89  210 1    
   177   90   91 1    
   178   90   92 1    
   179   90  211 1    
   180   91  212 1    
   181   91  213 1    
   182   91  214 1    
   183   92   93 2    
   184   92   94 am   BACKBONE|DICT|INTERRES
   185   94   95 1    
   186   94  215 1    
   187   95   96 1    
   188   95   97 1    
   189   95  216 1    
   190   96  217 1    
   191   96  218 1    
   192   96  219 1    
   193   97   98 2    
   194   97   99 am   BACKBONE|DICT|INTERRES
   195   99  100 1    
   196   99  220 1    
   197  100  101 1    
   198  100  102 1    
   199  100  221 1    
   200  101  222 1    
   201  101  223 1    
   202  101  224 1    
   203  102  103 2    
   204  102  104 am   BACKBONE|DICT|INTERRES
   205  104  105 1    
   206  104  225 1    
   207  105  106 1    
   208  105  107 1    
   209  105  226 1    
   210  106  227 1    
   211  106  228 1    
   212  106  229 1    
   213  107  108 2    
   214  107  109 am   BACKBONE|DICT|INTERRES
   215  109  110 1    
   216  109  230 1    
   217  110  111 1    
   218  110  112 1    
   219  110  231 1    
   220  111  232 1    
   221  111  233 1    
   222  111  234 1    
   223  112  113 2    
   224  112  114 am   BACKBONE|DICT|INTERRES
   225  114  115 1    
   226  114  235 1    
   227  115  116 1    
   228  115  117 1    
   229  115  236 1    
   230  116  237 1    
   231  116  238 1    
   232  116  239 1    
   233  117  118 2    
   234  117  119 am   BACKBONE|DICT|INTERRES
   235  119  120 1    
   236  119  240 1    
   237  120  121 1    
   238  120  124 1    
   239  120  241 1    
   240  121  122 am   BACKBONE|DICT|INTERRES
   241  121  123 2    
   242  122  242 1    
   243  122  243 1    
   244  124  125 1    
   245  124  244 1    
   246  124  245 1    
   247  125  126 1    
   248  126  246 1    
   249  126  247 1    
@<TRIPOS>SUBSTRUCTURE
     1 UNK         1 GROUP             0       ****    0 ROOT    
