@<TRIPOS>MOLECULE
3R540
247   249    1
SMALL
USER_CHARGES


@<TRIPOS>ATOM
      1 CA          0.1536  -10.7059  -44.9195 C.3       0 UNK        -0.1800 
      2 C          -0.4529  -10.9279  -46.2975 C.2       0 UNK         0.5000 
      3 O          -0.6901   -9.9632  -47.0241 O.2       0 UNK        -0.5000 
      4 N          -0.7046  -12.1929  -46.6570 N.am      1 UNK        -0.5000 
      5 CA         -1.2236  -12.5998  -47.9702 C.3       1 UNK         0.1400 
      6 C6         -1.8666  -14.0061  -47.8955 C.3       23 UNK        -0.0398 
      7 S7         -2.9422  -14.3750  -49.3206 S.3       23 UNK        -0.2404 
      8 C8         -2.6724  -16.1624  -49.5364 C.3       23 UNK        -0.0205 
      9 C9         -1.2812  -16.4918  -50.0596 C.ar      23 UNK        -0.0193 
     10 C10        -0.9315  -16.1616  -51.3719 C.ar      23 UNK        -0.1150 
     11 C11         0.3201  -16.5135  -51.8846 C.ar      23 UNK        -0.0193 
     12 C12         1.2257  -17.2000  -51.0717 C.ar      23 UNK        -0.1150 
     13 C13         0.8990  -17.5157  -49.7509 C.ar      23 UNK        -0.0193 
     14 C14        -0.3564  -17.1573  -49.2483 C.ar      23 UNK        -0.1150 
     15 C15         1.9064  -18.2500  -48.8772 C.3       23 UNK        -0.0205 
     16 S16         2.0142  -20.0150  -49.3143 S.3       23 UNK        -0.2404 
     17 C17         0.3238  -20.5631  -48.9105 C.3       23 UNK        -0.0398 
     18 CA          0.2567  -21.9433  -48.2184 C.3       11 UNK         0.1400 
     19 N           1.1482  -22.0321  -47.0591 N.am      11 UNK        -0.5000 
     20 C           1.3850  -23.1409  -46.3445 C.2       10 UNK         0.5000 
     21 O           0.8842  -24.2364  -46.5933 O.2       10 UNK        -0.5000 
     22 CA          2.2917  -22.9791  -45.1081 C.3       10 UNK         0.1400 
     23 CB          3.7598  -23.2242  -45.4858 C.3       10 UNK        -0.1800 
     24 N           2.1708  -21.6677  -44.4616 N.am      10 UNK        -0.5000 
     25 C           1.0319  -21.1479  -43.9835 C.2       9 UNK         0.5000 
     26 O          -0.0564  -21.7275  -44.0329 O.2       9 UNK        -0.5000 
     27 CA          1.1255  -19.7084  -43.4489 C.3       9 UNK         0.1400 
     28 CB          1.2299  -18.7232  -44.6259 C.3       9 UNK        -0.1800 
     29 N          -0.0246  -19.3501  -42.6164 N.am      9 UNK        -0.5000 
     30 C          -0.2253  -19.8138  -41.3723 C.2       8 UNK         0.5000 
     31 O           0.5718  -20.5572  -40.7976 O.2       8 UNK        -0.5000 
     32 CA         -1.4990  -19.3708  -40.6219 C.3       8 UNK         0.1400 
     33 CB         -1.1490  -18.7021  -39.2812 C.3       8 UNK        -0.1800 
     34 N          -2.3170  -18.4442  -41.4046 N.am      8 UNK        -0.5000 
     35 C          -3.4303  -18.7794  -42.0697 C.2       7 UNK         0.5000 
     36 O          -3.9340  -19.9018  -42.0274 O.2       7 UNK        -0.5000 
     37 CA         -4.1061  -17.6906  -42.9314 C.3       7 UNK         0.1400 
     38 CB         -5.3922  -17.1913  -42.2551 C.3       7 UNK        -0.1800 
     39 N          -3.2548  -16.5358  -43.2288 N.am      7 UNK        -0.5000 
     40 C          -2.1442  -16.5597  -43.9772 C.2       6 UNK         0.5000 
     41 O          -1.7143  -17.5782  -44.5159 O.2       6 UNK        -0.5000 
     42 CA         -1.3546  -15.2399  -44.1158 C.3       6 UNK         0.1400 
     43 CB         -2.1843  -13.9835  -43.7707 C.3       6 UNK        -0.1800 
     44 N          -0.1073  -15.2393  -43.3431 N.am      6 UNK        -0.5000 
     45 C           0.0438  -15.5252  -42.0383 C.2       5 UNK         0.5000 
     46 O          -0.8768  -15.8893  -41.3060 O.2       5 UNK        -0.5000 
     47 CA          1.4557  -15.3787  -41.4341 C.3       5 UNK         0.1400 
     48 CB          2.1222  -16.7499  -41.2504 C.3       5 UNK        -0.1800 
     49 N           2.3467  -14.5287  -42.2231 N.am      5 UNK        -0.5000 
     50 C           2.2529  -13.1956  -42.3167 C.2       4 UNK         0.5000 
     51 O           1.4191  -12.5230  -41.7102 O.2       4 UNK        -0.5000 
     52 CA          3.2529  -12.4974  -43.2587 C.3       4 UNK         0.1400 
     53 CB          4.4380  -11.9348  -42.4592 C.3       4 UNK        -0.1800 
     54 N           3.7667  -13.3565  -44.3315 N.am      4 UNK        -0.5000 
     55 C           3.0282  -13.8761  -45.3194 C.2       3 UNK         0.5000 
     56 O           1.8005  -13.7547  -45.4061 O.2       3 UNK        -0.5000 
     57 CA          3.7801  -14.6905  -46.3864 C.3       3 UNK         0.1400 
     58 CB          3.6202  -16.1942  -46.1180 C.3       3 UNK        -0.1800 
     59 N           3.2158  -14.3784  -47.6940 N.am      3 UNK        -0.5000 
     60 C           3.4411  -13.2355  -48.3587 C.2       2 UNK         0.5000 
     61 O           4.3679  -12.4619  -48.1180 O.2       2 UNK        -0.5000 
     62 CA          2.3577  -12.8480  -49.3693 C.3       2 UNK         0.1400 
     63 CB          2.3742  -13.7742  -50.5984 C.3       2 UNK        -0.1800 
     64 N           1.0944  -12.9177  -48.6404 N.am      2 UNK        -0.5000 
     65 C          -0.1149  -12.5194  -49.0440 C.2       1 UNK         0.5000 
     66 O          -0.3593  -12.0647  -50.1620 O.2       1 UNK        -0.5000 
     67 C          -1.2121  -22.2436  -47.8539 C.2       11 UNK         0.5000 
     68 O          -1.9302  -22.8603  -48.6431 O.2       11 UNK        -0.5000 
     69 N          -1.6240  -21.7771  -46.6669 N.am      12 UNK        -0.5000 
     70 CA         -2.9520  -21.9889  -46.1048 C.3       12 UNK         0.1400 
     71 CB         -3.2536  -20.8876  -45.0808 C.3       12 UNK        -0.1800 
     72 C          -3.0674  -23.3868  -45.4771 C.2       12 UNK         0.5000 
     73 O          -4.0913  -24.0464  -45.6535 O.2       12 UNK        -0.5000 
     74 N          -2.0002  -23.8308  -44.7956 N.am      13 UNK        -0.5000 
     75 CA         -1.8906  -25.1548  -44.1774 C.3       13 UNK         0.1400 
     76 CB         -0.5933  -25.2334  -43.3608 C.3       13 UNK        -0.1800 
     77 C          -1.9627  -26.3124  -45.1927 C.2       13 UNK         0.5000 
     78 O          -2.5203  -27.3633  -44.8732 O.2       13 UNK        -0.5000 
     79 N          -1.4509  -26.0892  -46.4115 N.am      14 UNK        -0.5000 
     80 CA         -1.5153  -26.9933  -47.5640 C.3       14 UNK         0.1400 
     81 CB         -0.4368  -26.5677  -48.5773 C.3       14 UNK        -0.1800 
     82 C          -2.9243  -27.0561  -48.2000 C.2       14 UNK         0.5000 
     83 O          -3.0697  -26.8484  -49.4066 O.2       14 UNK        -0.5000 
     84 N          -3.9474  -27.3037  -47.3674 N.am      15 UNK        -0.5000 
     85 CA         -5.3793  -27.4051  -47.6893 C.3       15 UNK         0.1400 
     86 CB         -5.6471  -28.7002  -48.4832 C.3       15 UNK        -0.1800 
     87 C          -5.9557  -26.1568  -48.3970 C.2       15 UNK         0.5000 
     88 O          -6.9332  -26.2661  -49.1386 O.2       15 UNK        -0.5000 
     89 N          -5.3046  -25.0034  -48.1870 N.am      16 UNK        -0.5000 
     90 CA         -5.4886  -23.7151  -48.8598 C.3       16 UNK         0.1400 
     91 CB         -6.8544  -23.0987  -48.4993 C.3       16 UNK        -0.1800 
     92 C          -5.2388  -23.7315  -50.3832 C.2       16 UNK         0.5000 
     93 O          -5.5153  -22.7280  -51.0387 O.2       16 UNK        -0.5000 
     94 N          -4.7065  -24.8321  -50.9339 N.am      17 UNK        -0.5000 
     95 CA         -4.5222  -25.0277  -52.3717 C.3       17 UNK         0.1400 
     96 CB         -4.2031  -26.5037  -52.6521 C.3       17 UNK        -0.1800 
     97 C          -3.4354  -24.1103  -52.9500 C.2       17 UNK         0.5000 
     98 O          -3.6409  -23.5042  -54.0011 O.2       17 UNK        -0.5000 
     99 N          -2.3150  -23.9922  -52.2273 N.am      18 UNK        -0.5000 
    100 CA        -1.2005  -23.1153  -52.5825 C.3       18 UNK         0.1400 
    101 CB         0.0362  -23.5215  -51.7707 C.3       18 UNK        -0.1800 
    102 C         -1.5368  -21.6230  -52.4037 C.2       18 UNK         0.5000 
    103 O         -1.0387  -20.7995  -53.1692 O.2       18 UNK        -0.5000 
    104 N         -2.3984  -21.3040  -51.4267 N.am      19 UNK        -0.5000 
    105 CA        -2.9439  -19.9616  -51.2238 C.3       19 UNK         0.1400 
    106 CB        -3.5966  -19.8706  -49.8348 C.3       19 UNK        -0.1800 
    107 C         -3.9373  -19.5752  -52.3356 C.2       19 UNK         0.5000 
    108 O         -3.8580  -18.4657  -52.8617 O.2       19 UNK        -0.5000 
    109 N         -4.8322  -20.5067  -52.6983 N.am      20 UNK        -0.5000 
    110 CA        -5.8181  -20.3497  -53.7702 C.3       20 UNK         0.1400 
    111 CB        -6.8038  -21.5271  -53.7421 C.3       20 UNK        -0.1800 
    112 C         -5.1844  -20.2110  -55.1660 C.2       20 UNK         0.5000 
    113 O         -5.7064  -19.4611  -55.9922 O.2       20 UNK        -0.5000 
    114 N         -4.0533  -20.8948  -55.3952 N.am      21 UNK        -0.5000 
    115 CA        -3.2641  -20.8381  -56.6307 C.3       21 UNK         0.1400 
    116 CB        -2.1070  -21.8447  -56.5426 C.3       21 UNK        -0.1800 
    117 C         -2.7320  -19.4318  -56.9789 C.2       21 UNK         0.5000 
    118 O         -2.4974  -19.1524  -58.1555 O.2       21 UNK        -0.5000 
    119 N         -2.5819  -18.5682  -55.9669 N.am      22 UNK        -0.5000 
    120 CA        -2.2719  -17.1391  -56.1222 C.3       22 UNK         0.1400 
    121 C         -3.4880  -16.2647  -56.5563 C.2       22 UNK         0.5000 
    122 N         -4.7094  -16.7816  -56.6312 N.am      22 UNK        -0.7600 
    123 O         -3.3167  -15.0844  -56.8489 O.2       22 UNK        -0.5000 
    124 C124       -1.6020  -16.5632  -54.8501 C.3       23 UNK        -0.0398 
    125 S125        0.0322  -17.3065  -54.5265 S.3       23 UNK        -0.2404 
    126 C126        0.7098  -16.1385  -53.3060 C.3       23 UNK        -0.0205 
    127 H127        0.3066  -11.6442  -44.3869 H         1 UNK         0.0600 
    128 H128       -0.5020  -10.0777  -44.3167 H         1 UNK         0.0600 
    129 H129        1.1176  -10.2060  -45.0116 H         1 UNK         0.0600 
    130 H130       -0.4346  -12.9356  -46.0277 H         1 UNK         0.3000 
    131 H131       -2.0045  -11.8892  -48.2509 H         1 UNK         0.0600 
    132 H132       -2.4966  -14.0758  -47.0078 H         1 UNK         0.0800 
    133 H133       -1.1026  -14.7764  -47.7829 H         1 UNK         0.0800 
    134 H134       -3.4100  -16.5400  -50.2462 H         1 UNK         0.0800 
    135 H135       -2.8675  -16.6746  -48.5928 H         1 UNK         0.0800 
    136 H136       -1.6395  -15.6328  -51.9935 H         1 UNK         0.1150 
    137 H137        2.1934  -17.4812  -51.4628 H         1 UNK         0.1150 
    138 H138       -0.6200  -17.4089  -48.2306 H         1 UNK         0.1150 
    139 H139        2.8904  -17.7946  -48.9981 H         1 UNK         0.0800 
    140 H140        1.6508  -18.1502  -47.8214 H         1 UNK         0.0800 
    141 H141       -0.2451  -20.5722  -49.8402 H         1 UNK         0.0800 
    142 H142       -0.1463  -19.8110  -48.2754 H         1 UNK         0.0800 
    143 H143        0.5930  -22.7016  -48.9241 H         1 UNK         0.0600 
    144 H144        1.6284  -21.1839  -46.7992 H         1 UNK         0.3000 
    145 H145        1.9984  -23.7336  -44.3773 H         1 UNK         0.0600 
    146 H146        4.4038  -23.1976  -44.6066 H         1 UNK         0.0600 
    147 H147        3.8851  -24.2041  -45.9486 H         1 UNK         0.0600 
    148 H148        4.1242  -22.4781  -46.1932 H         1 UNK         0.0600 
    149 H149        3.0206  -21.1264  -44.3937 H         1 UNK         0.3000 
    150 H150        2.0286  -19.6237  -42.8411 H         1 UNK         0.0600 
    151 H151        2.1653  -18.8592  -45.1694 H         1 UNK         0.0600 
    152 H152        1.2020  -17.6884  -44.2868 H         1 UNK         0.0600 
    153 H153        0.4174  -18.8606  -45.3404 H         1 UNK         0.0600 
    154 H154       -0.7437  -18.7911  -43.0598 H         1 UNK         0.3000 
    155 H155       -2.0627  -20.2790  -40.4002 H         1 UNK         0.0600 
    156 H156       -0.5556  -17.7988  -39.4205 H         1 UNK         0.0600 
    157 H157       -0.5767  -19.3754  -38.6418 H         1 UNK         0.0600 
    158 H158       -2.0504  -18.4269  -38.7336 H         1 UNK         0.0600 
    159 H159       -1.9682  -17.4914  -41.4704 H         1 UNK         0.3000 
    160 H160       -4.3784  -18.1563  -43.8807 H         1 UNK         0.0600 
    161 H161       -5.1805  -16.6972  -41.3060 H         1 UNK         0.0600 
    162 H162       -6.0737  -18.0180  -42.0499 H         1 UNK         0.0600 
    163 H163       -5.9249  -16.4845  -42.8917 H         1 UNK         0.0600 
    164 H164       -3.5116  -15.6653  -42.7866 H         1 UNK         0.3000 
    165 H165       -1.0644  -15.1710  -45.1645 H         1 UNK         0.0600 
    166 H166       -2.4645  -13.9506  -42.7172 H         1 UNK         0.0600 
    167 H167       -1.6218  -13.0750  -43.9803 H         1 UNK         0.0600 
    168 H168       -3.0990  -13.9374  -44.3633 H         1 UNK         0.0600 
    169 H169        0.7140  -14.9449  -43.8562 H         1 UNK         0.3000 
    170 H170        1.3362  -14.9271  -40.4470 H         1 UNK         0.0600 
    171 H171        1.4915  -17.4213  -40.6682 H         1 UNK         0.0600 
    172 H172        2.3248  -17.2306  -42.2066 H         1 UNK         0.0600 
    173 H173        3.0686  -16.6574  -40.7175 H         1 UNK         0.0600 
    174 H174        3.0742  -14.9923  -42.7463 H         1 UNK         0.3000 
    175 H175        2.7316  -11.6596  -43.7245 H         1 UNK         0.0600 
    176 H176        5.0191  -12.7288  -41.9884 H         1 UNK         0.0600 
    177 H177        5.1087  -11.3603  -43.0985 H         1 UNK         0.0600 
    178 H178        4.0947  -11.2663  -41.6685 H         1 UNK         0.0600 
    179 H179        4.7646  -13.5123  -44.3351 H         1 UNK         0.3000 
    180 H180        4.8413  -14.4329  -46.3737 H         1 UNK         0.0600 
    181 H181        2.5714  -16.4927  -46.1236 H         1 UNK         0.0600 
    182 H182        4.0346  -16.4663  -45.1465 H         1 UNK         0.0600 
    183 H183        4.1413  -16.7864  -46.8704 H         1 UNK         0.0600 
    184 H184        2.4263  -14.9404  -47.9751 H         1 UNK         0.3000 
    185 H185        2.5233  -11.8170  -49.6876 H         1 UNK         0.0600 
    186 H186        1.6015  -13.5069  -51.3187 H         1 UNK         0.0600 
    187 H187        3.3324  -13.7158  -51.1155 H         1 UNK         0.0600 
    188 H188        2.2194  -14.8127  -50.3134 H         1 UNK         0.0600 
    189 H189        1.1919  -13.1927  -47.6708 H         1 UNK         0.3000 
    190 H190       -0.9498  -21.3395  -46.0534 H         1 UNK         0.3000 
    191 H191       -3.6904  -21.9018  -46.9011 H         1 UNK         0.0600 
    192 H192       -4.2590  -21.0001  -44.6736 H         1 UNK         0.0600 
    193 H193       -3.1944  -19.8984  -45.5353 H         1 UNK         0.0600 
    194 H194       -2.5571  -20.9102  -44.2426 H         1 UNK         0.0600 
    195 H195       -1.2194  -23.1965  -44.6573 H         1 UNK         0.3000 
    196 H196       -2.7323  -25.2637  -43.4905 H         1 UNK         0.0600 
    197 H197        0.2846  -25.2195  -44.0054 H         1 UNK         0.0600 
    198 H198       -0.5120  -24.4031  -42.6588 H         1 UNK         0.0600 
    199 H199       -0.5557  -26.1566  -42.7813 H         1 UNK         0.0600 
    200 H200       -0.9565  -25.2168  -46.5625 H         1 UNK         0.3000 
    201 H201       -1.2743  -28.0024  -47.2244 H         1 UNK         0.0600 
    202 H202       -0.6107  -25.5554  -48.9448 H         1 UNK         0.0600 
    203 H203       -0.4184  -27.2350  -49.4399 H         1 UNK         0.0600 
    204 H204        0.5565  -26.5933  -48.1290 H         1 UNK         0.0600 
    205 H205       -3.7076  -27.4312  -46.3879 H         1 UNK         0.3000 
    206 H206       -5.9034  -27.4823  -46.7359 H         1 UNK         0.0600 
    207 H207       -5.2456  -29.5708  -47.9646 H         1 UNK         0.0600 
    208 H208       -6.7167  -28.8687  -48.6140 H         1 UNK         0.0600 
    209 H209       -5.1971  -28.6641  -49.4760 H         1 UNK         0.0600 
    210 H210       -4.5575  -25.0166  -47.5025 H         1 UNK         0.3000 
    211 H211       -4.7178  -23.0615  -48.4589 H         1 UNK         0.0600 
    212 H212       -6.9374  -22.0788  -48.8768 H         1 UNK         0.0600 
    213 H213       -6.9924  -23.0547  -47.4190 H         1 UNK         0.0600 
    214 H214       -7.6807  -23.6708  -48.9217 H         1 UNK         0.0600 
    215 H215       -4.4232  -25.5965  -50.3298 H         1 UNK         0.3000 
    216 H216       -5.4635  -24.7844  -52.8691 H         1 UNK         0.0600 
    217 H217       -3.2720  -26.8140  -52.1763 H         1 UNK         0.0600 
    218 H218       -4.1013  -26.6840  -53.7229 H         1 UNK         0.0600 
    219 H219       -4.9975  -27.1543  -52.2857 H         1 UNK         0.0600 
    220 H220       -2.2401  -24.5103  -51.3632 H         1 UNK         0.3000 
    221 H221       -0.9687  -23.2640  -53.6396 H         1 UNK         0.0600 
    222 H222        0.4400  -24.4693  -52.1268 H         1 UNK         0.0600 
    223 H223       -0.2094  -23.6478  -50.7189 H         1 UNK         0.0600 
    224 H224        0.8312  -22.7782  -51.8473 H         1 UNK         0.0600 
    225 H225       -2.7501  -22.0402  -50.8306 H         1 UNK         0.3000 
    226 H226       -2.1190  -19.2456  -51.2551 H         1 UNK         0.0600 
    227 H227       -4.3685  -20.6278  -49.6976 H         1 UNK         0.0600 
    228 H228       -2.8586  -19.9965  -49.0435 H         1 UNK         0.0600 
    229 H229       -4.0654  -18.8977  -49.6856 H         1 UNK         0.0600 
    230 H230       -4.8784  -21.3775  -52.1751 H         1 UNK         0.3000 
    231 H231       -6.3788  -19.4338  -53.5728 H         1 UNK         0.0600 
    232 H232       -6.2949  -22.4806  -53.8872 H         1 UNK         0.0600 
    233 H233       -7.5531  -21.4303  -54.5288 H         1 UNK         0.0600 
    234 H234       -7.3357  -21.5727  -52.7917 H         1 UNK         0.0600 
    235 H235       -3.7347  -21.5462  -54.6861 H         1 UNK         0.3000 
    236 H236       -3.9191  -21.1456  -57.4482 H         1 UNK         0.0600 
    237 H237       -2.4753  -22.8598  -56.3944 H         1 UNK         0.0600 
    238 H238       -1.5185  -21.8457  -57.4609 H         1 UNK         0.0600 
    239 H239       -1.4310  -21.6078  -55.7211 H         1 UNK         0.0600 
    240 H240       -2.7979  -18.8754  -55.0281 H         1 UNK         0.3000 
    241 H241       -1.5501  -17.0445  -56.9358 H         1 UNK         0.0600 
    242 H242       -5.4728  -16.1921  -56.9221 H         1 UNK         0.3800 
    243 H243       -4.8936  -17.7536  -56.4029 H         1 UNK         0.3800 
    244 H244       -2.2430  -16.7140  -53.9818 H         1 UNK         0.0800 
    245 H245       -1.4634  -15.4850  -54.9476 H         1 UNK         0.0800 
    246 H246        1.7965  -16.1317  -53.4024 H         1 UNK         0.0800 
    247 H247        0.3861  -15.1205  -53.5268 H         1 UNK         0.0800 
@<TRIPOS>BOND
     1    1    2 1    
     2    1  127 1    
     3    1  128 1    
     4    1  129 1    
     5    2    3 2    
     6    2    4 am   BACKBONE|DICT|INTERRES
     7    4    5 1    
     8    4  130 1    
     9    5    6 1    
    10    5   65 1    
    11    5  131 1    
    12    6    7 1    
    13    6  132 1    
    14    6  133 1    
    15    7    8 1    
    16    8    9 1    
    17    8  134 1    
    18    8  135 1    
    19    9   10 ar   
    20    9   14 ar   
    21   10   11 ar   
    22   10  136 1    
    23   11   12 ar   
    24   11  126 1    
    25   12   13 ar   
    26   12  137 1    
    27   13   14 ar   
    28   13   15 1    
    29   14  138 1    
    30   15   16 1    
    31   15  139 1    
    32   15  140 1    
    33   16   17 1    
    34   17   18 1    
    35   17  141 1    
    36   17  142 1    
    37   18   19 1    
    38   18   67 1    
    39   18  143 1    
    40   19   20 am   BACKBONE|DICT|INTERRES
    41   19  144 1    
    42   20   21 2    
    43   20   22 1    
    44   22   23 1    
    45   22   24 1    
    46   22  145 1    
    47   23  146 1    
    48   23  147 1    
    49   23  148 1    
    50   24   25 am   BACKBONE|DICT|INTERRES
    51   24  149 1    
    52   25   26 2    
    53   25   27 1    
    54   27   28 1    
    55   27   29 1    
    56   27  150 1    
    57   28  151 1    
    58   28  152 1    
    59   28  153 1    
    60   29   30 am   BACKBONE|DICT|INTERRES
    61   29  154 1    
    62   30   31 2    
    63   30   32 1    
    64   32   33 1    
    65   32   34 1    
    66   32  155 1    
    67   33  156 1    
    68   33  157 1    
    69   33  158 1    
    70   34   35 am   BACKBONE|DICT|INTERRES
    71   34  159 1    
    72   35   36 2    
    73   35   37 1    
    74   37   38 1    
    75   37   39 1    
    76   37  160 1    
    77   38  161 1    
    78   38  162 1    
    79   38  163 1    
    80   39   40 am   BACKBONE|DICT|INTERRES
    81   39  164 1    
    82   40   41 2    
    83   40   42 1    
    84   42   43 1    
    85   42   44 1    
    86   42  165 1    
    87   43  166 1    
    88   43  167 1    
    89   43  168 1    
    90   44   45 am   BACKBONE|DICT|INTERRES
    91   44  169 1    
    92   45   46 2    
    93   45   47 1    
    94   47   48 1    
    95   47   49 1    
    96   47  170 1    
    97   48  171 1    
    98   48  172 1    
    99   48  173 1    
   100   49   50 am   BACKBONE|DICT|INTERRES
   101   49  174 1    
   102   50   51 2    
   103   50   52 1    
   104   52   53 1    
   105   52   54 1    
   106   52  175 1    
   107   53  176 1    
   108   53  177 1    
   109   53  178 1    
   110   54   55 am   BACKBONE|DICT|INTERRES
   111   54  179 1    
   112   55   56 2    
   113   55   57 1    
   114   57   58 1    
   115   57   59 1    
   116   57  180 1    
   117   58  181 1    
   118   58  182 1    
   119   58  183 1    
   120   59   60 am   BACKBONE|DICT|INTERRES
   121   59  184 1    
   122   60   61 2    
   123   60   62 1    
   124   62   63 1    
   125   62   64 1    
   126   62  185 1    
   127   63  186 1    
   128   63  187 1    
   129   63  188 1    
   130   64   65 am   BACKBONE|DICT|INTERRES
   131   64  189 1    
   132   65   66 2    
   133   67   68 2    
   134   67   69 am   BACKBONE|DICT|INTERRES
   135   69   70 1    
   136   69  190 1    
   137   70   71 1    
   138   70   72 1    
   139   70  191 1    
   140   71  192 1    
   141   71  193 1    
   142   71  194 1    
   143   72   73 2    
   144   72   74 am   BACKBONE|DICT|INTERRES
   145   74   75 1    
   146   74  195 1    
   147   75   76 1    
   148   75   77 1    
   149   75  196 1    
   150   76  197 1    
   151   76  198 1    
   152   76  199 1    
   153   77   78 2    
   154   77   79 am   BACKBONE|DICT|INTERRES
   155   79   80 1    
   156   79  200 1    
   157   80   81 1    
   158   80   82 1    
   159   80  201 1    
   160   81  202 1    
   161   81  203 1    
   162   81  204 1    
   163   82   83 2    
   164   82   84 am   BACKBONE|DICT|INTERRES
   165   84   85 1    
   166   84  205 1    
   167   85   86 1    
   168   85   87 1    
   169   85  206 1    
   170   86  207 1    
   171   86  208 1    
   172   86  209 1    
   173   87   88 2    
   174   87   89 am   BACKBONE|DICT|INTERRES
   175   89   90 1    
   176   89  210 1    
   177   90   91 1    
   178   90   92 1    
   179   90  211 1    
   180   91  212 1    
   181   91  213 1    
   182   91  214 1    
   183   92   93 2    
   184   92   94 am   BACKBONE|DICT|INTERRES
   185   94   95 1    
   186   94  215 1    
   187   95   96 1    
   188   95   97 1    
   189   95  216 1    
   190   96  217 1    
   191   96  218 1    
   192   96  219 1    
   193   97   98 2    
   194   97   99 am   BACKBONE|DICT|INTERRES
   195   99  100 1    
   196   99  220 1    
   197  100  101 1    
   198  100  102 1    
   199  100  221 1    
   200  101  222 1    
   201  101  223 1    
   202  101  224 1    
   203  102  103 2    
   204  102  104 am   BACKBONE|DICT|INTERRES
   205  104  105 1    
   206  104  225 1    
   207  105  106 1    
   208  105  107 1    
   209  105  226 1    
   210  106  227 1    
   211  106  228 1    
   212  106  229 1    
   213  107  108 2    
   214  107  109 am   BACKBONE|DICT|INTERRES
   215  109  110 1    
   216  109  230 1    
   217  110  111 1    
   218  110  112 1    
   219  110  231 1    
   220  111  232 1    
   221  111  233 1    
   222  111  234 1    
   223  112  113 2    
   224  112  114 am   BACKBONE|DICT|INTERRES
   225  114  115 1    
   226  114  235 1    
   227  115  116 1    
   228  115  117 1    
   229  115  236 1    
   230  116  237 1    
   231  116  238 1    
   232  116  239 1    
   233  117  118 2    
   234  117  119 am   BACKBONE|DICT|INTERRES
   235  119  120 1    
   236  119  240 1    
   237  120  121 1    
   238  120  124 1    
   239  120  241 1    
   240  121  122 am   BACKBONE|DICT|INTERRES
   241  121  123 2    
   242  122  242 1    
   243  122  243 1    
   244  124  125 1    
   245  124  244 1    
   246  124  245 1    
   247  125  126 1    
   248  126  246 1    
   249  126  247 1    
@<TRIPOS>SUBSTRUCTURE
     1 UNK         1 GROUP             0       ****    0 ROOT    
