@<TRIPOS>MOLECULE
3R540
247   249    1
SMALL
USER_CHARGES


@<TRIPOS>ATOM
      1 CA          7.9032  -14.7821  -48.4122 C.3       0 UNK        -0.1800 
      2 C           6.5725  -14.2121  -47.9414 C.2       0 UNK         0.5000 
      3 O           6.2455  -13.0787  -48.2901 O.2       0 UNK        -0.5000 
      4 N           5.8286  -14.9987  -47.1484 N.am      1 UNK        -0.5000 
      5 CA          4.4970  -14.7295  -46.5803 C.3       1 UNK         0.1400 
      6 C6          3.3190  -15.0606  -47.5411 C.3       23 UNK        -0.0398 
      7 S7          3.1278  -13.9911  -49.0161 S.3       23 UNK        -0.2404 
      8 C8          3.5656  -15.1090  -50.3870 C.3       23 UNK        -0.0205 
      9 C9          2.5408  -16.2197  -50.5626 C.ar      23 UNK        -0.0193 
     10 C10         1.2781  -15.9414  -51.0953 C.ar      23 UNK        -0.1150 
     11 C11         0.3159  -16.9500  -51.2041 C.ar      23 UNK        -0.0193 
     12 C12         0.6239  -18.2433  -50.7727 C.ar      23 UNK        -0.1150 
     13 C13         1.8911  -18.5379  -50.2646 C.ar      23 UNK        -0.0193 
     14 C14         2.8487  -17.5251  -50.1728 C.ar      23 UNK        -0.1150 
     15 C15         2.2172  -19.9357  -49.7699 C.3       23 UNK        -0.0205 
     16 S16         2.2579  -19.9500  -47.9570 S.3       23 UNK        -0.2404 
     17 C17         2.4439  -21.7192  -47.5852 C.3       23 UNK        -0.0398 
     18 CA          1.1441  -22.4238  -47.1277 C.3       11 UNK         0.1400 
     19 N           0.4444  -21.7535  -46.0249 N.am      11 UNK        -0.5000 
     20 C          -0.4222  -22.3915  -45.2238 C.2       10 UNK         0.5000 
     21 O          -0.6876  -23.5901  -45.3324 O.2       10 UNK        -0.5000 
     22 CA         -1.1404  -21.5582  -44.1480 C.3       10 UNK         0.1400 
     23 CB         -0.1911  -21.2094  -42.9918 C.3       10 UNK        -0.1800 
     24 N          -1.7517  -20.3404  -44.6792 N.am      10 UNK        -0.5000 
     25 C          -2.7394  -20.3208  -45.5859 C.2       9 UNK         0.5000 
     26 O          -3.2384  -21.3329  -46.0747 O.2       9 UNK        -0.5000 
     27 CA         -3.2374  -18.9422  -46.0535 C.3       9 UNK         0.1400 
     28 CB         -4.2766  -18.3731  -45.0768 C.3       9 UNK        -0.1800 
     29 N          -2.1562  -17.9785  -46.2356 N.am      9 UNK        -0.5000 
     30 C          -1.1660  -18.1088  -47.1287 C.2       8 UNK         0.5000 
     31 O          -1.0738  -19.0499  -47.9154 O.2       8 UNK        -0.5000 
     32 CA         -0.0794  -17.0215  -47.1023 C.3       8 UNK         0.1400 
     33 CB         -0.5724  -15.7435  -47.8008 C.3       8 UNK        -0.1800 
     34 N           0.3515  -16.7044  -45.7394 N.am      8 UNK        -0.5000 
     35 C           0.9488  -17.5665  -44.9026 C.2       7 UNK         0.5000 
     36 O           1.2215  -18.7328  -45.1812 O.2       7 UNK        -0.5000 
     37 CA          1.2559  -17.0426  -43.4911 C.3       7 UNK         0.1400 
     38 CB          2.5136  -16.1622  -43.5068 C.3       7 UNK        -0.1800 
     39 N           0.1346  -16.3048  -42.9068 N.am      7 UNK        -0.5000 
     40 C          -1.0561  -16.8521  -42.6244 C.2       6 UNK         0.5000 
     41 O          -1.3296  -18.0368  -42.8187 O.2       6 UNK        -0.5000 
     42 CA         -2.1393  -15.9113  -42.0686 C.3       6 UNK         0.1400 
     43 CB         -1.8928  -15.6160  -40.5812 C.3       6 UNK        -0.1800 
     44 N          -2.2707  -14.6483  -42.8000 N.am      6 UNK        -0.5000 
     45 C          -2.5181  -14.5264  -44.1124 C.2       5 UNK         0.5000 
     46 O          -2.5714  -15.4800  -44.8870 O.2       5 UNK        -0.5000 
     47 CA         -2.7536  -13.1067  -44.6654 C.3       5 UNK         0.1400 
     48 CB         -4.2236  -12.9434  -45.0809 C.3       5 UNK        -0.1800 
     49 N          -2.4238  -12.0490  -43.7037 N.am      5 UNK        -0.5000 
     50 C          -1.2192  -11.5210  -43.4445 C.2       4 UNK         0.5000 
     51 O          -1.0810  -10.6523  -42.5821 O.2       4 UNK        -0.5000 
     52 CA          0.0142  -11.9674  -44.2642 C.3       4 UNK         0.1400 
     53 CB          0.1755  -11.0818  -45.5100 C.3       4 UNK        -0.1800 
     54 N           1.2392  -11.8947  -43.4717 N.am      4 UNK        -0.5000 
     55 C           1.5306  -12.6962  -42.4411 C.2       3 UNK         0.5000 
     56 O           0.8202  -13.6454  -42.1029 O.2       3 UNK        -0.5000 
     57 CA          2.8556  -12.4062  -41.7081 C.3       3 UNK         0.1400 
     58 CB          3.1180  -13.3616  -40.5301 C.3       3 UNK        -0.1800 
     59 N           3.9830  -12.4666  -42.6408 N.am      3 UNK        -0.5000 
     60 C           4.4328  -11.4324  -43.3639 C.2       2 UNK         0.5000 
     61 O           3.9745  -10.2923  -43.2783 O.2       2 UNK        -0.5000 
     62 CA          5.5491  -11.7267  -44.3852 C.3       2 UNK         0.1400 
     63 CB          6.9288  -11.6586  -43.7130 C.3       2 UNK        -0.1800 
     64 N           5.4129  -13.0124  -45.0783 N.am      2 UNK        -0.5000 
     65 C           4.3704  -13.3734  -45.8432 C.2       1 UNK         0.5000 
     66 O           3.3539  -12.6909  -45.9674 O.2       1 UNK        -0.5000 
     67 C           0.2026  -22.7684  -48.2994 C.2       11 UNK         0.5000 
     68 O           0.3963  -23.8104  -48.9236 O.2       11 UNK        -0.5000 
     69 N          -0.8272  -21.9452  -48.5519 N.am      12 UNK        -0.5000 
     70 CA         -1.8846  -22.2476  -49.5190 C.3       12 UNK         0.1400 
     71 CB         -2.7855  -21.0255  -49.7209 C.3       12 UNK        -0.1800 
     72 C          -2.7230  -23.4741  -49.1182 C.2       12 UNK         0.5000 
     73 O          -3.0299  -24.3020  -49.9752 O.2       12 UNK        -0.5000 
     74 N          -3.0547  -23.5966  -47.8258 N.am      13 UNK        -0.5000 
     75 CA         -3.7279  -24.7642  -47.2572 C.3       13 UNK         0.1400 
     76 CB         -4.1495  -24.4778  -45.8091 C.3       13 UNK        -0.1800 
     77 C          -2.8688  -26.0374  -47.3489 C.2       13 UNK         0.5000 
     78 O          -3.3870  -27.0833  -47.7397 O.2       13 UNK        -0.5000 
     79 N          -1.5656  -25.9170  -47.0544 N.am      14 UNK        -0.5000 
     80 CA         -0.5799  -26.9942  -47.1972 C.3       14 UNK         0.1400 
     81 CB          0.7591  -26.5509  -46.5897 C.3       14 UNK        -0.1800 
     82 C          -0.3917  -27.4543  -48.6580 C.2       14 UNK         0.5000 
     83 O          -0.2189  -28.6485  -48.9026 O.2       14 UNK        -0.5000 
     84 N          -0.4716  -26.5066  -49.6018 N.am      15 UNK        -0.5000 
     85 CA         -0.4440  -26.7387  -51.0483 C.3       15 UNK         0.1400 
     86 CB         -0.0617  -25.4244  -51.7500 C.3       15 UNK        -0.1800 
     87 C          -1.7709  -27.2869  -51.6183 C.2       15 UNK         0.5000 
     88 O          -1.8216  -27.6002  -52.8083 O.2       15 UNK        -0.5000 
     89 N          -2.8155  -27.3772  -50.7804 N.am      16 UNK        -0.5000 
     90 CA         -4.1844  -27.8043  -51.0913 C.3       16 UNK         0.1400 
     91 CB         -4.2203  -29.2612  -51.5988 C.3       16 UNK        -0.1800 
     92 C          -4.9477  -26.8239  -52.0088 C.2       16 UNK         0.5000 
     93 O          -5.9176  -27.2194  -52.6574 O.2       16 UNK        -0.5000 
     94 N          -4.5275  -25.5517  -52.0152 N.am      17 UNK        -0.5000 
     95 CA         -5.2094  -24.4407  -52.6819 C.3       17 UNK         0.1400 
     96 CB         -4.1580  -23.4196  -53.1389 C.3       17 UNK        -0.1800 
     97 C          -6.2632  -23.7812  -51.7670 C.2       17 UNK         0.5000 
     98 O          -7.0599  -22.9717  -52.2437 O.2       17 UNK        -0.5000 
     99 N          -6.2480  -24.1352  -50.4703 N.am      18 UNK        -0.5000 
    100 CA        -7.2378  -23.8145  -49.4309 C.3       18 UNK         0.1400 
    101 CB        -8.5692  -24.5303  -49.7380 C.3       18 UNK        -0.1800 
    102 C         -7.4351  -22.3061  -49.1677 C.2       18 UNK         0.5000 
    103 O         -8.4848  -21.9067  -48.6627 O.2       18 UNK        -0.5000 
    104 N         -6.4297  -21.4989  -49.5354 N.am      19 UNK        -0.5000 
    105 CA        -6.3995  -20.0316  -49.5021 C.3       19 UNK         0.1400 
    106 CB        -6.5580  -19.5028  -48.0614 C.3       19 UNK        -0.1800 
    107 C         -7.3732  -19.3554  -50.4945 C.2       19 UNK         0.5000 
    108 O         -7.5291  -18.1345  -50.4443 O.2       19 UNK        -0.5000 
    109 N         -7.9768  -20.1325  -51.4075 N.am      20 UNK        -0.5000 
    110 CA        -8.7610  -19.6278  -52.5391 C.3       20 UNK         0.1400 
    111 CB        -9.6970  -20.7390  -53.0379 C.3       20 UNK        -0.1800 
    112 C         -7.8472  -19.1318  -53.6773 C.2       20 UNK         0.5000 
    113 O         -8.2421  -18.2622  -54.4547 O.2       20 UNK        -0.5000 
    114 N         -6.6317  -19.6812  -53.7223 N.am      21 UNK        -0.5000 
    115 CA        -5.4967  -19.2718  -54.5326 C.3       21 UNK         0.1400 
    116 CB        -5.4973  -20.0648  -55.8508 C.3       21 UNK        -0.1800 
    117 C         -4.2334  -19.5488  -53.7014 C.2       21 UNK         0.5000 
    118 O         -4.3249  -20.1791  -52.6432 O.2       21 UNK        -0.5000 
    119 N         -3.0796  -19.0808  -54.1836 N.am      22 UNK        -0.5000 
    120 CA        -1.7677  -19.3879  -53.5942 C.3       22 UNK         0.1400 
    121 C         -1.2944  -20.8308  -53.9295 C.2       22 UNK         0.5000 
    122 N         -0.4683  -21.4325  -53.0840 N.am      22 UNK        -0.7600 
    123 O         -1.6325  -21.3953  -54.9676 O.2       22 UNK        -0.5000 
    124 C124       -0.6919  -18.3494  -54.0025 C.3       23 UNK        -0.0398 
    125 S125       -1.1246  -16.6265  -53.5700 S.3       23 UNK        -0.2404 
    126 C126       -1.0694  -16.6340  -51.7474 C.3       23 UNK        -0.0205 
    127 H127        7.9273  -14.8255  -49.5011 H         1 UNK         0.0600 
    128 H128        8.0742  -15.7884  -48.0288 H         1 UNK         0.0600 
    129 H129        8.7232  -14.1469  -48.0771 H         1 UNK         0.0600 
    130 H130        6.2042  -15.9057  -46.9089 H         1 UNK         0.3000 
    131 H131        4.4159  -15.4592  -45.7743 H         1 UNK         0.0600 
    132 H132        3.4034  -16.0998  -47.8559 H         1 UNK         0.0800 
    133 H133        2.3826  -15.0138  -46.9852 H         1 UNK         0.0800 
    134 H134        3.6279  -14.5294  -51.3089 H         1 UNK         0.0800 
    135 H135        4.5622  -15.5181  -50.2141 H         1 UNK         0.0800 
    136 H136        1.0374  -14.9337  -51.4037 H         1 UNK         0.1150 
    137 H137       -0.1277  -19.0174  -50.8156 H         1 UNK         0.1150 
    138 H138        3.8221  -17.7498  -49.7599 H         1 UNK         0.1150 
    139 H139        1.4769  -20.6529  -50.1264 H         1 UNK         0.0800 
    140 H140        3.1835  -20.2537  -50.1636 H         1 UNK         0.0800 
    141 H141        3.1824  -21.7954  -46.7862 H         1 UNK         0.0800 
    142 H142        2.8891  -22.2343  -48.4385 H         1 UNK         0.0800 
    143 H143        1.4737  -23.3885  -46.7363 H         1 UNK         0.0600 
    144 H144        0.6181  -20.7611  -45.9016 H         1 UNK         0.3000 
    145 H145       -1.9445  -22.1755  -43.7421 H         1 UNK         0.0600 
    146 H146       -0.7245  -20.7114  -42.1821 H         1 UNK         0.0600 
    147 H147        0.2644  -22.1088  -42.5755 H         1 UNK         0.0600 
    148 H148        0.6160  -20.5514  -43.3133 H         1 UNK         0.0600 
    149 H149       -1.4212  -19.4605  -44.2969 H         1 UNK         0.3000 
    150 H150       -3.7199  -19.0759  -47.0229 H         1 UNK         0.0600 
    151 H151       -5.1058  -19.0681  -44.9392 H         1 UNK         0.0600 
    152 H152       -4.6942  -17.4371  -45.4484 H         1 UNK         0.0600 
    153 H153       -3.8421  -18.1785  -44.0957 H         1 UNK         0.0600 
    154 H154       -2.1795  -17.1500  -45.6459 H         1 UNK         0.3000 
    155 H155        0.7847  -17.3963  -47.6532 H         1 UNK         0.0600 
    156 H156       -0.9396  -15.9671  -48.8021 H         1 UNK         0.0600 
    157 H157        0.2271  -15.0119  -47.9097 H         1 UNK         0.0600 
    158 H158       -1.3891  -15.2693  -47.2572 H         1 UNK         0.0600 
    159 H159        0.1047  -15.7925  -45.3874 H         1 UNK         0.3000 
    160 H160        1.4554  -17.9067  -42.8536 H         1 UNK         0.0600 
    161 H161        2.3601  -15.2448  -44.0761 H         1 UNK         0.0600 
    162 H162        3.3556  -16.6948  -43.9503 H         1 UNK         0.0600 
    163 H163        2.8056  -15.8885  -42.4951 H         1 UNK         0.0600 
    164 H164        0.2925  -15.3263  -42.6739 H         1 UNK         0.3000 
    165 H165       -3.0947  -16.4328  -42.1545 H         1 UNK         0.0600 
    166 H166       -2.7168  -15.0474  -40.1499 H         1 UNK         0.0600 
    167 H167       -1.8023  -16.5402  -40.0089 H         1 UNK         0.0600 
    168 H168       -0.9758  -15.0450  -40.4302 H         1 UNK         0.0600 
    169 H169       -2.2145  -13.8054  -42.2475 H         1 UNK         0.3000 
    170 H170       -2.1496  -12.9962  -45.5669 H         1 UNK         0.0600 
    171 H171       -4.5071  -13.6907  -45.8236 H         1 UNK         0.0600 
    172 H172       -4.8983  -13.0541  -44.2309 H         1 UNK         0.0600 
    173 H173       -4.4014  -11.9640  -45.5256 H         1 UNK         0.0600 
    174 H174       -3.2065  -11.7075  -43.1652 H         1 UNK         0.3000 
    175 H175       -0.0936  -13.0043  -44.5825 H         1 UNK         0.0600 
    176 H176        0.3591  -10.0408  -45.2411 H         1 UNK         0.0600 
    177 H177        1.0059  -11.4185  -46.1300 H         1 UNK         0.0600 
    178 H178       -0.7199  -11.1052  -46.1319 H         1 UNK         0.0600 
    179 H179        1.8818  -11.1453  -43.6917 H         1 UNK         0.3000 
    180 H180        2.7738  -11.3996  -41.2927 H         1 UNK         0.0600 
    181 H181        3.2399  -14.3929  -40.8567 H         1 UNK         0.0600 
    182 H182        2.2931  -13.3382  -39.8168 H         1 UNK         0.0600 
    183 H183        4.0202  -13.0759  -39.9892 H         1 UNK         0.0600 
    184 H184        4.3899  -13.3760  -42.8015 H         1 UNK         0.3000 
    185 H185        5.5054  -10.9445  -45.1459 H         1 UNK         0.0600 
    186 H186        7.0701  -10.7028  -43.2066 H         1 UNK         0.0600 
    187 H187        7.0540  -12.4461  -42.9689 H         1 UNK         0.0600 
    188 H188        7.7301  -11.7574  -44.4457 H         1 UNK         0.0600 
    189 H189        6.2107  -13.6299  -45.0390 H         1 UNK         0.3000 
    190 H190       -0.9047  -21.0673  -48.0467 H         1 UNK         0.3000 
    191 H191       -1.4103  -22.4746  -50.4754 H         1 UNK         0.0600 
    192 H192       -2.2258  -20.1788  -50.1167 H         1 UNK         0.0600 
    193 H193       -3.5776  -21.2508  -50.4328 H         1 UNK         0.0600 
    194 H194       -3.2571  -20.7127  -48.7898 H         1 UNK         0.0600 
    195 H195       -2.8357  -22.8402  -47.1824 H         1 UNK         0.3000 
    196 H196       -4.6338  -24.9413  -47.8387 H         1 UNK         0.0600 
    197 H197       -4.6590  -25.3375  -45.3725 H         1 UNK         0.0600 
    198 H198       -4.8372  -23.6333  -45.7609 H         1 UNK         0.0600 
    199 H199       -3.2930  -24.2462  -45.1760 H         1 UNK         0.0600 
    200 H200       -1.2280  -25.0295  -46.6960 H         1 UNK         0.3000 
    201 H201       -0.9435  -27.8503  -46.6253 H         1 UNK         0.0600 
    202 H202        0.6394  -26.2352  -45.5531 H         1 UNK         0.0600 
    203 H203        1.1982  -25.7228  -47.1451 H         1 UNK         0.0600 
    204 H204        1.4801  -27.3690  -46.6006 H         1 UNK         0.0600 
    205 H205       -0.5317  -25.5369  -49.3074 H         1 UNK         0.3000 
    206 H206        0.3306  -27.4770  -51.2647 H         1 UNK         0.0600 
    207 H207        0.8980  -25.0508  -51.3928 H         1 UNK         0.0600 
    208 H208        0.0272  -25.5644  -52.8279 H         1 UNK         0.0600 
    209 H209       -0.8078  -24.6478  -51.5813 H         1 UNK         0.0600 
    210 H210       -2.6693  -27.0865  -49.8215 H         1 UNK         0.3000 
    211 H211       -4.7170  -27.7849  -50.1396 H         1 UNK         0.0600 
    212 H212       -3.7911  -29.3563  -52.5963 H         1 UNK         0.0600 
    213 H213       -5.2447  -29.6314  -51.6504 H         1 UNK         0.0600 
    214 H214       -3.6709  -29.9248  -50.9309 H         1 UNK         0.0600 
    215 H215       -3.7481  -25.2940  -51.4145 H         1 UNK         0.3000 
    216 H216       -5.7283  -24.8102  -53.5685 H         1 UNK         0.0600 
    217 H217       -4.6203  -22.6294  -53.7300 H         1 UNK         0.0600 
    218 H218       -3.3976  -23.8859  -53.7656 H         1 UNK         0.0600 
    219 H219       -3.6516  -22.9484  -52.2963 H         1 UNK         0.0600 
    220 H220       -5.5058  -24.7590  -50.1870 H         1 UNK         0.3000 
    221 H221       -6.8503  -24.2291  -48.4999 H         1 UNK         0.0600 
    222 H222       -9.0514  -24.1201  -50.6261 H         1 UNK         0.0600 
    223 H223       -8.4145  -25.5966  -49.9033 H         1 UNK         0.0600 
    224 H224       -9.2712  -24.4321  -48.9092 H         1 UNK         0.0600 
    225 H225       -5.6321  -21.9384  -49.9705 H         1 UNK         0.3000 
    226 H226       -5.4028  -19.7484  -49.8410 H         1 UNK         0.0600 
    227 H227       -5.9086  -20.0397  -47.3702 H         1 UNK         0.0600 
    228 H228       -6.2957  -18.4460  -48.0024 H         1 UNK         0.0600 
    229 H229       -7.5825  -19.6030  -47.7025 H         1 UNK         0.0600 
    230 H230       -7.7826  -21.1275  -51.4059 H         1 UNK         0.3000 
    231 H231       -9.3732  -18.7875  -52.2050 H         1 UNK         0.0600 
    232 H232       -9.1396  -21.6005  -53.4075 H         1 UNK         0.0600 
    233 H233      -10.3263  -20.3810  -53.8536 H         1 UNK         0.0600 
    234 H234      -10.3585  -21.0838  -52.2429 H         1 UNK         0.0600 
    235 H235       -6.3820  -20.3508  -53.0043 H         1 UNK         0.3000 
    236 H236       -5.5512  -18.2005  -54.7366 H         1 UNK         0.0600 
    237 H237       -6.4135  -19.8899  -56.4150 H         1 UNK         0.0600 
    238 H238       -4.6630  -19.7714  -56.4886 H         1 UNK         0.0600 
    239 H239       -5.4140  -21.1378  -55.6731 H         1 UNK         0.0600 
    240 H240       -3.0694  -18.5849  -55.0623 H         1 UNK         0.3000 
    241 H241       -1.8782  -19.3437  -52.5101 H         1 UNK         0.0600 
    242 H242       -0.1407  -20.9840  -52.2460 H         1 UNK         0.3800 
    243 H243       -0.1402  -22.3572  -53.3129 H         1 UNK         0.3800 
    244 H244        0.2721  -18.5882  -53.5513 H         1 UNK         0.0800 
    245 H245       -0.5283  -18.3871  -55.0808 H         1 UNK         0.0800 
    246 H246       -1.3793  -15.6511  -51.3896 H         1 UNK         0.0800 
    247 H247       -1.8066  -17.3355  -51.3550 H         1 UNK         0.0800 
@<TRIPOS>BOND
     1    1    2 1    
     2    1  127 1    
     3    1  128 1    
     4    1  129 1    
     5    2    3 2    
     6    2    4 am   BACKBONE|DICT|INTERRES
     7    4    5 1    
     8    4  130 1    
     9    5    6 1    
    10    5   65 1    
    11    5  131 1    
    12    6    7 1    
    13    6  132 1    
    14    6  133 1    
    15    7    8 1    
    16    8    9 1    
    17    8  134 1    
    18    8  135 1    
    19    9   10 ar   
    20    9   14 ar   
    21   10   11 ar   
    22   10  136 1    
    23   11   12 ar   
    24   11  126 1    
    25   12   13 ar   
    26   12  137 1    
    27   13   14 ar   
    28   13   15 1    
    29   14  138 1    
    30   15   16 1    
    31   15  139 1    
    32   15  140 1    
    33   16   17 1    
    34   17   18 1    
    35   17  141 1    
    36   17  142 1    
    37   18   19 1    
    38   18   67 1    
    39   18  143 1    
    40   19   20 am   BACKBONE|DICT|INTERRES
    41   19  144 1    
    42   20   21 2    
    43   20   22 1    
    44   22   23 1    
    45   22   24 1    
    46   22  145 1    
    47   23  146 1    
    48   23  147 1    
    49   23  148 1    
    50   24   25 am   BACKBONE|DICT|INTERRES
    51   24  149 1    
    52   25   26 2    
    53   25   27 1    
    54   27   28 1    
    55   27   29 1    
    56   27  150 1    
    57   28  151 1    
    58   28  152 1    
    59   28  153 1    
    60   29   30 am   BACKBONE|DICT|INTERRES
    61   29  154 1    
    62   30   31 2    
    63   30   32 1    
    64   32   33 1    
    65   32   34 1    
    66   32  155 1    
    67   33  156 1    
    68   33  157 1    
    69   33  158 1    
    70   34   35 am   BACKBONE|DICT|INTERRES
    71   34  159 1    
    72   35   36 2    
    73   35   37 1    
    74   37   38 1    
    75   37   39 1    
    76   37  160 1    
    77   38  161 1    
    78   38  162 1    
    79   38  163 1    
    80   39   40 am   BACKBONE|DICT|INTERRES
    81   39  164 1    
    82   40   41 2    
    83   40   42 1    
    84   42   43 1    
    85   42   44 1    
    86   42  165 1    
    87   43  166 1    
    88   43  167 1    
    89   43  168 1    
    90   44   45 am   BACKBONE|DICT|INTERRES
    91   44  169 1    
    92   45   46 2    
    93   45   47 1    
    94   47   48 1    
    95   47   49 1    
    96   47  170 1    
    97   48  171 1    
    98   48  172 1    
    99   48  173 1    
   100   49   50 am   BACKBONE|DICT|INTERRES
   101   49  174 1    
   102   50   51 2    
   103   50   52 1    
   104   52   53 1    
   105   52   54 1    
   106   52  175 1    
   107   53  176 1    
   108   53  177 1    
   109   53  178 1    
   110   54   55 am   BACKBONE|DICT|INTERRES
   111   54  179 1    
   112   55   56 2    
   113   55   57 1    
   114   57   58 1    
   115   57   59 1    
   116   57  180 1    
   117   58  181 1    
   118   58  182 1    
   119   58  183 1    
   120   59   60 am   BACKBONE|DICT|INTERRES
   121   59  184 1    
   122   60   61 2    
   123   60   62 1    
   124   62   63 1    
   125   62   64 1    
   126   62  185 1    
   127   63  186 1    
   128   63  187 1    
   129   63  188 1    
   130   64   65 am   BACKBONE|DICT|INTERRES
   131   64  189 1    
   132   65   66 2    
   133   67   68 2    
   134   67   69 am   BACKBONE|DICT|INTERRES
   135   69   70 1    
   136   69  190 1    
   137   70   71 1    
   138   70   72 1    
   139   70  191 1    
   140   71  192 1    
   141   71  193 1    
   142   71  194 1    
   143   72   73 2    
   144   72   74 am   BACKBONE|DICT|INTERRES
   145   74   75 1    
   146   74  195 1    
   147   75   76 1    
   148   75   77 1    
   149   75  196 1    
   150   76  197 1    
   151   76  198 1    
   152   76  199 1    
   153   77   78 2    
   154   77   79 am   BACKBONE|DICT|INTERRES
   155   79   80 1    
   156   79  200 1    
   157   80   81 1    
   158   80   82 1    
   159   80  201 1    
   160   81  202 1    
   161   81  203 1    
   162   81  204 1    
   163   82   83 2    
   164   82   84 am   BACKBONE|DICT|INTERRES
   165   84   85 1    
   166   84  205 1    
   167   85   86 1    
   168   85   87 1    
   169   85  206 1    
   170   86  207 1    
   171   86  208 1    
   172   86  209 1    
   173   87   88 2    
   174   87   89 am   BACKBONE|DICT|INTERRES
   175   89   90 1    
   176   89  210 1    
   177   90   91 1    
   178   90   92 1    
   179   90  211 1    
   180   91  212 1    
   181   91  213 1    
   182   91  214 1    
   183   92   93 2    
   184   92   94 am   BACKBONE|DICT|INTERRES
   185   94   95 1    
   186   94  215 1    
   187   95   96 1    
   188   95   97 1    
   189   95  216 1    
   190   96  217 1    
   191   96  218 1    
   192   96  219 1    
   193   97   98 2    
   194   97   99 am   BACKBONE|DICT|INTERRES
   195   99  100 1    
   196   99  220 1    
   197  100  101 1    
   198  100  102 1    
   199  100  221 1    
   200  101  222 1    
   201  101  223 1    
   202  101  224 1    
   203  102  103 2    
   204  102  104 am   BACKBONE|DICT|INTERRES
   205  104  105 1    
   206  104  225 1    
   207  105  106 1    
   208  105  107 1    
   209  105  226 1    
   210  106  227 1    
   211  106  228 1    
   212  106  229 1    
   213  107  108 2    
   214  107  109 am   BACKBONE|DICT|INTERRES
   215  109  110 1    
   216  109  230 1    
   217  110  111 1    
   218  110  112 1    
   219  110  231 1    
   220  111  232 1    
   221  111  233 1    
   222  111  234 1    
   223  112  113 2    
   224  112  114 am   BACKBONE|DICT|INTERRES
   225  114  115 1    
   226  114  235 1    
   227  115  116 1    
   228  115  117 1    
   229  115  236 1    
   230  116  237 1    
   231  116  238 1    
   232  116  239 1    
   233  117  118 2    
   234  117  119 am   BACKBONE|DICT|INTERRES
   235  119  120 1    
   236  119  240 1    
   237  120  121 1    
   238  120  124 1    
   239  120  241 1    
   240  121  122 am   BACKBONE|DICT|INTERRES
   241  121  123 2    
   242  122  242 1    
   243  122  243 1    
   244  124  125 1    
   245  124  244 1    
   246  124  245 1    
   247  125  126 1    
   248  126  246 1    
   249  126  247 1    
@<TRIPOS>SUBSTRUCTURE
     1 UNK         1 GROUP             0       ****    0 ROOT    
