@<TRIPOS>MOLECULE
3R540
247   249    1
SMALL
USER_CHARGES


@<TRIPOS>ATOM
      1 CA         -1.0278  -14.2312  -46.0047 C.3       0 UNK        -0.1800 
      2 C           0.0543  -13.7146  -46.9375 C.2       0 UNK         0.5000 
      3 O          -0.1177  -12.6537  -47.5366 O.2       0 UNK        -0.5000 
      4 N           1.1715  -14.4482  -47.0610 N.am      1 UNK        -0.5000 
      5 CA          2.3418  -14.0398  -47.8607 C.3       1 UNK         0.1400 
      6 C6          3.3296  -15.2055  -48.1464 C.3       23 UNK        -0.0398 
      7 S7          2.5534  -16.7457  -48.7438 S.3       23 UNK        -0.2404 
      8 C8          2.1774  -16.3314  -50.4791 C.3       23 UNK        -0.0205 
      9 C9          0.7258  -16.6502  -50.7992 C.ar      23 UNK        -0.0193 
     10 C10         0.3903  -17.6399  -51.7280 C.ar      23 UNK        -0.1150 
     11 C11        -0.9512  -17.9568  -51.9695 C.ar      23 UNK        -0.0193 
     12 C12        -1.9569  -17.2868  -51.2662 C.ar      23 UNK        -0.1150 
     13 C13        -1.6290  -16.2982  -50.3355 C.ar      23 UNK        -0.0193 
     14 C14        -0.2903  -15.9672  -50.1298 C.ar      23 UNK        -0.1150 
     15 C15        -2.7078  -15.6126  -49.5143 C.3       23 UNK        -0.0205 
     16 S16        -3.4081  -16.7171  -48.2451 S.3       23 UNK        -0.2404 
     17 C17        -1.9340  -17.3398  -47.3481 C.3       23 UNK        -0.0398 
     18 CA         -1.5228  -18.7918  -47.7059 C.3       11 UNK         0.1400 
     19 N          -0.3331  -19.2235  -46.9614 N.am      11 UNK        -0.5000 
     20 C           0.3145  -20.3810  -47.1689 C.2       10 UNK         0.5000 
     21 O           0.0144  -21.1870  -48.0481 O.2       10 UNK        -0.5000 
     22 CA          1.4385  -20.7433  -46.1830 C.3       10 UNK         0.1400 
     23 CB          2.7230  -19.9635  -46.4990 C.3       10 UNK        -0.1800 
     24 N           1.0461  -20.5362  -44.7880 N.am      10 UNK        -0.5000 
     25 C           0.0373  -21.1791  -44.1802 C.2       9 UNK         0.5000 
     26 O          -0.6302  -22.0616  -44.7179 O.2       9 UNK        -0.5000 
     27 CA         -0.3220  -20.7341  -42.7501 C.3       9 UNK         0.1400 
     28 CB          0.5556  -21.4525  -41.7150 C.3       9 UNK        -0.1800 
     29 N          -0.2269  -19.2858  -42.5626 N.am      9 UNK        -0.5000 
     30 C          -0.9722  -18.3820  -43.2160 C.2       8 UNK         0.5000 
     31 O          -1.8563  -18.6755  -44.0216 O.2       8 UNK        -0.5000 
     32 CA         -0.6223  -16.9025  -42.9787 C.3       8 UNK         0.1400 
     33 CB         -1.1788  -16.3991  -41.6390 C.3       8 UNK        -0.1800 
     34 N           0.8220  -16.6775  -43.0361 N.am      8 UNK        -0.5000 
     35 C           1.5742  -16.8318  -44.1347 C.2       7 UNK         0.5000 
     36 O           1.1093  -17.0282  -45.2592 O.2       7 UNK        -0.5000 
     37 CA          3.1014  -16.8037  -43.9401 C.3       7 UNK         0.1400 
     38 CB          3.6546  -15.3836  -44.0775 C.3       7 UNK        -0.1800 
     39 N           3.5051  -17.3450  -42.6447 N.am      7 UNK        -0.5000 
     40 C           3.5483  -18.6506  -42.3518 C.2       6 UNK         0.5000 
     41 O           3.2689  -19.5372  -43.1566 O.2       6 UNK        -0.5000 
     42 CA          3.9376  -19.0243  -40.9092 C.3       6 UNK         0.1400 
     43 CB          5.4627  -19.1486  -40.7784 C.3       6 UNK        -0.1800 
     44 N           3.4459  -18.0579  -39.9256 N.am      6 UNK        -0.5000 
     45 C           2.1507  -17.8630  -39.6410 C.2       5 UNK         0.5000 
     46 O           1.2379  -18.5172  -40.1441 O.2       5 UNK        -0.5000 
     47 CA          1.8204  -16.7056  -38.6790 C.3       5 UNK         0.1400 
     48 CB          1.8610  -17.1870  -37.2213 C.3       5 UNK        -0.1800 
     49 N           2.7104  -15.5496  -38.8366 N.am      5 UNK        -0.5000 
     50 C           2.8051  -14.8121  -39.9512 C.2       4 UNK         0.5000 
     51 O           2.1663  -15.0495  -40.9780 O.2       4 UNK        -0.5000 
     52 CA          3.8427  -13.6737  -39.9364 C.3       4 UNK         0.1400 
     53 CB          5.2031  -14.1978  -40.4233 C.3       4 UNK        -0.1800 
     54 N           3.4537  -12.5380  -40.7739 N.am      4 UNK        -0.5000 
     55 C           2.4121  -11.7267  -40.5428 C.2       3 UNK         0.5000 
     56 O           1.6699  -11.8359  -39.5653 O.2       3 UNK        -0.5000 
     57 CA          2.1703  -10.5749  -41.5438 C.3       3 UNK         0.1400 
     58 CB          2.5655   -9.2285  -40.9158 C.3       3 UNK        -0.1800 
     59 N           2.8803  -10.7207  -42.8199 N.am      3 UNK        -0.5000 
     60 C           2.5380  -11.5863  -43.7812 C.2       2 UNK         0.5000 
     61 O           1.5860  -12.3672  -43.6840 O.2       2 UNK        -0.5000 
     62 CA          3.4046  -11.5901  -45.0552 C.3       2 UNK         0.1400 
     63 CB          4.8857  -11.8849  -44.7412 C.3       2 UNK        -0.1800 
     64 N           2.8573  -12.6149  -45.9311 N.am      2 UNK        -0.5000 
     65 C           3.0997  -12.8462  -47.2253 C.2       1 UNK         0.5000 
     66 O           3.8773  -12.1786  -47.9079 O.2       1 UNK        -0.5000 
     67 C          -2.6864  -19.7923  -47.5318 C.2       11 UNK         0.5000 
     68 O          -3.2670  -20.2244  -48.5270 O.2       11 UNK        -0.5000 
     69 N          -2.9741  -20.1761  -46.2795 N.am      12 UNK        -0.5000 
     70 CA         -4.0365  -21.1207  -45.9276 C.3       12 UNK         0.1400 
     71 CB         -4.1573  -21.2067  -44.3991 C.3       12 UNK        -0.1800 
     72 C          -3.8558  -22.5238  -46.5396 C.2       12 UNK         0.5000 
     73 O          -4.8528  -23.1724  -46.8511 O.2       12 UNK        -0.5000 
     74 N          -2.6023  -22.9633  -46.7073 N.am      13 UNK        -0.5000 
     75 CA         -2.2488  -24.2162  -47.3686 C.3       13 UNK         0.1400 
     76 CB         -0.8519  -24.6577  -46.9043 C.3       13 UNK        -0.1800 
     77 C          -2.3012  -24.0992  -48.9025 C.2       13 UNK         0.5000 
     78 O          -2.8767  -24.9674  -49.5592 O.2       13 UNK        -0.5000 
     79 N          -1.6821  -23.0444  -49.4504 N.am      14 UNK        -0.5000 
     80 CA         -1.5232  -22.8352  -50.8905 C.3       14 UNK         0.1400 
     81 CB         -0.4111  -21.8065  -51.1242 C.3       14 UNK        -0.1800 
     82 C          -2.8157  -22.4108  -51.6102 C.2       14 UNK         0.5000 
     83 O          -2.9544  -22.6781  -52.8063 O.2       14 UNK        -0.5000 
     84 N          -3.7283  -21.7638  -50.8814 N.am      15 UNK        -0.5000 
     85 CA         -5.0583  -21.3716  -51.3266 C.3       15 UNK         0.1400 
     86 CB         -5.0990  -19.8510  -51.5632 C.3       15 UNK        -0.1800 
     87 C          -6.0797  -21.8577  -50.2865 C.2       15 UNK         0.5000 
     88 O          -6.7931  -21.0552  -49.6800 O.2       15 UNK        -0.5000 
     89 N          -6.1229  -23.1819  -50.0913 N.am      16 UNK        -0.5000 
     90 CA         -7.0598  -23.8983  -49.2241 C.3       16 UNK         0.1400 
     91 CB         -6.5088  -25.3142  -48.9747 C.3       16 UNK        -0.1800 
     92 C          -8.4788  -23.9193  -49.8297 C.2       16 UNK         0.5000 
     93 O          -8.9400  -24.9620  -50.2994 O.2       16 UNK        -0.5000 
     94 N          -9.1182  -22.7417  -49.8591 N.am      17 UNK        -0.5000 
     95 CA        -10.3802  -22.3834  -50.5199 C.3       17 UNK         0.1400 
     96 CB        -11.5632  -23.2449  -50.0365 C.3       17 UNK        -0.1800 
     97 C         -10.2552  -22.3769  -52.0553 C.2       17 UNK         0.5000 
     98 O         -10.5148  -21.3490  -52.6821 O.2       17 UNK        -0.5000 
     99 N          -9.8138  -23.5025  -52.6235 N.am      18 UNK        -0.5000 
    100 CA        -9.3488  -23.6228  -54.0005 C.3       18 UNK         0.1400 
    101 CB        -9.6781  -25.0339  -54.5107 C.3       18 UNK        -0.1800 
    102 C         -7.8312  -23.3784  -54.0431 C.2       18 UNK         0.5000 
    103 O         -7.1339  -23.6673  -53.0676 O.2       18 UNK        -0.5000 
    104 N         -7.3365  -22.8721  -55.1774 N.am      19 UNK        -0.5000 
    105 CA        -5.9099  -22.6827  -55.4308 C.3       19 UNK         0.1400 
    106 CB        -5.7297  -21.7862  -56.6654 C.3       19 UNK        -0.1800 
    107 C         -5.2053  -24.0381  -55.6206 C.2       19 UNK         0.5000 
    108 O         -5.5613  -24.7808  -56.5383 O.2       19 UNK        -0.5000 
    109 N         -4.2291  -24.3272  -54.7549 N.am      20 UNK        -0.5000 
    110 CA        -3.3425  -25.4808  -54.8456 C.3       20 UNK         0.1400 
    111 CB        -3.1993  -26.1218  -53.4502 C.3       20 UNK        -0.1800 
    112 C         -2.0195  -24.9768  -55.4406 C.2       20 UNK         0.5000 
    113 O         -1.9269  -24.8170  -56.6588 O.2       20 UNK        -0.5000 
    114 N         -1.0434  -24.6557  -54.5805 N.am      21 UNK        -0.5000 
    115 CA         0.2387  -24.0536  -54.9607 C.3       21 UNK         0.1400 
    116 CB         1.2043  -24.1082  -53.7676 C.3       21 UNK        -0.1800 
    117 C          0.1143  -22.6228  -55.5314 C.2       21 UNK         0.5000 
    118 O          1.0351  -22.1706  -56.2126 O.2       21 UNK        -0.5000 
    119 N         -1.0267  -21.9569  -55.2935 N.am      22 UNK        -0.5000 
    120 CA        -1.4370  -20.7313  -56.0037 C.3       22 UNK         0.1400 
    121 C         -1.8015  -20.9469  -57.5062 C.2       22 UNK         0.5000 
    122 N         -1.9784  -22.1701  -57.9944 N.am      22 UNK        -0.7600 
    123 O         -1.9245  -19.9771  -58.2487 O.2       22 UNK        -0.5000 
    124 C124       -2.5742  -19.9803  -55.2467 C.3       23 UNK        -0.0398 
    125 S125       -2.0118  -18.4192  -54.4913 S.3       23 UNK        -0.2404 
    126 C126       -1.3178  -19.0617  -52.9443 C.3       23 UNK        -0.0205 
    127 H127       -1.9931  -14.2460  -46.5105 H         1 UNK         0.0600 
    128 H128       -0.8054  -15.2391  -45.6672 H         1 UNK         0.0600 
    129 H129       -1.1066  -13.5875  -45.1285 H         1 UNK         0.0600 
    130 H130        1.2456  -15.3400  -46.5830 H         1 UNK         0.3000 
    131 H131        1.9669  -13.6888  -48.8242 H         1 UNK         0.0600 
    132 H132        4.0788  -14.8940  -48.8766 H         1 UNK         0.0800 
    133 H133        3.8890  -15.4660  -47.2479 H         1 UNK         0.0800 
    134 H134        2.3597  -15.2743  -50.6751 H         1 UNK         0.0800 
    135 H135        2.8529  -16.8880  -51.1302 H         1 UNK         0.0800 
    136 H136        1.1717  -18.1751  -52.2489 H         1 UNK         0.1150 
    137 H137       -2.9930  -17.5502  -51.4263 H         1 UNK         0.1150 
    138 H138       -0.0314  -15.2053  -49.4113 H         1 UNK         0.1150 
    139 H139       -2.3167  -14.7157  -49.0317 H         1 UNK         0.0800 
    140 H140       -3.5086  -15.2791  -50.1755 H         1 UNK         0.0800 
    141 H141       -2.1435  -17.2627  -46.2807 H         1 UNK         0.0800 
    142 H142       -1.0921  -16.6741  -47.5335 H         1 UNK         0.0800 
    143 H143       -1.2491  -18.8038  -48.7631 H         1 UNK         0.0600 
    144 H144       -0.0058  -18.6108  -46.2234 H         1 UNK         0.3000 
    145 H145        1.6548  -21.8066  -46.3059 H         1 UNK         0.0600 
    146 H146        3.5381  -20.2573  -45.8377 H         1 UNK         0.0600 
    147 H147        3.0495  -20.1526  -47.5223 H         1 UNK         0.0600 
    148 H148        2.5797  -18.8887  -46.3999 H         1 UNK         0.0600 
    149 H149        1.6062  -19.8866  -44.2473 H         1 UNK         0.3000 
    150 H150       -1.3589  -21.0201  -42.5654 H         1 UNK         0.0600 
    151 H151        0.4601  -22.5349  -41.8081 H         1 UNK         0.0600 
    152 H152        0.2649  -21.1862  -40.6986 H         1 UNK         0.0600 
    153 H153        1.6096  -21.2052  -41.8370 H         1 UNK         0.0600 
    154 H154        0.4426  -18.9600  -41.8717 H         1 UNK         0.3000 
    155 H155       -1.0940  -16.3203  -43.7689 H         1 UNK         0.0600 
    156 H156       -0.9375  -15.3472  -41.4836 H         1 UNK         0.0600 
    157 H157       -0.7819  -16.9607  -40.7945 H         1 UNK         0.0600 
    158 H158       -2.2650  -16.4928  -41.6112 H         1 UNK         0.0600 
    159 H159        1.2814  -16.4138  -42.1710 H         1 UNK         0.3000 
    160 H160        3.5499  -17.4140  -44.7265 H         1 UNK         0.0600 
    161 H161        3.4545  -15.0019  -45.0731 H         1 UNK         0.0600 
    162 H162        4.7351  -15.3629  -43.9353 H         1 UNK         0.0600 
    163 H163        3.2044  -14.6953  -43.3625 H         1 UNK         0.0600 
    164 H164        3.6883  -16.6757  -41.9122 H         1 UNK         0.3000 
    165 H165        3.4942  -19.9965  -40.6846 H         1 UNK         0.0600 
    166 H166        5.9635  -18.1989  -40.9708 H         1 UNK         0.0600 
    167 H167        5.7469  -19.4825  -39.7803 H         1 UNK         0.0600 
    168 H168        5.8566  -19.8774  -41.4880 H         1 UNK         0.0600 
    169 H169        4.1342  -17.4828  -39.4631 H         1 UNK         0.3000 
    170 H170        0.8034  -16.3750  -38.9001 H         1 UNK         0.0600 
    171 H171        1.1914  -18.0351  -37.0719 H         1 UNK         0.0600 
    172 H172        2.8627  -17.5038  -36.9282 H         1 UNK         0.0600 
    173 H173        1.5433  -16.4001  -36.5370 H         1 UNK         0.0600 
    174 H174        3.2759  -15.3055  -38.0361 H         1 UNK         0.3000 
    175 H175        3.9515  -13.3145  -38.9109 H         1 UNK         0.0600 
    176 H176        5.9669  -13.4219  -40.3676 H         1 UNK         0.0600 
    177 H177        5.5468  -15.0321  -39.8104 H         1 UNK         0.0600 
    178 H178        5.1554  -14.5464  -41.4556 H         1 UNK         0.0600 
    179 H179        3.9957  -12.3850  -41.6097 H         1 UNK         0.3000 
    180 H180        1.0980  -10.5493  -41.7496 H         1 UNK         0.0600 
    181 H181        3.6326   -9.1861  -40.6942 H         1 UNK         0.0600 
    182 H182        2.0294   -9.0590  -39.9809 H         1 UNK         0.0600 
    183 H183        2.3259   -8.3975  -41.5795 H         1 UNK         0.0600 
    184 H184        3.6704  -10.1087  -42.9656 H         1 UNK         0.3000 
    185 H185        3.3106  -10.6185  -45.5435 H         1 UNK         0.0600 
    186 H186        5.4824  -11.9463  -45.6511 H         1 UNK         0.0600 
    187 H187        5.3255  -11.0974  -44.1289 H         1 UNK         0.0600 
    188 H188        5.0051  -12.8247  -44.2022 H         1 UNK         0.0600 
    189 H189        2.1421  -13.1667  -45.4711 H         1 UNK         0.3000 
    190 H190       -2.4606  -19.7603  -45.5071 H         1 UNK         0.3000 
    191 H191       -4.9717  -20.7149  -46.3190 H         1 UNK         0.0600 
    192 H192       -4.3391  -20.2257  -43.9599 H         1 UNK         0.0600 
    193 H193       -4.9871  -21.8527  -44.1097 H         1 UNK         0.0600 
    194 H194       -3.2528  -21.6144  -43.9485 H         1 UNK         0.0600 
    195 H195       -1.8382  -22.4016  -46.3471 H         1 UNK         0.3000 
    196 H196       -2.9608  -24.9874  -47.0667 H         1 UNK         0.0600 
    197 H197       -0.5586  -25.5940  -47.3805 H         1 UNK         0.0600 
    198 H198       -0.8300  -24.8190  -45.8263 H         1 UNK         0.0600 
    199 H199       -0.0918  -23.9129  -47.1436 H         1 UNK         0.0600 
    200 H200       -1.2127  -22.3734  -48.8461 H         1 UNK         0.3000 
    201 H201       -1.2036  -23.7803  -51.3335 H         1 UNK         0.0600 
    202 H202        0.5296  -22.1351  -50.6819 H         1 UNK         0.0600 
    203 H203       -0.6620  -20.8378  -50.6900 H         1 UNK         0.0600 
    204 H204       -0.2332  -21.6626  -52.1886 H         1 UNK         0.0600 
    205 H205       -3.5083  -21.5215  -49.9176 H         1 UNK         0.3000 
    206 H206       -5.3075  -21.8669  -52.2650 H         1 UNK         0.0600 
    207 H207       -4.4194  -19.5589  -52.3628 H         1 UNK         0.0600 
    208 H208       -6.0984  -19.5277  -51.8563 H         1 UNK         0.0600 
    209 H209       -4.8215  -19.2966  -50.6657 H         1 UNK         0.0600 
    210 H210       -5.5139  -23.7617  -50.6503 H         1 UNK         0.3000 
    211 H211       -7.1180  -23.3826  -48.2639 H         1 UNK         0.0600 
    212 H212       -6.3969  -25.8739  -49.9042 H         1 UNK         0.0600 
    213 H213       -7.1731  -25.8830  -48.3232 H         1 UNK         0.0600 
    214 H214       -5.5334  -25.2775  -48.4896 H         1 UNK         0.0600 
    215 H215       -8.5776  -21.9470  -49.5296 H         1 UNK         0.3000 
    216 H216      -10.5856  -21.3555  -50.2166 H         1 UNK         0.0600 
    217 H217      -11.6526  -23.2167  -48.9506 H         1 UNK         0.0600 
    218 H218      -11.4681  -24.2880  -50.3381 H         1 UNK         0.0600 
    219 H219      -12.5022  -22.8751  -50.4498 H         1 UNK         0.0600 
    220 H220       -9.5428  -24.2544  -51.9958 H         1 UNK         0.3000 
    221 H221       -9.8516  -22.8903  -54.6355 H         1 UNK         0.0600 
    222 H222       -9.1872  -25.8027  -53.9123 H         1 UNK         0.0600 
    223 H223      -10.7515  -25.2220  -54.4823 H         1 UNK         0.0600 
    224 H224       -9.3519  -25.1630  -55.5435 H         1 UNK         0.0600 
    225 H225       -7.9584  -22.6947  -55.9527 H         1 UNK         0.3000 
    226 H226       -5.4665  -22.1655  -54.5780 H         1 UNK         0.0600 
    227 H227       -6.1517  -20.7950  -56.4990 H         1 UNK         0.0600 
    228 H228       -4.6739  -21.6555  -56.9005 H         1 UNK         0.0600 
    229 H229       -6.2083  -22.2123  -57.5481 H         1 UNK         0.0600 
    230 H230       -3.9855  -23.6542  -54.0323 H         1 UNK         0.3000 
    231 H231       -3.7449  -26.2348  -55.5251 H         1 UNK         0.0600 
    232 H232       -2.4838  -26.9449  -53.4678 H         1 UNK         0.0600 
    233 H233       -4.1528  -26.5324  -53.1176 H         1 UNK         0.0600 
    234 H234       -2.8732  -25.4108  -52.6911 H         1 UNK         0.0600 
    235 H235       -1.2069  -24.7950  -53.5949 H         1 UNK         0.3000 
    236 H236        0.6659  -24.6674  -55.7566 H         1 UNK         0.0600 
    237 H237        2.1631  -23.6518  -54.0169 H         1 UNK         0.0600 
    238 H238        0.8092  -23.5869  -52.8990 H         1 UNK         0.0600 
    239 H239        1.4047  -25.1386  -53.4735 H         1 UNK         0.0600 
    240 H240       -1.7179  -22.3871  -54.6938 H         1 UNK         0.3000 
    241 H241       -0.5574  -20.0852  -56.0322 H         1 UNK         0.0600 
    242 H242       -2.2062  -22.2753  -58.9702 H         1 UNK         0.3800 
    243 H243       -1.8829  -23.0003  -57.4191 H         1 UNK         0.3800 
    244 H244       -3.4006  -19.7133  -55.9081 H         1 UNK         0.0800 
    245 H245       -3.0315  -20.6080  -54.4816 H         1 UNK         0.0800 
    246 H246       -2.0368  -19.7272  -52.4688 H         1 UNK         0.0800 
    247 H247       -0.4401  -19.6596  -53.1894 H         1 UNK         0.0800 
@<TRIPOS>BOND
     1    1    2 1    
     2    1  127 1    
     3    1  128 1    
     4    1  129 1    
     5    2    3 2    
     6    2    4 am   BACKBONE|DICT|INTERRES
     7    4    5 1    
     8    4  130 1    
     9    5    6 1    
    10    5   65 1    
    11    5  131 1    
    12    6    7 1    
    13    6  132 1    
    14    6  133 1    
    15    7    8 1    
    16    8    9 1    
    17    8  134 1    
    18    8  135 1    
    19    9   10 ar   
    20    9   14 ar   
    21   10   11 ar   
    22   10  136 1    
    23   11   12 ar   
    24   11  126 1    
    25   12   13 ar   
    26   12  137 1    
    27   13   14 ar   
    28   13   15 1    
    29   14  138 1    
    30   15   16 1    
    31   15  139 1    
    32   15  140 1    
    33   16   17 1    
    34   17   18 1    
    35   17  141 1    
    36   17  142 1    
    37   18   19 1    
    38   18   67 1    
    39   18  143 1    
    40   19   20 am   BACKBONE|DICT|INTERRES
    41   19  144 1    
    42   20   21 2    
    43   20   22 1    
    44   22   23 1    
    45   22   24 1    
    46   22  145 1    
    47   23  146 1    
    48   23  147 1    
    49   23  148 1    
    50   24   25 am   BACKBONE|DICT|INTERRES
    51   24  149 1    
    52   25   26 2    
    53   25   27 1    
    54   27   28 1    
    55   27   29 1    
    56   27  150 1    
    57   28  151 1    
    58   28  152 1    
    59   28  153 1    
    60   29   30 am   BACKBONE|DICT|INTERRES
    61   29  154 1    
    62   30   31 2    
    63   30   32 1    
    64   32   33 1    
    65   32   34 1    
    66   32  155 1    
    67   33  156 1    
    68   33  157 1    
    69   33  158 1    
    70   34   35 am   BACKBONE|DICT|INTERRES
    71   34  159 1    
    72   35   36 2    
    73   35   37 1    
    74   37   38 1    
    75   37   39 1    
    76   37  160 1    
    77   38  161 1    
    78   38  162 1    
    79   38  163 1    
    80   39   40 am   BACKBONE|DICT|INTERRES
    81   39  164 1    
    82   40   41 2    
    83   40   42 1    
    84   42   43 1    
    85   42   44 1    
    86   42  165 1    
    87   43  166 1    
    88   43  167 1    
    89   43  168 1    
    90   44   45 am   BACKBONE|DICT|INTERRES
    91   44  169 1    
    92   45   46 2    
    93   45   47 1    
    94   47   48 1    
    95   47   49 1    
    96   47  170 1    
    97   48  171 1    
    98   48  172 1    
    99   48  173 1    
   100   49   50 am   BACKBONE|DICT|INTERRES
   101   49  174 1    
   102   50   51 2    
   103   50   52 1    
   104   52   53 1    
   105   52   54 1    
   106   52  175 1    
   107   53  176 1    
   108   53  177 1    
   109   53  178 1    
   110   54   55 am   BACKBONE|DICT|INTERRES
   111   54  179 1    
   112   55   56 2    
   113   55   57 1    
   114   57   58 1    
   115   57   59 1    
   116   57  180 1    
   117   58  181 1    
   118   58  182 1    
   119   58  183 1    
   120   59   60 am   BACKBONE|DICT|INTERRES
   121   59  184 1    
   122   60   61 2    
   123   60   62 1    
   124   62   63 1    
   125   62   64 1    
   126   62  185 1    
   127   63  186 1    
   128   63  187 1    
   129   63  188 1    
   130   64   65 am   BACKBONE|DICT|INTERRES
   131   64  189 1    
   132   65   66 2    
   133   67   68 2    
   134   67   69 am   BACKBONE|DICT|INTERRES
   135   69   70 1    
   136   69  190 1    
   137   70   71 1    
   138   70   72 1    
   139   70  191 1    
   140   71  192 1    
   141   71  193 1    
   142   71  194 1    
   143   72   73 2    
   144   72   74 am   BACKBONE|DICT|INTERRES
   145   74   75 1    
   146   74  195 1    
   147   75   76 1    
   148   75   77 1    
   149   75  196 1    
   150   76  197 1    
   151   76  198 1    
   152   76  199 1    
   153   77   78 2    
   154   77   79 am   BACKBONE|DICT|INTERRES
   155   79   80 1    
   156   79  200 1    
   157   80   81 1    
   158   80   82 1    
   159   80  201 1    
   160   81  202 1    
   161   81  203 1    
   162   81  204 1    
   163   82   83 2    
   164   82   84 am   BACKBONE|DICT|INTERRES
   165   84   85 1    
   166   84  205 1    
   167   85   86 1    
   168   85   87 1    
   169   85  206 1    
   170   86  207 1    
   171   86  208 1    
   172   86  209 1    
   173   87   88 2    
   174   87   89 am   BACKBONE|DICT|INTERRES
   175   89   90 1    
   176   89  210 1    
   177   90   91 1    
   178   90   92 1    
   179   90  211 1    
   180   91  212 1    
   181   91  213 1    
   182   91  214 1    
   183   92   93 2    
   184   92   94 am   BACKBONE|DICT|INTERRES
   185   94   95 1    
   186   94  215 1    
   187   95   96 1    
   188   95   97 1    
   189   95  216 1    
   190   96  217 1    
   191   96  218 1    
   192   96  219 1    
   193   97   98 2    
   194   97   99 am   BACKBONE|DICT|INTERRES
   195   99  100 1    
   196   99  220 1    
   197  100  101 1    
   198  100  102 1    
   199  100  221 1    
   200  101  222 1    
   201  101  223 1    
   202  101  224 1    
   203  102  103 2    
   204  102  104 am   BACKBONE|DICT|INTERRES
   205  104  105 1    
   206  104  225 1    
   207  105  106 1    
   208  105  107 1    
   209  105  226 1    
   210  106  227 1    
   211  106  228 1    
   212  106  229 1    
   213  107  108 2    
   214  107  109 am   BACKBONE|DICT|INTERRES
   215  109  110 1    
   216  109  230 1    
   217  110  111 1    
   218  110  112 1    
   219  110  231 1    
   220  111  232 1    
   221  111  233 1    
   222  111  234 1    
   223  112  113 2    
   224  112  114 am   BACKBONE|DICT|INTERRES
   225  114  115 1    
   226  114  235 1    
   227  115  116 1    
   228  115  117 1    
   229  115  236 1    
   230  116  237 1    
   231  116  238 1    
   232  116  239 1    
   233  117  118 2    
   234  117  119 am   BACKBONE|DICT|INTERRES
   235  119  120 1    
   236  119  240 1    
   237  120  121 1    
   238  120  124 1    
   239  120  241 1    
   240  121  122 am   BACKBONE|DICT|INTERRES
   241  121  123 2    
   242  122  242 1    
   243  122  243 1    
   244  124  125 1    
   245  124  244 1    
   246  124  245 1    
   247  125  126 1    
   248  126  246 1    
   249  126  247 1    
@<TRIPOS>SUBSTRUCTURE
     1 UNK         1 GROUP             0       ****    0 ROOT    
