@<TRIPOS>MOLECULE
3R540
247   249    1
SMALL
USER_CHARGES


@<TRIPOS>ATOM
      1 CA         -3.6552  -18.6765  -48.8396 C.3       0 UNK        -0.1800 
      2 C          -3.6019  -17.2559  -49.3876 C.2       0 UNK         0.5000 
      3 O          -4.4670  -16.8843  -50.1799 O.2       0 UNK        -0.5000 
      4 N          -2.5721  -16.4876  -49.0100 N.am      1 UNK        -0.5000 
      5 CA         -2.4169  -15.0582  -49.3030 C.3       1 UNK         0.1400 
      6 C6         -0.9359  -14.6932  -49.6197 C.3       23 UNK        -0.0398 
      7 S7          0.2362  -14.9623  -48.2428 S.3       23 UNK        -0.2404 
      8 C8          1.8495  -14.9437  -49.0975 C.3       23 UNK        -0.0205 
      9 C9          2.1459  -16.2181  -49.8812 C.ar      23 UNK        -0.0193 
     10 C10         2.8138  -16.1477  -51.1076 C.ar      23 UNK        -0.1150 
     11 C11         3.1108  -17.3047  -51.8367 C.ar      23 UNK        -0.0193 
     12 C12         2.7176  -18.5453  -51.3138 C.ar      23 UNK        -0.1150 
     13 C13         2.0120  -18.6336  -50.1113 C.ar      23 UNK        -0.0193 
     14 C14         1.7724  -17.4674  -49.3812 C.ar      23 UNK        -0.1150 
     15 C15         1.4989  -19.9951  -49.6489 C.3       23 UNK        -0.0205 
     16 S16        -0.0345  -19.9155  -48.6574 S.3       23 UNK        -0.2404 
     17 C17        -0.6402  -21.6190  -48.8542 C.3       23 UNK        -0.0398 
     18 CA         -1.0273  -22.3272  -47.5387 C.3       11 UNK         0.1400 
     19 N           0.0274  -22.3239  -46.5201 N.am      11 UNK        -0.5000 
     20 C           0.0825  -23.1860  -45.4959 C.2       10 UNK         0.5000 
     21 O          -0.7711  -24.0603  -45.3234 O.2       10 UNK        -0.5000 
     22 CA          1.2154  -23.0332  -44.4602 C.3       10 UNK         0.1400 
     23 CB          2.0217  -24.3375  -44.3060 C.3       10 UNK        -0.1800 
     24 N           2.0986  -21.8753  -44.6513 N.am      10 UNK        -0.5000 
     25 C           3.0297  -21.6551  -45.5907 C.2       9 UNK         0.5000 
     26 O           3.2631  -22.4295  -46.5182 O.2       9 UNK        -0.5000 
     27 CA          3.8312  -20.3378  -45.4898 C.3       9 UNK         0.1400 
     28 CB          3.5200  -19.4117  -46.6741 C.3       9 UNK        -0.1800 
     29 N           3.5860  -19.5976  -44.2505 N.am      9 UNK        -0.5000 
     30 C           4.1428  -19.8736  -43.0641 C.2       8 UNK         0.5000 
     31 O           4.9544  -20.7815  -42.8822 O.2       8 UNK        -0.5000 
     32 CA          3.6869  -19.0068  -41.8751 C.3       8 UNK         0.1400 
     33 CB          4.4500  -17.6737  -41.8398 C.3       8 UNK        -0.1800 
     34 N           2.2468  -18.7436  -41.8951 N.am      8 UNK        -0.5000 
     35 C           1.3035  -19.6745  -41.6923 C.2       7 UNK         0.5000 
     36 O           1.5474  -20.8551  -41.4440 O.2       7 UNK        -0.5000 
     37 CA         -0.1584  -19.2186  -41.8279 C.3       7 UNK         0.1400 
     38 CB         -0.6368  -18.5245  -40.5445 C.3       7 UNK        -0.1800 
     39 N          -0.3532  -18.3295  -42.9717 N.am      7 UNK        -0.5000 
     40 C          -0.2644  -18.7125  -44.2528 C.2       6 UNK         0.5000 
     41 O          -0.1140  -19.8810  -44.6069 O.2       6 UNK        -0.5000 
     42 CA         -0.3619  -17.6119  -45.3209 C.3       6 UNK         0.1400 
     43 CB         -1.8279  -17.3662  -45.6951 C.3       6 UNK        -0.1800 
     44 N           0.2364  -16.3487  -44.8985 N.am      6 UNK        -0.5000 
     45 C           1.5307  -16.1599  -44.6148 C.2       5 UNK         0.5000 
     46 O           2.3810  -17.0458  -44.6816 O.2       5 UNK        -0.5000 
     47 CA          1.9277  -14.7612  -44.1165 C.3       5 UNK         0.1400 
     48 CB          2.1503  -13.7913  -45.2850 C.3       5 UNK        -0.1800 
     49 N           0.9213  -14.2076  -43.2130 N.am      5 UNK        -0.5000 
     50 C           0.7615  -14.5905  -41.9402 C.2       4 UNK         0.5000 
     51 O           1.4669  -15.4342  -41.3852 O.2       4 UNK        -0.5000 
     52 CA         -0.4007  -13.9361  -41.1699 C.3       4 UNK         0.1400 
     53 CB          0.0076  -12.5514  -40.6447 C.3       4 UNK        -0.1800 
     54 N          -1.6219  -13.8112  -41.9703 N.am      4 UNK        -0.5000 
     55 C          -2.3490  -14.8548  -42.3908 C.2       3 UNK         0.5000 
     56 O          -2.0500  -16.0274  -42.1686 O.2       3 UNK        -0.5000 
     57 CA         -3.6110  -14.5449  -43.2189 C.3       3 UNK         0.1400 
     58 CB         -4.7754  -14.1584  -42.2941 C.3       3 UNK        -0.1800 
     59 N          -3.4668  -13.5252  -44.2663 N.am      3 UNK        -0.5000 
     60 C          -2.5037  -13.4812  -45.1961 C.2       2 UNK         0.5000 
     61 O          -1.4725  -14.1528  -45.1555 O.2       2 UNK        -0.5000 
     62 CA         -2.7242  -12.5335  -46.3886 C.3       2 UNK         0.1400 
     63 CB         -1.8517  -11.2778  -46.2454 C.3       2 UNK        -0.1800 
     64 N          -2.3751  -13.2204  -47.6334 N.am      2 UNK        -0.5000 
     65 C          -3.0785  -14.2289  -48.1690 C.2       1 UNK         0.5000 
     66 O          -4.2121  -14.5240  -47.7828 O.2       1 UNK        -0.5000 
     67 C          -2.4081  -21.8952  -47.0073 C.2       11 UNK         0.5000 
     68 O          -3.4070  -22.2172  -47.6503 O.2       11 UNK        -0.5000 
     69 N          -2.4685  -21.2696  -45.8203 N.am      12 UNK        -0.5000 
     70 CA         -3.7105  -21.0605  -45.0661 C.3       12 UNK         0.1400 
     71 CB         -3.4300  -20.2466  -43.7950 C.3       12 UNK        -0.1800 
     72 C          -4.4171  -22.3762  -44.6808 C.2       12 UNK         0.5000 
     73 O          -5.6439  -22.3941  -44.5912 O.2       12 UNK        -0.5000 
     74 N          -3.6361  -23.4439  -44.4678 N.am      13 UNK        -0.5000 
     75 CA         -4.1365  -24.7852  -44.1832 C.3       13 UNK         0.1400 
     76 CB         -3.2213  -25.4584  -43.1478 C.3       13 UNK        -0.1800 
     77 C          -4.2175  -25.6295  -45.4648 C.2       13 UNK         0.5000 
     78 O          -5.2076  -26.3350  -45.6598 O.2       13 UNK        -0.5000 
     79 N          -3.1743  -25.5603  -46.3063 N.am      14 UNK        -0.5000 
     80 CA         -3.0222  -26.4237  -47.4813 C.3       14 UNK         0.1400 
     81 CB         -1.5527  -26.4267  -47.9314 C.3       14 UNK        -0.1800 
     82 C          -3.9507  -26.0758  -48.6621 C.2       14 UNK         0.5000 
     83 O          -4.2305  -26.9629  -49.4702 O.2       14 UNK        -0.5000 
     84 N          -4.4018  -24.8177  -48.7589 N.am      15 UNK        -0.5000 
     85 CA         -5.2757  -24.3396  -49.8346 C.3       15 UNK         0.1400 
     86 CB         -4.4368  -23.6185  -50.9013 C.3       15 UNK        -0.1800 
     87 C          -6.3900  -23.4228  -49.3125 C.2       15 UNK         0.5000 
     88 O          -7.5265  -23.5372  -49.7709 O.2       15 UNK        -0.5000 
     89 N          -6.0415  -22.5277  -48.3773 N.am      16 UNK        -0.5000 
     90 CA         -6.8915  -21.5221  -47.7280 C.3       16 UNK         0.1400 
     91 CB         -8.0804  -22.1784  -46.9951 C.3       16 UNK        -0.1800 
     92 C          -7.3373  -20.3658  -48.6485 C.2       16 UNK         0.5000 
     93 O          -8.1412  -19.5363  -48.2200 O.2       16 UNK        -0.5000 
     94 N          -6.8012  -20.2996  -49.8729 N.am      17 UNK        -0.5000 
     95 CA         -7.0955  -19.2851  -50.8779 C.3       17 UNK         0.1400 
     96 CB         -8.5000  -19.5159  -51.4708 C.3       17 UNK        -0.1800 
     97 C          -6.0343  -19.3377  -51.9851 C.2       17 UNK         0.5000 
     98 O          -5.3261  -20.3417  -52.1189 O.2       17 UNK        -0.5000 
     99 N          -5.9637  -18.2479  -52.7637 N.am      18 UNK        -0.5000 
    100 CA        -5.1836  -18.0652  -53.9959 C.3       18 UNK         0.1400 
    101 CB        -5.7852  -18.9317  -55.1222 C.3       18 UNK        -0.1800 
    102 C         -3.6638  -18.2935  -53.8499 C.2       18 UNK         0.5000 
    103 O         -2.9995  -18.5882  -54.8444 O.2       18 UNK        -0.5000 
    104 N         -3.1448  -18.2017  -52.6157 N.am      19 UNK        -0.5000 
    105 CA        -1.7625  -18.4954  -52.2121 C.3       19 UNK         0.1400 
    106 CB        -0.8215  -17.3902  -52.7307 C.3       19 UNK        -0.1800 
    107 C         -1.2885  -19.9121  -52.6089 C.2       19 UNK         0.5000 
    108 O         -0.1001  -20.1064  -52.8509 O.2       19 UNK        -0.5000 
    109 N         -2.2247  -20.8686  -52.7292 N.am      20 UNK        -0.5000 
    110 CA        -2.0181  -22.2143  -53.2855 C.3       20 UNK         0.1400 
    111 CB        -1.1459  -23.0730  -52.3435 C.3       20 UNK        -0.1800 
    112 C         -1.4908  -22.2036  -54.7428 C.2       20 UNK         0.5000 
    113 O         -0.7328  -23.0946  -55.1288 O.2       20 UNK        -0.5000 
    114 N         -1.8984  -21.1862  -55.5186 N.am      21 UNK        -0.5000 
    115 CA        -1.5164  -20.8944  -56.9065 C.3       21 UNK         0.1400 
    116 CB        -1.8830  -22.0551  -57.8555 C.3       21 UNK        -0.1800 
    117 C         -0.0567  -20.4144  -57.0722 C.2       21 UNK         0.5000 
    118 O          0.4735  -20.4443  -58.1843 O.2       21 UNK        -0.5000 
    119 N          0.5614  -19.9562  -55.9773 N.am      22 UNK        -0.5000 
    120 CA         1.8753  -19.2996  -55.9417 C.3       22 UNK         0.1400 
    121 C          1.8606  -17.9248  -56.6690 C.2       22 UNK         0.5000 
    122 N          2.8630  -17.6333  -57.4869 N.am      22 UNK        -0.7600 
    123 O          0.9626  -17.1087  -56.4742 O.2       22 UNK        -0.5000 
    124 C124        2.3247  -19.1654  -54.4708 C.3       23 UNK        -0.0398 
    125 S125        4.0554  -18.6590  -54.1927 S.3       23 UNK        -0.2404 
    126 C126        3.8284  -17.1452  -53.1850 C.3       23 UNK        -0.0205 
    127 H127       -4.5153  -18.7919  -48.1803 H         1 UNK         0.0600 
    128 H128       -3.7504  -19.3963  -49.6526 H         1 UNK         0.0600 
    129 H129       -2.7597  -18.9276  -48.2752 H         1 UNK         0.0600 
    130 H130       -1.8808  -16.8616  -48.3767 H         1 UNK         0.3000 
    131 H131       -2.9869  -14.8239  -50.2043 H         1 UNK         0.0600 
    132 H132       -0.5982  -15.2894  -50.4676 H         1 UNK         0.0800 
    133 H133       -0.8597  -13.6556  -49.9486 H         1 UNK         0.0800 
    134 H134        2.6349  -14.8155  -48.3527 H         1 UNK         0.0800 
    135 H135        1.8936  -14.0694  -49.7486 H         1 UNK         0.0800 
    136 H136        3.1072  -15.1836  -51.4992 H         1 UNK         0.1150 
    137 H137        2.9258  -19.4581  -51.8492 H         1 UNK         0.1150 
    138 H138        1.2683  -17.5257  -48.4286 H         1 UNK         0.1150 
    139 H139        1.2997  -20.6030  -50.5329 H         1 UNK         0.0800 
    140 H140        2.2722  -20.5166  -49.0874 H         1 UNK         0.0800 
    141 H141        0.1250  -22.2164  -49.3512 H         1 UNK         0.0800 
    142 H142       -1.4839  -21.5965  -49.5458 H         1 UNK         0.0800 
    143 H143       -1.1703  -23.3708  -47.8146 H         1 UNK         0.0600 
    144 H144        0.7201  -21.5917  -46.5794 H         1 UNK         0.3000 
    145 H145        0.7131  -22.8505  -43.5093 H         1 UNK         0.0600 
    146 H146        2.7905  -24.2373  -43.5398 H         1 UNK         0.0600 
    147 H147        1.3741  -25.1632  -44.0086 H         1 UNK         0.0600 
    148 H148        2.5085  -24.6283  -45.2370 H         1 UNK         0.0600 
    149 H149        1.9573  -21.1324  -43.9803 H         1 UNK         0.3000 
    150 H150        4.8910  -20.5967  -45.5346 H         1 UNK         0.0600 
    151 H151        3.8479  -19.8606  -47.6109 H         1 UNK         0.0600 
    152 H152        4.0402  -18.4581  -46.5809 H         1 UNK         0.0600 
    153 H153        2.4526  -19.2017  -46.7520 H         1 UNK         0.0600 
    154 H154        2.9846  -18.7798  -44.3265 H         1 UNK         0.3000 
    155 H155        3.9175  -19.5523  -40.9576 H         1 UNK         0.0600 
    156 H156        4.2588  -17.0730  -42.7293 H         1 UNK         0.0600 
    157 H157        5.5260  -17.8422  -41.7831 H         1 UNK         0.0600 
    158 H158        4.1666  -17.0805  -40.9701 H         1 UNK         0.0600 
    159 H159        1.9596  -17.7958  -42.0999 H         1 UNK         0.3000 
    160 H160       -0.7681  -20.1111  -41.9765 H         1 UNK         0.0600 
    161 H161       -1.7013  -18.2957  -40.5968 H         1 UNK         0.0600 
    162 H162       -0.1027  -17.5902  -40.3676 H         1 UNK         0.0600 
    163 H163       -0.4845  -19.1626  -39.6732 H         1 UNK         0.0600 
    164 H164       -0.5821  -17.3634  -42.7648 H         1 UNK         0.3000 
    165 H165        0.1730  -17.9546  -46.2083 H         1 UNK         0.0600 
    166 H166       -1.9152  -16.5735  -46.4342 H         1 UNK         0.0600 
    167 H167       -2.2831  -18.2653  -46.1085 H         1 UNK         0.0600 
    168 H168       -2.4163  -17.0655  -44.8287 H         1 UNK         0.0600 
    169 H169       -0.3870  -15.5435  -44.8644 H         1 UNK         0.3000 
    170 H170        2.8716  -14.8578  -43.5755 H         1 UNK         0.0600 
    171 H171        2.8699  -14.1965  -45.9969 H         1 UNK         0.0600 
    172 H172        1.2245  -13.5910  -45.8244 H         1 UNK         0.0600 
    173 H173        2.5426  -12.8372  -44.9333 H         1 UNK         0.0600 
    174 H174        0.2432  -13.5784  -43.6199 H         1 UNK         0.3000 
    175 H175       -0.6244  -14.5717  -40.3103 H         1 UNK         0.0600 
    176 H176       -0.7769  -12.1185  -40.0236 H         1 UNK         0.0600 
    177 H177        0.9073  -12.6166  -40.0313 H         1 UNK         0.0600 
    178 H178        0.2145  -11.8553  -41.4585 H         1 UNK         0.0600 
    179 H179       -1.9255  -12.8792  -42.2109 H         1 UNK         0.3000 
    180 H180       -3.8881  -15.4706  -43.7264 H         1 UNK         0.0600 
    181 H181       -4.5986  -13.2006  -41.8032 H         1 UNK         0.0600 
    182 H182       -4.9208  -14.9061  -41.5130 H         1 UNK         0.0600 
    183 H183       -5.7119  -14.0846  -42.8472 H         1 UNK         0.0600 
    184 H184       -4.2572  -12.9068  -44.3770 H         1 UNK         0.3000 
    185 H185       -3.7733  -12.2335  -46.4306 H         1 UNK         0.0600 
    186 H186       -0.7903  -11.5272  -46.2025 H         1 UNK         0.0600 
    187 H187       -2.0022  -10.5957  -47.0823 H         1 UNK         0.0600 
    188 H188       -2.0983  -10.7331  -45.3333 H         1 UNK         0.0600 
    189 H189       -1.4221  -13.0970  -47.9445 H         1 UNK         0.3000 
    190 H190       -1.6005  -21.0009  -45.3667 H         1 UNK         0.3000 
    191 H191       -4.3914  -20.4847  -45.6947 H         1 UNK         0.0600 
    192 H192       -3.0964  -19.2392  -44.0294 H         1 UNK         0.0600 
    193 H193       -2.6718  -20.7244  -43.1753 H         1 UNK         0.0600 
    194 H194       -4.3303  -20.1436  -43.1876 H         1 UNK         0.0600 
    195 H195       -2.6348  -23.3540  -44.5877 H         1 UNK         0.3000 
    196 H196       -5.1389  -24.7295  -43.7532 H         1 UNK         0.0600 
    197 H197       -3.5786  -26.4600  -42.9051 H         1 UNK         0.0600 
    198 H198       -3.1950  -24.8891  -42.2186 H         1 UNK         0.0600 
    199 H199       -2.1970  -25.5544  -43.5094 H         1 UNK         0.0600 
    200 H200       -2.3722  -24.9961  -46.0455 H         1 UNK         0.3000 
    201 H201       -3.2674  -27.4420  -47.1713 H         1 UNK         0.0600 
    202 H202       -0.8780  -26.6132  -47.0954 H         1 UNK         0.0600 
    203 H203       -1.2651  -25.4857  -48.3960 H         1 UNK         0.0600 
    204 H204       -1.3793  -27.2114  -48.6688 H         1 UNK         0.0600 
    205 H205       -4.1301  -24.1420  -48.0558 H         1 UNK         0.3000 
    206 H206       -5.7758  -25.1847  -50.3126 H         1 UNK         0.0600 
    207 H207       -3.7201  -24.3012  -51.3570 H         1 UNK         0.0600 
    208 H208       -5.0681  -23.2291  -51.7012 H         1 UNK         0.0600 
    209 H209       -3.8840  -22.7777  -50.4804 H         1 UNK         0.0600 
    210 H210       -5.0573  -22.4666  -48.1188 H         1 UNK         0.3000 
    211 H211       -6.2632  -21.0582  -46.9690 H         1 UNK         0.0600 
    212 H212       -8.8253  -22.5658  -47.6903 H         1 UNK         0.0600 
    213 H213       -8.5839  -21.4592  -46.3484 H         1 UNK         0.0600 
    214 H214       -7.7484  -23.0022  -46.3631 H         1 UNK         0.0600 
    215 H215       -6.1266  -20.9943  -50.1656 H         1 UNK         0.3000 
    216 H216       -7.0499  -18.3007  -50.4071 H         1 UNK         0.0600 
    217 H217       -8.7264  -18.7869  -52.2498 H         1 UNK         0.0600 
    218 H218       -9.2767  -19.4220  -50.7122 H         1 UNK         0.0600 
    219 H219       -8.5861  -20.5085  -51.9149 H         1 UNK         0.0600 
    220 H220       -6.5542  -17.4642  -52.5215 H         1 UNK         0.3000 
    221 H221       -5.3023  -17.0192  -54.2812 H         1 UNK         0.0600 
    222 H222       -5.6457  -19.9960  -54.9290 H         1 UNK         0.0600 
    223 H223       -6.8541  -18.7490  -55.2323 H         1 UNK         0.0600 
    224 H224       -5.3215  -18.7096  -56.0841 H         1 UNK         0.0600 
    225 H225       -3.7749  -17.9266  -51.8703 H         1 UNK         0.3000 
    226 H226       -1.7291  -18.4698  -51.1241 H         1 UNK         0.0600 
    227 H227       -1.2088  -16.3993  -52.4968 H         1 UNK         0.0600 
    228 H228        0.1623  -17.4690  -52.2693 H         1 UNK         0.0600 
    229 H229       -0.6859  -17.4478  -53.8115 H         1 UNK         0.0600 
    230 H230       -3.1878  -20.6223  -52.5261 H         1 UNK         0.3000 
    231 H231       -3.0052  -22.6754  -53.3326 H         1 UNK         0.0600 
    232 H232       -1.5541  -23.0971  -51.3353 H         1 UNK         0.0600 
    233 H233       -0.1232  -22.7002  -52.2822 H         1 UNK         0.0600 
    234 H234       -1.0957  -24.1057  -52.6900 H         1 UNK         0.0600 
    235 H235       -2.4672  -20.4609  -55.0912 H         1 UNK         0.3000 
    236 H236       -2.1318  -20.0416  -57.1965 H         1 UNK         0.0600 
    237 H237       -1.7784  -21.7537  -58.8983 H         1 UNK         0.0600 
    238 H238       -1.2415  -22.9234  -57.7048 H         1 UNK         0.0600 
    239 H239       -2.9167  -22.3703  -57.7135 H         1 UNK         0.0600 
    240 H240        0.0577  -19.9759  -55.0998 H         1 UNK         0.3000 
    241 H241        2.5794  -19.9582  -56.4538 H         1 UNK         0.0600 
    242 H242        2.8700  -16.7411  -57.9560 H         1 UNK         0.3800 
    243 H243        3.6180  -18.2823  -57.6475 H         1 UNK         0.3800 
    244 H244        1.6556  -18.4828  -53.9466 H         1 UNK         0.0800 
    245 H245        2.2160  -20.1332  -53.9799 H         1 UNK         0.0800 
    246 H246        3.2840  -16.4171  -53.7887 H         1 UNK         0.0800 
    247 H247        4.8131  -16.7144  -52.9997 H         1 UNK         0.0800 
@<TRIPOS>BOND
     1    1    2 1    
     2    1  127 1    
     3    1  128 1    
     4    1  129 1    
     5    2    3 2    
     6    2    4 am   BACKBONE|DICT|INTERRES
     7    4    5 1    
     8    4  130 1    
     9    5    6 1    
    10    5   65 1    
    11    5  131 1    
    12    6    7 1    
    13    6  132 1    
    14    6  133 1    
    15    7    8 1    
    16    8    9 1    
    17    8  134 1    
    18    8  135 1    
    19    9   10 ar   
    20    9   14 ar   
    21   10   11 ar   
    22   10  136 1    
    23   11   12 ar   
    24   11  126 1    
    25   12   13 ar   
    26   12  137 1    
    27   13   14 ar   
    28   13   15 1    
    29   14  138 1    
    30   15   16 1    
    31   15  139 1    
    32   15  140 1    
    33   16   17 1    
    34   17   18 1    
    35   17  141 1    
    36   17  142 1    
    37   18   19 1    
    38   18   67 1    
    39   18  143 1    
    40   19   20 am   BACKBONE|DICT|INTERRES
    41   19  144 1    
    42   20   21 2    
    43   20   22 1    
    44   22   23 1    
    45   22   24 1    
    46   22  145 1    
    47   23  146 1    
    48   23  147 1    
    49   23  148 1    
    50   24   25 am   BACKBONE|DICT|INTERRES
    51   24  149 1    
    52   25   26 2    
    53   25   27 1    
    54   27   28 1    
    55   27   29 1    
    56   27  150 1    
    57   28  151 1    
    58   28  152 1    
    59   28  153 1    
    60   29   30 am   BACKBONE|DICT|INTERRES
    61   29  154 1    
    62   30   31 2    
    63   30   32 1    
    64   32   33 1    
    65   32   34 1    
    66   32  155 1    
    67   33  156 1    
    68   33  157 1    
    69   33  158 1    
    70   34   35 am   BACKBONE|DICT|INTERRES
    71   34  159 1    
    72   35   36 2    
    73   35   37 1    
    74   37   38 1    
    75   37   39 1    
    76   37  160 1    
    77   38  161 1    
    78   38  162 1    
    79   38  163 1    
    80   39   40 am   BACKBONE|DICT|INTERRES
    81   39  164 1    
    82   40   41 2    
    83   40   42 1    
    84   42   43 1    
    85   42   44 1    
    86   42  165 1    
    87   43  166 1    
    88   43  167 1    
    89   43  168 1    
    90   44   45 am   BACKBONE|DICT|INTERRES
    91   44  169 1    
    92   45   46 2    
    93   45   47 1    
    94   47   48 1    
    95   47   49 1    
    96   47  170 1    
    97   48  171 1    
    98   48  172 1    
    99   48  173 1    
   100   49   50 am   BACKBONE|DICT|INTERRES
   101   49  174 1    
   102   50   51 2    
   103   50   52 1    
   104   52   53 1    
   105   52   54 1    
   106   52  175 1    
   107   53  176 1    
   108   53  177 1    
   109   53  178 1    
   110   54   55 am   BACKBONE|DICT|INTERRES
   111   54  179 1    
   112   55   56 2    
   113   55   57 1    
   114   57   58 1    
   115   57   59 1    
   116   57  180 1    
   117   58  181 1    
   118   58  182 1    
   119   58  183 1    
   120   59   60 am   BACKBONE|DICT|INTERRES
   121   59  184 1    
   122   60   61 2    
   123   60   62 1    
   124   62   63 1    
   125   62   64 1    
   126   62  185 1    
   127   63  186 1    
   128   63  187 1    
   129   63  188 1    
   130   64   65 am   BACKBONE|DICT|INTERRES
   131   64  189 1    
   132   65   66 2    
   133   67   68 2    
   134   67   69 am   BACKBONE|DICT|INTERRES
   135   69   70 1    
   136   69  190 1    
   137   70   71 1    
   138   70   72 1    
   139   70  191 1    
   140   71  192 1    
   141   71  193 1    
   142   71  194 1    
   143   72   73 2    
   144   72   74 am   BACKBONE|DICT|INTERRES
   145   74   75 1    
   146   74  195 1    
   147   75   76 1    
   148   75   77 1    
   149   75  196 1    
   150   76  197 1    
   151   76  198 1    
   152   76  199 1    
   153   77   78 2    
   154   77   79 am   BACKBONE|DICT|INTERRES
   155   79   80 1    
   156   79  200 1    
   157   80   81 1    
   158   80   82 1    
   159   80  201 1    
   160   81  202 1    
   161   81  203 1    
   162   81  204 1    
   163   82   83 2    
   164   82   84 am   BACKBONE|DICT|INTERRES
   165   84   85 1    
   166   84  205 1    
   167   85   86 1    
   168   85   87 1    
   169   85  206 1    
   170   86  207 1    
   171   86  208 1    
   172   86  209 1    
   173   87   88 2    
   174   87   89 am   BACKBONE|DICT|INTERRES
   175   89   90 1    
   176   89  210 1    
   177   90   91 1    
   178   90   92 1    
   179   90  211 1    
   180   91  212 1    
   181   91  213 1    
   182   91  214 1    
   183   92   93 2    
   184   92   94 am   BACKBONE|DICT|INTERRES
   185   94   95 1    
   186   94  215 1    
   187   95   96 1    
   188   95   97 1    
   189   95  216 1    
   190   96  217 1    
   191   96  218 1    
   192   96  219 1    
   193   97   98 2    
   194   97   99 am   BACKBONE|DICT|INTERRES
   195   99  100 1    
   196   99  220 1    
   197  100  101 1    
   198  100  102 1    
   199  100  221 1    
   200  101  222 1    
   201  101  223 1    
   202  101  224 1    
   203  102  103 2    
   204  102  104 am   BACKBONE|DICT|INTERRES
   205  104  105 1    
   206  104  225 1    
   207  105  106 1    
   208  105  107 1    
   209  105  226 1    
   210  106  227 1    
   211  106  228 1    
   212  106  229 1    
   213  107  108 2    
   214  107  109 am   BACKBONE|DICT|INTERRES
   215  109  110 1    
   216  109  230 1    
   217  110  111 1    
   218  110  112 1    
   219  110  231 1    
   220  111  232 1    
   221  111  233 1    
   222  111  234 1    
   223  112  113 2    
   224  112  114 am   BACKBONE|DICT|INTERRES
   225  114  115 1    
   226  114  235 1    
   227  115  116 1    
   228  115  117 1    
   229  115  236 1    
   230  116  237 1    
   231  116  238 1    
   232  116  239 1    
   233  117  118 2    
   234  117  119 am   BACKBONE|DICT|INTERRES
   235  119  120 1    
   236  119  240 1    
   237  120  121 1    
   238  120  124 1    
   239  120  241 1    
   240  121  122 am   BACKBONE|DICT|INTERRES
   241  121  123 2    
   242  122  242 1    
   243  122  243 1    
   244  124  125 1    
   245  124  244 1    
   246  124  245 1    
   247  125  126 1    
   248  126  246 1    
   249  126  247 1    
@<TRIPOS>SUBSTRUCTURE
     1 UNK         1 GROUP             0       ****    0 ROOT    
