@<TRIPOS>MOLECULE
3R540
247   249    1
SMALL
USER_CHARGES


@<TRIPOS>ATOM
      1 CA         -1.9618  -18.7961  -50.1459 C.3       0 UNK        -0.1800 
      2 C          -2.1316  -17.3498  -49.7098 C.2       0 UNK         0.5000 
      3 O          -3.2443  -16.8263  -49.7499 O.2       0 UNK        -0.5000 
      4 N          -1.0505  -16.7030  -49.2538 N.am      1 UNK        -0.5000 
      5 CA         -1.0728  -15.3795  -48.6163 C.3       1 UNK         0.1400 
      6 C6          0.3068  -14.6736  -48.6712 C.3       23 UNK        -0.0398 
      7 S7          0.6991  -14.0723  -50.3490 S.3       23 UNK        -0.2404 
      8 C8          2.2134  -14.9955  -50.7613 C.3       23 UNK        -0.0205 
      9 C9          1.9358  -16.4719  -50.9931 C.ar      23 UNK        -0.0193 
     10 C10         1.1707  -16.8772  -52.0882 C.ar      23 UNK        -0.1150 
     11 C11         0.8916  -18.2294  -52.3045 C.ar      23 UNK        -0.0193 
     12 C12         1.3907  -19.1808  -51.4084 C.ar      23 UNK        -0.1150 
     13 C13         2.1778  -18.7923  -50.3183 C.ar      23 UNK        -0.0193 
     14 C14         2.4484  -17.4333  -50.1212 C.ar      23 UNK        -0.1150 
     15 C15         2.7664  -19.8556  -49.3951 C.3       23 UNK        -0.0205 
     16 S16         2.8314  -19.3684  -47.6380 S.3       23 UNK        -0.2404 
     17 C17         1.0768  -19.4857  -47.1572 C.3       23 UNK        -0.0398 
     18 CA          0.7439  -20.8712  -46.5545 C.3       11 UNK         0.1400 
     19 N           1.6098  -21.2227  -45.4177 N.am      11 UNK        -0.5000 
     20 C           1.7929  -22.4750  -44.9776 C.2       10 UNK         0.5000 
     21 O           1.0518  -23.4070  -45.2888 O.2       10 UNK        -0.5000 
     22 CA          3.0216  -22.7680  -44.1028 C.3       10 UNK         0.1400 
     23 CB          4.1968  -23.1806  -45.0136 C.3       10 UNK        -0.1800 
     24 N           3.4108  -21.6570  -43.2298 N.am      10 UNK        -0.5000 
     25 C           4.2741  -21.7769  -42.2093 C.2       9 UNK         0.5000 
     26 O           4.8276  -22.8329  -41.8985 O.2       9 UNK        -0.5000 
     27 CA          4.5556  -20.5165  -41.3715 C.3       9 UNK         0.1400 
     28 CB          5.5110  -19.5626  -42.1054 C.3       9 UNK        -0.1800 
     29 N           3.3277  -19.8144  -41.0057 N.am      9 UNK        -0.5000 
     30 C           2.4241  -20.2819  -40.1318 C.2       8 UNK         0.5000 
     31 O           2.5661  -21.3221  -39.4878 O.2       8 UNK        -0.5000 
     32 CA          1.1392  -19.4549  -39.9500 C.3       8 UNK         0.1400 
     33 CB          1.2884  -18.4684  -38.7817 C.3       8 UNK        -0.1800 
     34 N           0.7717  -18.7166  -41.1563 N.am      8 UNK        -0.5000 
     35 C           0.3044  -19.2780  -42.2792 C.2       7 UNK         0.5000 
     36 O           0.1206  -20.4855  -42.4305 O.2       7 UNK        -0.5000 
     37 CA          0.0537  -18.3201  -43.4528 C.3       7 UNK         0.1400 
     38 CB         -1.2328  -17.5198  -43.2245 C.3       7 UNK        -0.1800 
     39 N           1.1710  -17.4028  -43.6740 N.am      7 UNK        -0.5000 
     40 C           2.4231  -17.7806  -43.9779 C.2       6 UNK         0.5000 
     41 O           2.7527  -18.9548  -44.1492 O.2       6 UNK        -0.5000 
     42 CA          3.4980  -16.6791  -44.0687 C.3       6 UNK         0.1400 
     43 CB          3.6715  -16.2259  -45.5259 C.3       6 UNK        -0.1800 
     44 N           3.2067  -15.5084  -43.2425 N.am      6 UNK        -0.5000 
     45 C           3.0171  -15.5046  -41.9146 C.2       5 UNK         0.5000 
     46 O           3.1646  -16.4973  -41.2006 O.2       5 UNK        -0.5000 
     47 CA          2.5168  -14.1816  -41.2957 C.3       5 UNK         0.1400 
     48 CB          3.6784  -13.4251  -40.6348 C.3       5 UNK        -0.1800 
     49 N           1.8517  -13.2951  -42.2618 N.am      5 UNK        -0.5000 
     50 C           0.7323  -13.5973  -42.9355 C.2       4 UNK         0.5000 
     51 O           0.1130  -14.6516  -42.7817 O.2       4 UNK        -0.5000 
     52 CA          0.2994  -12.5928  -44.0151 C.3       4 UNK         0.1400 
     53 CB          1.2051  -12.7241  -45.2516 C.3       4 UNK        -0.1800 
     54 N          -1.0841  -12.8243  -44.4270 N.am      4 UNK        -0.5000 
     55 C          -2.1471  -12.2081  -43.8931 C.2       3 UNK         0.5000 
     56 O          -2.0635  -11.3774  -42.9868 O.2       3 UNK        -0.5000 
     57 CA         -3.5375  -12.5337  -44.4767 C.3       3 UNK         0.1400 
     58 CB         -4.0414  -11.3639  -45.3373 C.3       3 UNK        -0.1800 
     59 N          -3.5578  -13.7487  -45.2914 N.am      3 UNK        -0.5000 
     60 C          -3.6828  -14.9902  -44.8062 C.2       2 UNK         0.5000 
     61 O          -3.8366  -15.2440  -43.6116 O.2       2 UNK        -0.5000 
     62 CA         -3.6339  -16.1463  -45.8265 C.3       2 UNK         0.1400 
     63 CB         -5.0551  -16.6001  -46.1930 C.3       2 UNK        -0.1800 
     64 N          -2.9065  -15.8461  -47.0626 N.am      2 UNK        -0.5000 
     65 C          -1.6153  -15.5053  -47.1741 C.2       1 UNK         0.5000 
     66 O          -0.8740  -15.3166  -46.2097 O.2       1 UNK        -0.5000 
     67 C          -0.7707  -21.0396  -46.3094 C.2       11 UNK         0.5000 
     68 O          -1.5332  -20.9857  -47.2727 O.2       11 UNK        -0.5000 
     69 N          -1.1948  -21.3035  -45.0649 N.am      12 UNK        -0.5000 
     70 CA         -2.5589  -21.7363  -44.7467 C.3       12 UNK         0.1400 
     71 CB         -2.7727  -21.6764  -43.2274 C.3       12 UNK        -0.1800 
     72 C          -2.8858  -23.1467  -45.2865 C.2       12 UNK         0.5000 
     73 O          -4.0620  -23.4659  -45.4567 O.2       12 UNK        -0.5000 
     74 N          -1.8513  -23.9553  -45.5666 N.am      13 UNK        -0.5000 
     75 CA         -1.9587  -25.2904  -46.1587 C.3       13 UNK         0.1400 
     76 CB         -0.7485  -26.1301  -45.7164 C.3       13 UNK        -0.1800 
     77 C          -2.0843  -25.2737  -47.6982 C.2       13 UNK         0.5000 
     78 O          -2.1540  -26.3474  -48.2994 O.2       13 UNK        -0.5000 
     79 N          -2.1054  -24.0830  -48.3185 N.am      14 UNK        -0.5000 
     80 CA         -2.3675  -23.8828  -49.7466 C.3       14 UNK         0.1400 
     81 CB         -2.2116  -22.3898  -50.0752 C.3       14 UNK        -0.1800 
     82 C          -3.7678  -24.3752  -50.1620 C.2       14 UNK         0.5000 
     83 O          -4.6801  -24.4054  -49.3313 O.2       14 UNK        -0.5000 
     84 N          -3.9207  -24.7241  -51.4455 N.am      15 UNK        -0.5000 
     85 CA         -5.1622  -25.2115  -52.0492 C.3       15 UNK         0.1400 
     86 CB         -4.9030  -25.5642  -53.5204 C.3       15 UNK        -0.1800 
     87 C          -6.2989  -24.1837  -51.9056 C.2       15 UNK         0.5000 
     88 O          -6.2135  -23.0959  -52.4782 O.2       15 UNK        -0.5000 
     89 N          -7.2891  -24.5204  -51.0649 N.am      16 UNK        -0.5000 
     90 CA         -8.4107  -23.6779  -50.6227 C.3       16 UNK         0.1400 
     91 CB         -9.3687  -23.4030  -51.8008 C.3       16 UNK        -0.1800 
     92 C          -7.9784  -22.3747  -49.9072 C.2       16 UNK         0.5000 
     93 O          -8.7760  -21.4402  -49.8166 O.2       16 UNK        -0.5000 
     94 N          -6.7191  -22.3254  -49.4406 N.am      17 UNK        -0.5000 
     95 CA         -5.9951  -21.1553  -48.9328 C.3       17 UNK         0.1400 
     96 CB         -6.5432  -20.7314  -47.5548 C.3       17 UNK        -0.1800 
     97 C          -5.9318  -19.9868  -49.9462 C.2       17 UNK         0.5000 
     98 O          -5.8878  -18.8275  -49.5336 O.2       17 UNK        -0.5000 
     99 N          -5.9676  -20.3002  -51.2505 N.am      18 UNK        -0.5000 
    100 CA        -6.0840  -19.3178  -52.3224 C.3       18 UNK         0.1400 
    101 CB        -6.8819  -19.9300  -53.4842 C.3       18 UNK        -0.1800 
    102 C         -4.7074  -18.8451  -52.8097 C.2       18 UNK         0.5000 
    103 O         -3.8687  -19.6659  -53.1960 O.2       18 UNK        -0.5000 
    104 N         -4.5377  -17.5179  -52.8719 N.am      19 UNK        -0.5000 
    105 CA        -3.3595  -16.8313  -53.4120 C.3       19 UNK         0.1400 
    106 CB        -3.4426  -15.3392  -53.0557 C.3       19 UNK        -0.1800 
    107 C         -3.1777  -17.0144  -54.9336 C.2       19 UNK         0.5000 
    108 O         -2.0912  -16.7604  -55.4510 O.2       19 UNK        -0.5000 
    109 N         -4.2356  -17.4542  -55.6249 N.am      20 UNK        -0.5000 
    110 CA        -4.2065  -17.8191  -57.0388 C.3       20 UNK         0.1400 
    111 CB        -5.6277  -17.6789  -57.6071 C.3       20 UNK        -0.1800 
    112 C         -3.6744  -19.2466  -57.2808 C.2       20 UNK         0.5000 
    113 O         -3.2975  -19.5494  -58.4138 O.2       20 UNK        -0.5000 
    114 N         -3.6847  -20.1031  -56.2476 N.am      21 UNK        -0.5000 
    115 CA        -3.3867  -21.5313  -56.3649 C.3       21 UNK         0.1400 
    116 CB        -4.5454  -22.3362  -55.7579 C.3       21 UNK        -0.1800 
    117 C         -2.0578  -21.9141  -55.6958 C.2       21 UNK         0.5000 
    118 O         -1.2816  -22.6561  -56.2998 O.2       21 UNK        -0.5000 
    119 N         -1.8208  -21.4169  -54.4729 N.am      22 UNK        -0.5000 
    120 CA        -0.6844  -21.7916  -53.6077 C.3       22 UNK         0.1400 
    121 C         -0.7240  -23.2896  -53.1598 C.2       22 UNK         0.5000 
    122 N          0.3740  -23.8546  -52.6738 N.am      22 UNK        -0.7600 
    123 O         -1.7664  -23.9411  -53.1796 O.2       22 UNK        -0.5000 
    124 C124        0.7051  -21.3613  -54.1787 C.3       23 UNK        -0.0398 
    125 S125        0.8768  -19.6281  -54.7424 S.3       23 UNK        -0.2404 
    126 C126        0.0160  -18.6304  -53.4847 C.3       23 UNK        -0.0205 
    127 H127       -2.6899  -19.4183  -49.6266 H         1 UNK         0.0600 
    128 H128       -0.9696  -19.1803  -49.9168 H         1 UNK         0.0600 
    129 H129       -2.1344  -18.8963  -51.2143 H         1 UNK         0.0600 
    130 H130       -0.1500  -17.1586  -49.2812 H         1 UNK         0.3000 
    131 H131       -1.7818  -14.7462  -49.1547 H         1 UNK         0.0600 
    132 H132        1.0969  -15.3277  -48.2987 H         1 UNK         0.0800 
    133 H133        0.3136  -13.7940  -48.0254 H         1 UNK         0.0800 
    134 H134        2.9533  -14.8509  -49.9724 H         1 UNK         0.0800 
    135 H135        2.6472  -14.5717  -51.6680 H         1 UNK         0.0800 
    136 H136        0.7792  -16.1290  -52.7633 H         1 UNK         0.1150 
    137 H137        1.1725  -20.2265  -51.5609 H         1 UNK         0.1150 
    138 H138        3.0639  -17.1203  -49.2897 H         1 UNK         0.1150 
    139 H139        2.2120  -20.7914  -49.4806 H         1 UNK         0.0800 
    140 H140        3.7823  -20.0688  -49.7296 H         1 UNK         0.0800 
    141 H141        0.4587  -19.2827  -48.0318 H         1 UNK         0.0800 
    142 H142        0.8635  -18.6867  -46.4479 H         1 UNK         0.0800 
    143 H143        0.9695  -21.6009  -47.3358 H         1 UNK         0.0600 
    144 H144        2.2317  -20.4829  -45.1042 H         1 UNK         0.3000 
    145 H145        2.7565  -23.6175  -43.4698 H         1 UNK         0.0600 
    146 H146        5.0400  -23.5661  -44.4413 H         1 UNK         0.0600 
    147 H147        3.8993  -23.9690  -45.7066 H         1 UNK         0.0600 
    148 H148        4.5530  -22.3386  -45.6085 H         1 UNK         0.0600 
    149 H149        2.9956  -20.7496  -43.4167 H         1 UNK         0.3000 
    150 H150        5.0471  -20.8297  -40.4477 H         1 UNK         0.0600 
    151 H151        6.4854  -20.0308  -42.2488 H         1 UNK         0.0600 
    152 H152        5.6704  -18.6449  -41.5389 H         1 UNK         0.0600 
    153 H153        5.1382  -19.2905  -43.0917 H         1 UNK         0.0600 
    154 H154        3.1417  -18.9351  -41.4676 H         1 UNK         0.3000 
    155 H155        0.3288  -20.1475  -39.7129 H         1 UNK         0.0600 
    156 H156        2.0829  -17.7439  -38.9646 H         1 UNK         0.0600 
    157 H157        1.5301  -18.9935  -37.8567 H         1 UNK         0.0600 
    158 H158        0.3638  -17.9171  -38.6099 H         1 UNK         0.0600 
    159 H159        0.9450  -17.7213  -41.1477 H         1 UNK         0.3000 
    160 H160       -0.0722  -18.9099  -44.3577 H         1 UNK         0.0600 
    161 H161       -1.3506  -16.7562  -43.9901 H         1 UNK         0.0600 
    162 H162       -1.2336  -17.0105  -42.2601 H         1 UNK         0.0600 
    163 H163       -2.1102  -18.1664  -43.2574 H         1 UNK         0.0600 
    164 H164        0.9719  -16.4186  -43.5302 H         1 UNK         0.3000 
    165 H165        4.4422  -17.1010  -43.7215 H         1 UNK         0.0600 
    166 H166        4.4358  -15.4536  -45.6137 H         1 UNK         0.0600 
    167 H167        3.9841  -17.0585  -46.1562 H         1 UNK         0.0600 
    168 H168        2.7428  -15.8307  -45.9400 H         1 UNK         0.0600 
    169 H169        3.0672  -14.6395  -43.7349 H         1 UNK         0.3000 
    170 H170        1.7900  -14.4398  -40.5228 H         1 UNK         0.0600 
    171 H171        4.1776  -14.0483  -39.8914 H         1 UNK         0.0600 
    172 H172        4.4288  -13.1212  -41.3657 H         1 UNK         0.0600 
    173 H173        3.3258  -12.5302  -40.1216 H         1 UNK         0.0600 
    174 H174        2.3097  -12.4137  -42.4459 H         1 UNK         0.3000 
    175 H175        0.4054  -11.5822  -43.6148 H         1 UNK         0.0600 
    176 H176        1.2095  -13.7416  -45.6434 H         1 UNK         0.0600 
    177 H177        0.8794  -12.0588  -46.0515 H         1 UNK         0.0600 
    178 H178        2.2367  -12.4611  -45.0154 H         1 UNK         0.0600 
    179 H179       -1.2286  -13.5825  -45.0838 H         1 UNK         0.3000 
    180 H180       -4.2246  -12.6549  -43.6365 H         1 UNK         0.0600 
    181 H181       -3.3930  -11.1875  -46.1965 H         1 UNK         0.0600 
    182 H182       -4.0786  -10.4395  -44.7592 H         1 UNK         0.0600 
    183 H183       -5.0488  -11.5526  -45.7089 H         1 UNK         0.0600 
    184 H184       -3.4466  -13.6325  -46.2876 H         1 UNK         0.3000 
    185 H185       -3.1328  -16.9900  -45.3524 H         1 UNK         0.0600 
    186 H186       -5.6190  -16.8820  -45.3028 H         1 UNK         0.0600 
    187 H187       -5.6109  -15.8095  -46.6986 H         1 UNK         0.0600 
    188 H188       -5.0351  -17.4685  -46.8525 H         1 UNK         0.0600 
    189 H189       -3.4018  -16.0361  -47.9292 H         1 UNK         0.3000 
    190 H190       -0.5221  -21.3282  -44.3067 H         1 UNK         0.3000 
    191 H191       -3.2570  -21.0386  -45.2144 H         1 UNK         0.0600 
    192 H192       -2.6453  -20.6617  -42.8510 H         1 UNK         0.0600 
    193 H193       -2.0712  -22.3223  -42.6976 H         1 UNK         0.0600 
    194 H194       -3.7808  -21.9955  -42.9599 H         1 UNK         0.0600 
    195 H195       -0.9050  -23.6232  -45.4018 H         1 UNK         0.3000 
    196 H196       -2.8577  -25.7732  -45.7702 H         1 UNK         0.0600 
    197 H197       -0.8602  -27.1703  -46.0247 H         1 UNK         0.0600 
    198 H198       -0.6362  -26.1245  -44.6320 H         1 UNK         0.0600 
    199 H199        0.1794  -25.7596  -46.1529 H         1 UNK         0.0600 
    200 H200       -2.0560  -23.2471  -47.7528 H         1 UNK         0.3000 
    201 H201       -1.6244  -24.4496  -50.3108 H         1 UNK         0.0600 
    202 H202       -1.1764  -22.0665  -49.9647 H         1 UNK         0.0600 
    203 H203       -2.8240  -21.7747  -49.4196 H         1 UNK         0.0600 
    204 H204       -2.5204  -22.1668  -51.0966 H         1 UNK         0.0600 
    205 H205       -3.1413  -24.5808  -52.0851 H         1 UNK         0.3000 
    206 H206       -5.4475  -26.1286  -51.5300 H         1 UNK         0.0600 
    207 H207       -4.1859  -26.3804  -53.6087 H         1 UNK         0.0600 
    208 H208       -5.8207  -25.8778  -54.0193 H         1 UNK         0.0600 
    209 H209       -4.5021  -24.7115  -54.0661 H         1 UNK         0.0600 
    210 H210       -7.2296  -25.4197  -50.6073 H         1 UNK         0.3000 
    211 H211       -8.9566  -24.2614  -49.8802 H         1 UNK         0.0600 
    212 H212       -8.9112  -22.7575  -52.5514 H         1 UNK         0.0600 
    213 H213      -10.2805  -22.9114  -51.4600 H         1 UNK         0.0600 
    214 H214       -9.6667  -24.3293  -52.2917 H         1 UNK         0.0600 
    215 H215       -6.1525  -23.1652  -49.5273 H         1 UNK         0.3000 
    216 H216       -4.9674  -21.4813  -48.7808 H         1 UNK         0.0600 
    217 H217       -5.9222  -19.9539  -47.1085 H         1 UNK         0.0600 
    218 H218       -6.5534  -21.5720  -46.8608 H         1 UNK         0.0600 
    219 H219       -7.5583  -20.3401  -47.6258 H         1 UNK         0.0600 
    220 H220       -5.9837  -21.2744  -51.5348 H         1 UNK         0.3000 
    221 H221       -6.6495  -18.4569  -51.9587 H         1 UNK         0.0600 
    222 H222       -6.3777  -20.7972  -53.9095 H         1 UNK         0.0600 
    223 H223       -7.8705  -20.2509  -53.1550 H         1 UNK         0.0600 
    224 H224       -7.0249  -19.2070  -54.2881 H         1 UNK         0.0600 
    225 H225       -5.2712  -16.9197  -52.5195 H         1 UNK         0.3000 
    226 H226       -2.4771  -17.2439  -52.9234 H         1 UNK         0.0600 
    227 H227       -3.5012  -15.1928  -51.9770 H         1 UNK         0.0600 
    228 H228       -2.5582  -14.8043  -53.4045 H         1 UNK         0.0600 
    229 H229       -4.3143  -14.8650  -53.5080 H         1 UNK         0.0600 
    230 H230       -5.1034  -17.6025  -55.1328 H         1 UNK         0.3000 
    231 H231       -3.5558  -17.1265  -57.5769 H         1 UNK         0.0600 
    232 H232       -6.0000  -16.6607  -57.4920 H         1 UNK         0.0600 
    233 H233       -6.3286  -18.3518  -57.1112 H         1 UNK         0.0600 
    234 H234       -5.6478  -17.9116  -58.6727 H         1 UNK         0.0600 
    235 H235       -3.9410  -19.7688  -55.3277 H         1 UNK         0.3000 
    236 H236       -3.3150  -21.8178  -57.4162 H         1 UNK         0.0600 
    237 H237       -4.4151  -23.3997  -55.9577 H         1 UNK         0.0600 
    238 H238       -4.6081  -22.2073  -54.6765 H         1 UNK         0.0600 
    239 H239       -5.5029  -22.0424  -56.1881 H         1 UNK         0.0600 
    240 H240       -2.5346  -20.8425  -54.0356 H         1 UNK         0.3000 
    241 H241       -0.8435  -21.2519  -52.6758 H         1 UNK         0.0600 
    242 H242        1.2525  -23.3665  -52.6147 H         1 UNK         0.3800 
    243 H243        0.3302  -24.8181  -52.3819 H         1 UNK         0.3800 
    244 H244        1.4887  -21.5253  -53.4394 H         1 UNK         0.0800 
    245 H245        0.9690  -21.9983  -55.0240 H         1 UNK         0.0800 
    246 H246       -0.3091  -17.7268  -53.9951 H         1 UNK         0.0800 
    247 H247       -0.8970  -19.1099  -53.1430 H         1 UNK         0.0800 
@<TRIPOS>BOND
     1    1    2 1    
     2    1  127 1    
     3    1  128 1    
     4    1  129 1    
     5    2    3 2    
     6    2    4 am   BACKBONE|DICT|INTERRES
     7    4    5 1    
     8    4  130 1    
     9    5    6 1    
    10    5   65 1    
    11    5  131 1    
    12    6    7 1    
    13    6  132 1    
    14    6  133 1    
    15    7    8 1    
    16    8    9 1    
    17    8  134 1    
    18    8  135 1    
    19    9   10 ar   
    20    9   14 ar   
    21   10   11 ar   
    22   10  136 1    
    23   11   12 ar   
    24   11  126 1    
    25   12   13 ar   
    26   12  137 1    
    27   13   14 ar   
    28   13   15 1    
    29   14  138 1    
    30   15   16 1    
    31   15  139 1    
    32   15  140 1    
    33   16   17 1    
    34   17   18 1    
    35   17  141 1    
    36   17  142 1    
    37   18   19 1    
    38   18   67 1    
    39   18  143 1    
    40   19   20 am   BACKBONE|DICT|INTERRES
    41   19  144 1    
    42   20   21 2    
    43   20   22 1    
    44   22   23 1    
    45   22   24 1    
    46   22  145 1    
    47   23  146 1    
    48   23  147 1    
    49   23  148 1    
    50   24   25 am   BACKBONE|DICT|INTERRES
    51   24  149 1    
    52   25   26 2    
    53   25   27 1    
    54   27   28 1    
    55   27   29 1    
    56   27  150 1    
    57   28  151 1    
    58   28  152 1    
    59   28  153 1    
    60   29   30 am   BACKBONE|DICT|INTERRES
    61   29  154 1    
    62   30   31 2    
    63   30   32 1    
    64   32   33 1    
    65   32   34 1    
    66   32  155 1    
    67   33  156 1    
    68   33  157 1    
    69   33  158 1    
    70   34   35 am   BACKBONE|DICT|INTERRES
    71   34  159 1    
    72   35   36 2    
    73   35   37 1    
    74   37   38 1    
    75   37   39 1    
    76   37  160 1    
    77   38  161 1    
    78   38  162 1    
    79   38  163 1    
    80   39   40 am   BACKBONE|DICT|INTERRES
    81   39  164 1    
    82   40   41 2    
    83   40   42 1    
    84   42   43 1    
    85   42   44 1    
    86   42  165 1    
    87   43  166 1    
    88   43  167 1    
    89   43  168 1    
    90   44   45 am   BACKBONE|DICT|INTERRES
    91   44  169 1    
    92   45   46 2    
    93   45   47 1    
    94   47   48 1    
    95   47   49 1    
    96   47  170 1    
    97   48  171 1    
    98   48  172 1    
    99   48  173 1    
   100   49   50 am   BACKBONE|DICT|INTERRES
   101   49  174 1    
   102   50   51 2    
   103   50   52 1    
   104   52   53 1    
   105   52   54 1    
   106   52  175 1    
   107   53  176 1    
   108   53  177 1    
   109   53  178 1    
   110   54   55 am   BACKBONE|DICT|INTERRES
   111   54  179 1    
   112   55   56 2    
   113   55   57 1    
   114   57   58 1    
   115   57   59 1    
   116   57  180 1    
   117   58  181 1    
   118   58  182 1    
   119   58  183 1    
   120   59   60 am   BACKBONE|DICT|INTERRES
   121   59  184 1    
   122   60   61 2    
   123   60   62 1    
   124   62   63 1    
   125   62   64 1    
   126   62  185 1    
   127   63  186 1    
   128   63  187 1    
   129   63  188 1    
   130   64   65 am   BACKBONE|DICT|INTERRES
   131   64  189 1    
   132   65   66 2    
   133   67   68 2    
   134   67   69 am   BACKBONE|DICT|INTERRES
   135   69   70 1    
   136   69  190 1    
   137   70   71 1    
   138   70   72 1    
   139   70  191 1    
   140   71  192 1    
   141   71  193 1    
   142   71  194 1    
   143   72   73 2    
   144   72   74 am   BACKBONE|DICT|INTERRES
   145   74   75 1    
   146   74  195 1    
   147   75   76 1    
   148   75   77 1    
   149   75  196 1    
   150   76  197 1    
   151   76  198 1    
   152   76  199 1    
   153   77   78 2    
   154   77   79 am   BACKBONE|DICT|INTERRES
   155   79   80 1    
   156   79  200 1    
   157   80   81 1    
   158   80   82 1    
   159   80  201 1    
   160   81  202 1    
   161   81  203 1    
   162   81  204 1    
   163   82   83 2    
   164   82   84 am   BACKBONE|DICT|INTERRES
   165   84   85 1    
   166   84  205 1    
   167   85   86 1    
   168   85   87 1    
   169   85  206 1    
   170   86  207 1    
   171   86  208 1    
   172   86  209 1    
   173   87   88 2    
   174   87   89 am   BACKBONE|DICT|INTERRES
   175   89   90 1    
   176   89  210 1    
   177   90   91 1    
   178   90   92 1    
   179   90  211 1    
   180   91  212 1    
   181   91  213 1    
   182   91  214 1    
   183   92   93 2    
   184   92   94 am   BACKBONE|DICT|INTERRES
   185   94   95 1    
   186   94  215 1    
   187   95   96 1    
   188   95   97 1    
   189   95  216 1    
   190   96  217 1    
   191   96  218 1    
   192   96  219 1    
   193   97   98 2    
   194   97   99 am   BACKBONE|DICT|INTERRES
   195   99  100 1    
   196   99  220 1    
   197  100  101 1    
   198  100  102 1    
   199  100  221 1    
   200  101  222 1    
   201  101  223 1    
   202  101  224 1    
   203  102  103 2    
   204  102  104 am   BACKBONE|DICT|INTERRES
   205  104  105 1    
   206  104  225 1    
   207  105  106 1    
   208  105  107 1    
   209  105  226 1    
   210  106  227 1    
   211  106  228 1    
   212  106  229 1    
   213  107  108 2    
   214  107  109 am   BACKBONE|DICT|INTERRES
   215  109  110 1    
   216  109  230 1    
   217  110  111 1    
   218  110  112 1    
   219  110  231 1    
   220  111  232 1    
   221  111  233 1    
   222  111  234 1    
   223  112  113 2    
   224  112  114 am   BACKBONE|DICT|INTERRES
   225  114  115 1    
   226  114  235 1    
   227  115  116 1    
   228  115  117 1    
   229  115  236 1    
   230  116  237 1    
   231  116  238 1    
   232  116  239 1    
   233  117  118 2    
   234  117  119 am   BACKBONE|DICT|INTERRES
   235  119  120 1    
   236  119  240 1    
   237  120  121 1    
   238  120  124 1    
   239  120  241 1    
   240  121  122 am   BACKBONE|DICT|INTERRES
   241  121  123 2    
   242  122  242 1    
   243  122  243 1    
   244  124  125 1    
   245  124  244 1    
   246  124  245 1    
   247  125  126 1    
   248  126  246 1    
   249  126  247 1    
@<TRIPOS>SUBSTRUCTURE
     1 UNK         1 GROUP             0       ****    0 ROOT    
