@<TRIPOS>MOLECULE
3R540
247   249    1
SMALL
USER_CHARGES


@<TRIPOS>ATOM
      1 CA         -3.7533  -11.3033  -47.6039 C.3       0 UNK        -0.1800 
      2 C          -2.5888  -12.2775  -47.5042 C.2       0 UNK         0.5000 
      3 O          -1.5306  -11.9172  -46.9888 O.2       0 UNK        -0.5000 
      4 N          -2.7851  -13.5171  -47.9736 N.am      1 UNK        -0.5000 
      5 CA         -1.7734  -14.5848  -48.0343 C.3       1 UNK         0.1400 
      6 C6         -2.2389  -15.7768  -48.9025 C.3       23 UNK        -0.0398 
      7 S7         -2.6254  -15.2972  -50.6229 S.3       23 UNK        -0.2404 
      8 C8         -0.9823  -15.2875  -51.4165 C.3       23 UNK        -0.0205 
      9 C9         -0.2529  -16.6192  -51.2996 C.ar      23 UNK        -0.0193 
     10 C10        -0.7331  -17.7517  -51.9614 C.ar      23 UNK        -0.1150 
     11 C11        -0.0783  -18.9817  -51.8456 C.ar      23 UNK        -0.0193 
     12 C12         1.0753  -19.0674  -51.0526 C.ar      23 UNK        -0.1150 
     13 C13         1.5731  -17.9388  -50.3941 C.ar      23 UNK        -0.0193 
     14 C14         0.9049  -16.7181  -50.5250 C.ar      23 UNK        -0.1150 
     15 C15         2.8249  -18.0252  -49.5259 C.3       23 UNK        -0.0205 
     16 S16         2.6444  -19.1018  -48.0600 S.3       23 UNK        -0.2404 
     17 C17         1.0154  -18.6266  -47.3886 C.3       23 UNK        -0.0398 
     18 CA          0.0997  -19.8617  -47.2539 C.3       11 UNK         0.1400 
     19 N           0.4479  -20.6871  -46.0880 N.am      11 UNK        -0.5000 
     20 C          -0.0509  -21.9111  -45.8594 C.2       10 UNK         0.5000 
     21 O          -0.8698  -22.4463  -46.6059 O.2       10 UNK        -0.5000 
     22 CA          0.3688  -22.6408  -44.5682 C.3       10 UNK         0.1400 
     23 CB          0.4314  -24.1730  -44.7424 C.3       10 UNK        -0.1800 
     24 N           1.5912  -22.1224  -43.9510 N.am      10 UNK        -0.5000 
     25 C           2.8549  -22.2149  -44.3955 C.2       9 UNK         0.5000 
     26 O           3.1708  -22.7650  -45.4507 O.2       9 UNK        -0.5000 
     27 CA          3.9571  -21.5893  -43.5110 C.3       9 UNK         0.1400 
     28 CB          4.8320  -20.6114  -44.3152 C.3       9 UNK        -0.1800 
     29 N           3.4019  -20.8867  -42.3512 N.am      9 UNK        -0.5000 
     30 C           3.1443  -21.4385  -41.1568 C.2       8 UNK         0.5000 
     31 O           3.4546  -22.5914  -40.8570 O.2       8 UNK        -0.5000 
     32 CA          2.3734  -20.5727  -40.1386 C.3       8 UNK         0.1400 
     33 CB          3.3362  -19.9568  -39.1123 C.3       8 UNK        -0.1800 
     34 N           1.5882  -19.5078  -40.7727 N.am      8 UNK        -0.5000 
     35 C           0.4588  -19.7115  -41.4702 C.2       7 UNK         0.5000 
     36 O          -0.0562  -20.8191  -41.6174 O.2       7 UNK        -0.5000 
     37 CA         -0.1613  -18.4938  -42.1877 C.3       7 UNK         0.1400 
     38 CB         -1.1679  -17.7814  -41.2742 C.3       7 UNK        -0.1800 
     39 N           0.8389  -17.5318  -42.6545 N.am      7 UNK        -0.5000 
     40 C           1.8263  -17.8147  -43.5161 C.2       6 UNK         0.5000 
     41 O           1.9041  -18.8881  -44.1137 O.2       6 UNK        -0.5000 
     42 CA          2.9484  -16.7698  -43.6784 C.3       6 UNK         0.1400 
     43 CB          2.8651  -16.0606  -45.0359 C.3       6 UNK        -0.1800 
     44 N           2.9649  -15.7783  -42.5949 N.am      6 UNK        -0.5000 
     45 C           3.3906  -16.0416  -41.3504 C.2       5 UNK         0.5000 
     46 O           3.8138  -17.1490  -41.0182 O.2       5 UNK        -0.5000 
     47 CA          3.3123  -14.9138  -40.3023 C.3       5 UNK         0.1400 
     48 CB          4.4794  -14.9830  -39.2946 C.3       5 UNK        -0.1800 
     49 N           3.2570  -13.5866  -40.9197 N.am      5 UNK        -0.5000 
     50 C           2.7930  -12.4810  -40.3190 C.2       4 UNK         0.5000 
     51 O           2.3182  -12.4639  -39.1826 O.2       4 UNK        -0.5000 
     52 CA          2.8699  -11.1717  -41.1266 C.3       4 UNK         0.1400 
     53 CB          4.2950  -10.5969  -41.0995 C.3       4 UNK        -0.1800 
     54 N           2.4516  -11.3717  -42.5132 N.am      4 UNK        -0.5000 
     55 C           1.1750  -11.4880  -42.9027 C.2       3 UNK         0.5000 
     56 O           0.2154  -11.2799  -42.1563 O.2       3 UNK        -0.5000 
     57 CA          0.9202  -11.9086  -44.3685 C.3       3 UNK         0.1400 
     58 CB          2.1773  -12.4344  -45.0945 C.3       3 UNK        -0.1800 
     59 N          -0.1676  -12.8832  -44.4990 N.am      3 UNK        -0.5000 
     60 C          -0.3232  -14.0384  -43.8301 C.2       2 UNK         0.5000 
     61 O           0.4599  -14.4563  -42.9759 O.2       2 UNK        -0.5000 
     62 CA         -1.5540  -14.8940  -44.1918 C.3       2 UNK         0.1400 
     63 CB         -2.7212  -14.5784  -43.2446 C.3       2 UNK        -0.1800 
     64 N          -1.9960  -14.7050  -45.5738 N.am      2 UNK        -0.5000 
     65 C          -1.2943  -15.0822  -46.6519 C.2       1 UNK         0.5000 
     66 O          -0.2849  -15.7810  -46.5858 O.2       1 UNK        -0.5000 
     67 C          -1.3850  -19.4500  -47.2583 C.2       11 UNK         0.5000 
     68 O          -1.9999  -19.4262  -48.3229 O.2       11 UNK        -0.5000 
     69 N          -1.9508  -19.1873  -46.0717 N.am      12 UNK        -0.5000 
     70 CA         -3.3744  -18.8987  -45.8891 C.3       12 UNK         0.1400 
     71 CB         -3.6156  -18.4322  -44.4458 C.3       12 UNK        -0.1800 
     72 C          -4.2668  -20.1083  -46.2289 C.2       12 UNK         0.5000 
     73 O          -5.2995  -19.9437  -46.8787 O.2       12 UNK        -0.5000 
     74 N          -3.8303  -21.3051  -45.8114 N.am      13 UNK        -0.5000 
     75 CA         -4.5006  -22.5739  -46.0930 C.3       13 UNK         0.1400 
     76 CB         -3.9205  -23.6770  -45.1952 C.3       13 UNK        -0.1800 
     77 C          -4.4027  -22.9600  -47.5779 C.2       13 UNK         0.5000 
     78 O          -5.4029  -23.3770  -48.1597 O.2       13 UNK        -0.5000 
     79 N          -3.2162  -22.7745  -48.1737 N.am      14 UNK        -0.5000 
     80 CA         -2.9590  -22.9835  -49.5980 C.3       14 UNK         0.1400 
     81 CB         -1.4592  -22.8241  -49.8835 C.3       14 UNK        -0.1800 
     82 C          -3.7929  -22.0441  -50.4851 C.2       14 UNK         0.5000 
     83 O          -4.3749  -22.5020  -51.4655 O.2       14 UNK        -0.5000 
     84 N          -3.8847  -20.7639  -50.0955 N.am      15 UNK        -0.5000 
     85 CA         -4.7335  -19.7619  -50.7380 C.3       15 UNK         0.1400 
     86 CB         -4.4960  -18.3910  -50.0961 C.3       15 UNK        -0.1800 
     87 C          -6.2249  -20.1403  -50.7061 C.2       15 UNK         0.5000 
     88 O          -6.8845  -20.0899  -51.7460 O.2       15 UNK        -0.5000 
     89 N          -6.7095  -20.5572  -49.5263 N.am      16 UNK        -0.5000 
     90 CA         -8.0786  -21.0265  -49.3030 C.3       16 UNK         0.1400 
     91 CB         -8.3068  -21.2466  -47.8003 C.3       16 UNK        -0.1800 
     92 C          -8.4291  -22.2975  -50.1009 C.2       16 UNK         0.5000 
     93 O          -9.5554  -22.4162  -50.5850 O.2       16 UNK        -0.5000 
     94 N          -7.4550  -23.2005  -50.2739 N.am      17 UNK        -0.5000 
     95 CA         -7.5433  -24.4326  -51.0632 C.3       17 UNK         0.1400 
     96 CB         -6.4606  -25.4106  -50.5718 C.3       17 UNK        -0.1800 
     97 C          -7.4649  -24.1841  -52.5883 C.2       17 UNK         0.5000 
     98 O          -6.7266  -24.8778  -53.2908 O.2       17 UNK        -0.5000 
     99 N          -8.2302  -23.1955  -53.0754 N.am      18 UNK        -0.5000 
    100 CA        -8.3503  -22.7552  -54.4707 C.3       18 UNK         0.1400 
    101 CB        -9.1227  -23.8057  -55.2953 C.3       18 UNK        -0.1800 
    102 C         -6.9930  -22.3743  -55.1003 C.2       18 UNK         0.5000 
    103 O         -6.7057  -22.7576  -56.2351 O.2       18 UNK        -0.5000 
    104 N         -6.1674  -21.6636  -54.3191 N.am      19 UNK        -0.5000 
    105 CA        -4.7911  -21.2331  -54.5980 C.3       19 UNK         0.1400 
    106 CB        -4.7138  -20.3740  -55.8754 C.3       19 UNK        -0.1800 
    107 C         -3.7332  -22.3576  -54.6008 C.2       19 UNK         0.5000 
    108 O         -2.5450  -22.0405  -54.5912 O.2       19 UNK        -0.5000 
    109 N         -4.1538  -23.6311  -54.5821 N.am      20 UNK        -0.5000 
    110 CA        -3.3671  -24.8698  -54.5420 C.3       20 UNK         0.1400 
    111 CB        -2.5730  -24.9813  -53.2255 C.3       20 UNK        -0.1800 
    112 C         -2.4596  -25.1013  -55.7687 C.2       20 UNK         0.5000 
    113 O         -2.6033  -26.1225  -56.4422 O.2       20 UNK        -0.5000 
    114 N         -1.5543  -24.1551  -56.0337 N.am      21 UNK        -0.5000 
    115 CA        -0.5800  -24.1280  -57.1255 C.3       21 UNK         0.1400 
    116 CB         0.4282  -25.2893  -57.0087 C.3       21 UNK        -0.1800 
    117 C          0.1684  -22.7840  -57.1390 C.2       21 UNK         0.5000 
    118 O          0.5005  -22.2830  -58.2142 O.2       21 UNK        -0.5000 
    119 N          0.4260  -22.2336  -55.9460 N.am      22 UNK        -0.5000 
    120 CA         1.0314  -20.9157  -55.7062 C.3       22 UNK         0.1400 
    121 C          0.1501  -19.7099  -56.1513 C.2       22 UNK         0.5000 
    122 N          0.7222  -18.5147  -56.2202 N.am      22 UNK        -0.7600 
    123 O         -1.0387  -19.8303  -56.4338 O.2       22 UNK        -0.5000 
    124 C124        1.5437  -20.7755  -54.2408 C.3       23 UNK        -0.0398 
    125 S125        0.4873  -21.5378  -52.9547 S.3       23 UNK        -0.2404 
    126 C126       -0.6796  -20.1921  -52.5581 C.3       23 UNK        -0.0205 
    127 H127       -4.6268  -11.7614  -48.0684 H         1 UNK         0.0600 
    128 H128       -4.0381  -10.9561  -46.6108 H         1 UNK         0.0600 
    129 H129       -3.4662  -10.4370  -48.1999 H         1 UNK         0.0600 
    130 H130       -3.6761  -13.7464  -48.3913 H         1 UNK         0.3000 
    131 H131       -0.8901  -14.1559  -48.5119 H         1 UNK         0.0600 
    132 H132       -1.4944  -16.5739  -48.9140 H         1 UNK         0.0800 
    133 H133       -3.1355  -16.2241  -48.4707 H         1 UNK         0.0800 
    134 H134       -0.3868  -14.4805  -50.9873 H         1 UNK         0.0800 
    135 H135       -1.1054  -15.0434  -52.4725 H         1 UNK         0.0800 
    136 H136       -1.6327  -17.6752  -52.5561 H         1 UNK         0.1150 
    137 H137        1.5863  -20.0112  -50.9302 H         1 UNK         0.1150 
    138 H138        1.2793  -15.8446  -50.0098 H         1 UNK         0.1150 
    139 H139        3.6521  -18.3952  -50.1328 H         1 UNK         0.0800 
    140 H140        3.1215  -17.0323  -49.1842 H         1 UNK         0.0800 
    141 H141        0.5623  -17.8704  -48.0274 H         1 UNK         0.0800 
    142 H142        1.1451  -18.1342  -46.4277 H         1 UNK         0.0800 
    143 H143        0.2371  -20.4817  -48.1427 H         1 UNK         0.0600 
    144 H144        1.1098  -20.2880  -45.4305 H         1 UNK         0.3000 
    145 H145       -0.4270  -22.4359  -43.8512 H         1 UNK         0.0600 
    146 H146        0.7261  -24.6641  -43.8150 H         1 UNK         0.0600 
    147 H147       -0.5411  -24.5769  -45.0249 H         1 UNK         0.0600 
    148 H148        1.1389  -24.4656  -45.5184 H         1 UNK         0.0600 
    149 H149        1.4436  -21.6350  -43.0771 H         1 UNK         0.3000 
    150 H150        4.5966  -22.4049  -43.1679 H         1 UNK         0.0600 
    151 H151        5.3528  -21.1284  -45.1220 H         1 UNK         0.0600 
    152 H152        5.5917  -20.1498  -43.6842 H         1 UNK         0.0600 
    153 H153        4.2434  -19.8150  -44.7700 H         1 UNK         0.0600 
    154 H154        3.0790  -19.9450  -42.5266 H         1 UNK         0.3000 
    155 H155        1.6850  -21.2296  -39.6024 H         1 UNK         0.0600 
    156 H156        4.0947  -19.3368  -39.5902 H         1 UNK         0.0600 
    157 H157        3.8581  -20.7354  -38.5547 H         1 UNK         0.0600 
    158 H158        2.8036  -19.3402  -38.3880 H         1 UNK         0.0600 
    159 H159        1.9813  -18.5768  -40.7302 H         1 UNK         0.3000 
    160 H160       -0.6975  -18.8668  -43.0621 H         1 UNK         0.0600 
    161 H161       -1.6917  -16.9892  -41.8067 H         1 UNK         0.0600 
    162 H162       -0.6804  -17.3377  -40.4053 H         1 UNK         0.0600 
    163 H163       -1.9244  -18.4770  -40.9083 H         1 UNK         0.0600 
    164 H164        0.8161  -16.6058  -42.2478 H         1 UNK         0.3000 
    165 H165        3.8942  -17.3155  -43.6541 H         1 UNK         0.0600 
    166 H166        2.9473  -16.7748  -45.8550 H         1 UNK         0.0600 
    167 H167        1.9235  -15.5272  -45.1569 H         1 UNK         0.0600 
    168 H168        3.6790  -15.3463  -45.1573 H         1 UNK         0.0600 
    169 H169        2.4485  -14.9228  -42.7645 H         1 UNK         0.3000 
    170 H170        2.3797  -15.0791  -39.7591 H         1 UNK         0.0600 
    171 H171        4.5143  -15.9510  -38.7932 H         1 UNK         0.0600 
    172 H172        5.4401  -14.8323  -39.7881 H         1 UNK         0.0600 
    173 H173        4.3823  -14.2276  -38.5150 H         1 UNK         0.0600 
    174 H174        3.6461  -13.5133  -41.8481 H         1 UNK         0.3000 
    175 H175        2.2051  -10.4442  -40.6556 H         1 UNK         0.0600 
    176 H176        4.3421   -9.6382  -41.6164 H         1 UNK         0.0600 
    177 H177        4.6272  -10.4288  -40.0742 H         1 UNK         0.0600 
    178 H178        5.0139  -11.2679  -41.5712 H         1 UNK         0.0600 
    179 H179        3.1816  -11.5202  -43.1942 H         1 UNK         0.3000 
    180 H180        0.5850  -11.0116  -44.8908 H         1 UNK         0.0600 
    181 H181        2.6403  -13.2582  -44.5533 H         1 UNK         0.0600 
    182 H182        2.9247  -11.6492  -45.2134 H         1 UNK         0.0600 
    183 H183        1.9314  -12.7921  -46.0947 H         1 UNK         0.0600 
    184 H184       -0.8588  -12.6442  -45.2017 H         1 UNK         0.3000 
    185 H185       -1.2717  -15.9404  -44.0629 H         1 UNK         0.0600 
    186 H186       -3.0675  -13.5509  -43.3632 H         1 UNK         0.0600 
    187 H187       -3.5683  -15.2406  -43.4236 H         1 UNK         0.0600 
    188 H188       -2.4254  -14.7026  -42.2022 H         1 UNK         0.0600 
    189 H189       -2.8189  -14.1382  -45.7168 H         1 UNK         0.3000 
    190 H190       -1.3765  -19.2309  -45.2445 H         1 UNK         0.3000 
    191 H191       -3.6448  -18.0829  -46.5629 H         1 UNK         0.0600 
    192 H192       -3.3503  -19.2016  -43.7198 H         1 UNK         0.0600 
    193 H193       -4.6650  -18.1797  -44.2883 H         1 UNK         0.0600 
    194 H194       -3.0318  -17.5422  -44.2179 H         1 UNK         0.0600 
    195 H195       -2.9499  -21.3569  -45.3234 H         1 UNK         0.3000 
    196 H196       -5.5587  -22.4606  -45.8472 H         1 UNK         0.0600 
    197 H197       -4.4334  -24.6247  -45.3646 H         1 UNK         0.0600 
    198 H198       -4.0364  -23.4292  -44.1400 H         1 UNK         0.0600 
    199 H199       -2.8605  -23.8409  -45.3874 H         1 UNK         0.0600 
    200 H200       -2.4223  -22.4847  -47.6073 H         1 UNK         0.3000 
    201 H201       -3.2429  -24.0099  -49.8388 H         1 UNK         0.0600 
    202 H202       -0.8660  -23.5118  -49.2808 H         1 UNK         0.0600 
    203 H203       -1.1132  -21.8116  -49.6746 H         1 UNK         0.0600 
    204 H204       -1.2405  -23.0378  -50.9299 H         1 UNK         0.0600 
    205 H205       -3.3309  -20.4461  -49.3050 H         1 UNK         0.3000 
    206 H206       -4.4235  -19.6878  -51.7789 H         1 UNK         0.0600 
    207 H207       -3.4516  -18.1007  -50.2016 H         1 UNK         0.0600 
    208 H208       -5.0993  -17.6203  -50.5769 H         1 UNK         0.0600 
    209 H209       -4.7389  -18.3887  -49.0337 H         1 UNK         0.0600 
    210 H210       -6.0987  -20.5446  -48.7163 H         1 UNK         0.3000 
    211 H211       -8.7542  -20.2356  -49.6349 H         1 UNK         0.0600 
    212 H212       -7.6398  -22.0097  -47.3987 H         1 UNK         0.0600 
    213 H213       -9.3303  -21.5678  -47.6030 H         1 UNK         0.0600 
    214 H214       -8.1400  -20.3280  -47.2375 H         1 UNK         0.0600 
    215 H215       -6.5664  -23.0354  -49.8125 H         1 UNK         0.3000 
    216 H216       -8.5139  -24.8935  -50.8702 H         1 UNK         0.0600 
    217 H217       -6.5339  -26.3711  -51.0831 H         1 UNK         0.0600 
    218 H218       -6.5601  -25.6052  -49.5038 H         1 UNK         0.0600 
    219 H219       -5.4587  -25.0179  -50.7482 H         1 UNK         0.0600 
    220 H220       -8.8024  -22.6946  -52.4030 H         1 UNK         0.3000 
    221 H221       -8.9464  -21.8417  -54.4559 H         1 UNK         0.0600 
    222 H222       -8.5669  -24.7399  -55.3822 H         1 UNK         0.0600 
    223 H223      -10.0876  -24.0310  -54.8414 H         1 UNK         0.0600 
    224 H224       -9.3174  -23.4448  -56.3059 H         1 UNK         0.0600 
    225 H225       -6.5000  -21.4206  -53.3917 H         1 UNK         0.3000 
    226 H226       -4.5200  -20.5851  -53.7681 H         1 UNK         0.0600 
    227 H227       -4.8754  -20.9647  -56.7770 H         1 UNK         0.0600 
    228 H228       -3.7317  -19.9096  -55.9683 H         1 UNK         0.0600 
    229 H229       -5.4506  -19.5710  -55.8589 H         1 UNK         0.0600 
    230 H230       -5.1551  -23.7772  -54.5605 H         1 UNK         0.3000 
    231 H231       -4.1020  -25.6764  -54.5418 H         1 UNK         0.0600 
    232 H232       -1.8380  -24.1831  -53.1199 H         1 UNK         0.0600 
    233 H233       -2.0360  -25.9289  -53.1727 H         1 UNK         0.0600 
    234 H234       -3.2393  -24.9366  -52.3641 H         1 UNK         0.0600 
    235 H235       -1.6339  -23.2982  -55.4860 H         1 UNK         0.3000 
    236 H236       -1.1222  -24.2182  -58.0686 H         1 UNK         0.0600 
    237 H237       -0.0527  -26.2580  -57.1399 H         1 UNK         0.0600 
    238 H238        1.2014  -25.2134  -57.7743 H         1 UNK         0.0600 
    239 H239        0.9261  -25.2907  -56.0383 H         1 UNK         0.0600 
    240 H240        0.1129  -22.7056  -55.1104 H         1 UNK         0.3000 
    241 H241        1.9098  -20.8709  -56.3532 H         1 UNK         0.0600 
    242 H242        0.1634  -17.7263  -56.5067 H         1 UNK         0.3800 
    243 H243        1.6985  -18.3765  -56.0107 H         1 UNK         0.3800 
    244 H244        2.5101  -21.2760  -54.1695 H         1 UNK         0.0800 
    245 H245        1.7490  -19.7373  -53.9754 H         1 UNK         0.0800 
    246 H246       -1.4685  -20.5987  -51.9259 H         1 UNK         0.0800 
    247 H247       -1.1678  -19.8780  -53.4816 H         1 UNK         0.0800 
@<TRIPOS>BOND
     1    1    2 1    
     2    1  127 1    
     3    1  128 1    
     4    1  129 1    
     5    2    3 2    
     6    2    4 am   BACKBONE|DICT|INTERRES
     7    4    5 1    
     8    4  130 1    
     9    5    6 1    
    10    5   65 1    
    11    5  131 1    
    12    6    7 1    
    13    6  132 1    
    14    6  133 1    
    15    7    8 1    
    16    8    9 1    
    17    8  134 1    
    18    8  135 1    
    19    9   10 ar   
    20    9   14 ar   
    21   10   11 ar   
    22   10  136 1    
    23   11   12 ar   
    24   11  126 1    
    25   12   13 ar   
    26   12  137 1    
    27   13   14 ar   
    28   13   15 1    
    29   14  138 1    
    30   15   16 1    
    31   15  139 1    
    32   15  140 1    
    33   16   17 1    
    34   17   18 1    
    35   17  141 1    
    36   17  142 1    
    37   18   19 1    
    38   18   67 1    
    39   18  143 1    
    40   19   20 am   BACKBONE|DICT|INTERRES
    41   19  144 1    
    42   20   21 2    
    43   20   22 1    
    44   22   23 1    
    45   22   24 1    
    46   22  145 1    
    47   23  146 1    
    48   23  147 1    
    49   23  148 1    
    50   24   25 am   BACKBONE|DICT|INTERRES
    51   24  149 1    
    52   25   26 2    
    53   25   27 1    
    54   27   28 1    
    55   27   29 1    
    56   27  150 1    
    57   28  151 1    
    58   28  152 1    
    59   28  153 1    
    60   29   30 am   BACKBONE|DICT|INTERRES
    61   29  154 1    
    62   30   31 2    
    63   30   32 1    
    64   32   33 1    
    65   32   34 1    
    66   32  155 1    
    67   33  156 1    
    68   33  157 1    
    69   33  158 1    
    70   34   35 am   BACKBONE|DICT|INTERRES
    71   34  159 1    
    72   35   36 2    
    73   35   37 1    
    74   37   38 1    
    75   37   39 1    
    76   37  160 1    
    77   38  161 1    
    78   38  162 1    
    79   38  163 1    
    80   39   40 am   BACKBONE|DICT|INTERRES
    81   39  164 1    
    82   40   41 2    
    83   40   42 1    
    84   42   43 1    
    85   42   44 1    
    86   42  165 1    
    87   43  166 1    
    88   43  167 1    
    89   43  168 1    
    90   44   45 am   BACKBONE|DICT|INTERRES
    91   44  169 1    
    92   45   46 2    
    93   45   47 1    
    94   47   48 1    
    95   47   49 1    
    96   47  170 1    
    97   48  171 1    
    98   48  172 1    
    99   48  173 1    
   100   49   50 am   BACKBONE|DICT|INTERRES
   101   49  174 1    
   102   50   51 2    
   103   50   52 1    
   104   52   53 1    
   105   52   54 1    
   106   52  175 1    
   107   53  176 1    
   108   53  177 1    
   109   53  178 1    
   110   54   55 am   BACKBONE|DICT|INTERRES
   111   54  179 1    
   112   55   56 2    
   113   55   57 1    
   114   57   58 1    
   115   57   59 1    
   116   57  180 1    
   117   58  181 1    
   118   58  182 1    
   119   58  183 1    
   120   59   60 am   BACKBONE|DICT|INTERRES
   121   59  184 1    
   122   60   61 2    
   123   60   62 1    
   124   62   63 1    
   125   62   64 1    
   126   62  185 1    
   127   63  186 1    
   128   63  187 1    
   129   63  188 1    
   130   64   65 am   BACKBONE|DICT|INTERRES
   131   64  189 1    
   132   65   66 2    
   133   67   68 2    
   134   67   69 am   BACKBONE|DICT|INTERRES
   135   69   70 1    
   136   69  190 1    
   137   70   71 1    
   138   70   72 1    
   139   70  191 1    
   140   71  192 1    
   141   71  193 1    
   142   71  194 1    
   143   72   73 2    
   144   72   74 am   BACKBONE|DICT|INTERRES
   145   74   75 1    
   146   74  195 1    
   147   75   76 1    
   148   75   77 1    
   149   75  196 1    
   150   76  197 1    
   151   76  198 1    
   152   76  199 1    
   153   77   78 2    
   154   77   79 am   BACKBONE|DICT|INTERRES
   155   79   80 1    
   156   79  200 1    
   157   80   81 1    
   158   80   82 1    
   159   80  201 1    
   160   81  202 1    
   161   81  203 1    
   162   81  204 1    
   163   82   83 2    
   164   82   84 am   BACKBONE|DICT|INTERRES
   165   84   85 1    
   166   84  205 1    
   167   85   86 1    
   168   85   87 1    
   169   85  206 1    
   170   86  207 1    
   171   86  208 1    
   172   86  209 1    
   173   87   88 2    
   174   87   89 am   BACKBONE|DICT|INTERRES
   175   89   90 1    
   176   89  210 1    
   177   90   91 1    
   178   90   92 1    
   179   90  211 1    
   180   91  212 1    
   181   91  213 1    
   182   91  214 1    
   183   92   93 2    
   184   92   94 am   BACKBONE|DICT|INTERRES
   185   94   95 1    
   186   94  215 1    
   187   95   96 1    
   188   95   97 1    
   189   95  216 1    
   190   96  217 1    
   191   96  218 1    
   192   96  219 1    
   193   97   98 2    
   194   97   99 am   BACKBONE|DICT|INTERRES
   195   99  100 1    
   196   99  220 1    
   197  100  101 1    
   198  100  102 1    
   199  100  221 1    
   200  101  222 1    
   201  101  223 1    
   202  101  224 1    
   203  102  103 2    
   204  102  104 am   BACKBONE|DICT|INTERRES
   205  104  105 1    
   206  104  225 1    
   207  105  106 1    
   208  105  107 1    
   209  105  226 1    
   210  106  227 1    
   211  106  228 1    
   212  106  229 1    
   213  107  108 2    
   214  107  109 am   BACKBONE|DICT|INTERRES
   215  109  110 1    
   216  109  230 1    
   217  110  111 1    
   218  110  112 1    
   219  110  231 1    
   220  111  232 1    
   221  111  233 1    
   222  111  234 1    
   223  112  113 2    
   224  112  114 am   BACKBONE|DICT|INTERRES
   225  114  115 1    
   226  114  235 1    
   227  115  116 1    
   228  115  117 1    
   229  115  236 1    
   230  116  237 1    
   231  116  238 1    
   232  116  239 1    
   233  117  118 2    
   234  117  119 am   BACKBONE|DICT|INTERRES
   235  119  120 1    
   236  119  240 1    
   237  120  121 1    
   238  120  124 1    
   239  120  241 1    
   240  121  122 am   BACKBONE|DICT|INTERRES
   241  121  123 2    
   242  122  242 1    
   243  122  243 1    
   244  124  125 1    
   245  124  244 1    
   246  124  245 1    
   247  125  126 1    
   248  126  246 1    
   249  126  247 1    
@<TRIPOS>SUBSTRUCTURE
     1 UNK         1 GROUP             0       ****    0 ROOT    
