@<TRIPOS>MOLECULE
3R540
247   249    1
SMALL
USER_CHARGES


@<TRIPOS>ATOM
      1 CA          0.8719  -13.9842  -48.3791 C.3       0 UNK        -0.1800 
      2 C           2.3695  -13.7293  -48.4627 C.2       0 UNK         0.5000 
      3 O           3.1106  -14.1519  -47.5765 O.2       0 UNK        -0.5000 
      4 N           2.8110  -13.0073  -49.5042 N.am      1 UNK        -0.5000 
      5 CA          4.2129  -12.6652  -49.8098 C.3       1 UNK         0.1400 
      6 C6          5.0245  -13.8745  -50.3517 C.3       23 UNK        -0.0398 
      7 S7          4.4598  -14.3748  -52.0140 S.3       23 UNK        -0.2404 
      8 C8          4.2511  -16.1746  -51.8363 C.3       23 UNK        -0.0205 
      9 C9          2.9801  -16.5396  -51.0850 C.ar      23 UNK        -0.0193 
     10 C10         1.7310  -16.2666  -51.6484 C.ar      23 UNK        -0.1150 
     11 C11         0.5556  -16.6117  -50.9763 C.ar      23 UNK        -0.0193 
     12 C12         0.6342  -17.2452  -49.7332 C.ar      23 UNK        -0.1150 
     13 C13         1.8793  -17.5328  -49.1641 C.ar      23 UNK        -0.0193 
     14 C14         3.0479  -17.1742  -49.8423 C.ar      23 UNK        -0.1150 
     15 C15         1.9705  -18.2179  -47.8114 C.3       23 UNK        -0.0205 
     16 S16         1.8775  -20.0297  -47.9639 S.3       23 UNK        -0.2404 
     17 C17         0.0791  -20.3042  -48.1184 C.3       23 UNK        -0.0398 
     18 CA         -0.3607  -21.6252  -47.4438 C.3       11 UNK         0.1400 
     19 N          -0.1936  -21.5957  -45.9859 N.am      11 UNK        -0.5000 
     20 C          -0.3146  -22.6573  -45.1776 C.2       10 UNK         0.5000 
     21 O          -0.5501  -23.7949  -45.5802 O.2       10 UNK        -0.5000 
     22 CA         -0.2145  -22.4015  -43.6629 C.3       10 UNK         0.1400 
     23 CB          1.2482  -22.2657  -43.2141 C.3       10 UNK        -0.1800 
     24 N          -0.9813  -21.2265  -43.2462 N.am      10 UNK        -0.5000 
     25 C          -2.3188  -21.1471  -43.2978 C.2       9 UNK         0.5000 
     26 O          -3.0412  -22.0735  -43.6653 O.2       9 UNK        -0.5000 
     27 CA         -2.9582  -19.8000  -42.9124 C.3       9 UNK         0.1400 
     28 CB         -3.0927  -19.6807  -41.3873 C.3       9 UNK        -0.1800 
     29 N          -2.2186  -18.6484  -43.4285 N.am      9 UNK        -0.5000 
     30 C          -2.0366  -18.3772  -44.7288 C.2       8 UNK         0.5000 
     31 O          -2.5203  -19.0438  -45.6425 O.2       8 UNK        -0.5000 
     32 CA         -1.0913  -17.2091  -45.0663 C.3       8 UNK         0.1400 
     33 CB         -1.8123  -15.8601  -44.9445 C.3       8 UNK        -0.1800 
     34 N           0.1213  -17.2084  -44.2424 N.am      8 UNK        -0.5000 
     35 C           0.9953  -18.2250  -44.1875 C.2       7 UNK         0.5000 
     36 O           0.8825  -19.2540  -44.8479 O.2       7 UNK        -0.5000 
     37 CA          2.1659  -18.0992  -43.2049 C.3       7 UNK         0.1400 
     38 CB          3.2901  -17.2597  -43.8147 C.3       7 UNK        -0.1800 
     39 N           1.7389  -17.5141  -41.9381 N.am      7 UNK        -0.5000 
     40 C           1.0262  -18.1755  -41.0164 C.2       6 UNK         0.5000 
     41 O           0.7077  -19.3610  -41.1171 O.2       6 UNK        -0.5000 
     42 CA          0.5540  -17.3588  -39.8000 C.3       6 UNK         0.1400 
     43 CB          1.6705  -17.2489  -38.7508 C.3       6 UNK        -0.1800 
     44 N           0.0987  -16.0166  -40.1676 N.am      6 UNK        -0.5000 
     45 C          -0.9663  -15.7668  -40.9416 C.2       5 UNK         0.5000 
     46 O          -1.6938  -16.6434  -41.4067 O.2       5 UNK        -0.5000 
     47 CA         -1.2535  -14.2936  -41.2797 C.3       5 UNK         0.1400 
     48 CB         -2.1802  -13.6751  -40.2225 C.3       5 UNK        -0.1800 
     49 N          -0.0600  -13.4555  -41.4223 N.am      5 UNK        -0.5000 
     50 C           0.9351  -13.6413  -42.3015 C.2       4 UNK         0.5000 
     51 O           1.0121  -14.6193  -43.0499 O.2       4 UNK        -0.5000 
     52 CA          1.9775  -12.5059  -42.3628 C.3       4 UNK         0.1400 
     53 CB          2.5679  -12.1711  -40.9745 C.3       4 UNK        -0.1800 
     54 N           3.0365  -12.7179  -43.3562 N.am      4 UNK        -0.5000 
     55 C           4.0771  -13.5634  -43.3060 C.2       3 UNK         0.5000 
     56 O           4.2803  -14.3492  -42.3794 O.2       3 UNK        -0.5000 
     57 CA          5.0891  -13.4962  -44.4733 C.3       3 UNK         0.1400 
     58 CB          5.3174  -14.8676  -45.1273 C.3       3 UNK        -0.1800 
     59 N           4.7119  -12.5363  -45.5159 N.am      3 UNK        -0.5000 
     60 C           5.0387  -11.2351  -45.5119 C.2       2 UNK         0.5000 
     61 O           5.6742  -10.7063  -44.5983 O.2       2 UNK        -0.5000 
     62 CA          4.5536  -10.3690  -46.6985 C.3       2 UNK         0.1400 
     63 CB          5.5602   -9.2596  -47.0698 C.3       2 UNK        -0.1800 
     64 N           4.1577  -11.1345  -47.8876 N.am      2 UNK        -0.5000 
     65 C           4.9300  -11.9235  -48.6523 C.2       1 UNK         0.5000 
     66 O           6.1381  -12.0793  -48.4671 O.2       1 UNK        -0.5000 
     67 C          -1.7989  -22.0047  -47.8554 C.2       11 UNK         0.5000 
     68 O          -1.9736  -22.7314  -48.8352 O.2       11 UNK        -0.5000 
     69 N          -2.7984  -21.5484  -47.0879 N.am      12 UNK        -0.5000 
     70 CA         -4.2001  -21.9256  -47.2558 C.3       12 UNK         0.1400 
     71 CB         -5.0995  -21.0055  -46.4169 C.3       12 UNK        -0.1800 
     72 C          -4.4529  -23.4055  -46.9264 C.2       12 UNK         0.5000 
     73 O          -5.1095  -24.0903  -47.7103 O.2       12 UNK        -0.5000 
     74 N          -3.8927  -23.8843  -45.8061 N.am      13 UNK        -0.5000 
     75 CA         -3.9574  -25.2834  -45.3741 C.3       13 UNK         0.1400 
     76 CB         -3.3840  -25.4092  -43.9546 C.3       13 UNK        -0.1800 
     77 C          -3.2406  -26.2458  -46.3408 C.2       13 UNK         0.5000 
     78 O          -3.7440  -27.3403  -46.5959 O.2       13 UNK        -0.5000 
     79 N          -2.0988  -25.8062  -46.8865 N.am      14 UNK        -0.5000 
     80 CA         -1.3278  -26.5111  -47.9123 C.3       14 UNK         0.1400 
     81 CB          0.0827  -25.9042  -47.9758 C.3       14 UNK        -0.1800 
     82 C          -1.9808  -26.4771  -49.3091 C.2       14 UNK         0.5000 
     83 O          -1.5747  -27.2562  -50.1720 O.2       14 UNK        -0.5000 
     84 N          -2.9570  -25.5773  -49.5079 N.am      15 UNK        -0.5000 
     85 CA         -3.6685  -25.2880  -50.7551 C.3       15 UNK         0.1400 
     86 CB         -4.5323  -26.4918  -51.1845 C.3       15 UNK        -0.1800 
     87 C          -2.7060  -24.7969  -51.8551 C.2       15 UNK         0.5000 
     88 O          -2.6752  -25.3525  -52.9548 O.2       15 UNK        -0.5000 
     89 N          -1.9198  -23.7619  -51.5228 N.am      16 UNK        -0.5000 
     90 CA         -0.8367  -23.2043  -52.3429 C.3       16 UNK         0.1400 
     91 CB         -0.1313  -22.0951  -51.5484 C.3       16 UNK        -0.1800 
     92 C          -1.2538  -22.6872  -53.7364 C.2       16 UNK         0.5000 
     93 O          -0.4127  -22.6499  -54.6353 O.2       16 UNK        -0.5000 
     94 N          -2.5328  -22.3266  -53.8999 N.am      17 UNK        -0.5000 
     95 CA         -3.1480  -21.9683  -55.1800 C.3       17 UNK         0.1400 
     96 CB         -3.4417  -20.4581  -55.2106 C.3       17 UNK        -0.1800 
     97 C          -4.4058  -22.8237  -55.4230 C.2       17 UNK         0.5000 
     98 O          -5.3925  -22.3277  -55.9695 O.2       17 UNK        -0.5000 
     99 N          -4.3589  -24.0920  -54.9882 N.am      18 UNK        -0.5000 
    100 CA        -5.4381  -25.0804  -55.0374 C.3       18 UNK         0.1400 
    101 CB        -5.7359  -25.4916  -56.4976 C.3       18 UNK        -0.1800 
    102 C         -6.6719  -24.6058  -54.2404 C.2       18 UNK         0.5000 
    103 O         -6.5102  -24.0987  -53.1275 O.2       18 UNK        -0.5000 
    104 N         -7.8718  -24.7573  -54.8171 N.am      19 UNK        -0.5000 
    105 CA        -9.1665  -24.4191  -54.2173 C.3       19 UNK         0.1400 
    106 CB       -10.2842  -24.8811  -55.1650 C.3       19 UNK        -0.1800 
    107 C         -9.3489  -22.9303  -53.8558 C.2       19 UNK         0.5000 
    108 O        -10.2003  -22.6176  -53.0226 O.2       19 UNK        -0.5000 
    109 N         -8.5479  -22.0414  -54.4618 N.am      20 UNK        -0.5000 
    110 CA        -8.5038  -20.6156  -54.1318 C.3       20 UNK         0.1400 
    111 CB        -7.8175  -19.8530  -55.2756 C.3       20 UNK        -0.1800 
    112 C         -7.7951  -20.3261  -52.7929 C.2       20 UNK         0.5000 
    113 O         -7.9574  -19.2277  -52.2586 O.2       20 UNK        -0.5000 
    114 N         -6.9999  -21.2881  -52.2901 N.am      21 UNK        -0.5000 
    115 CA        -6.2683  -21.2671  -51.0140 C.3       21 UNK         0.1400 
    116 CB        -7.2643  -21.3452  -49.8397 C.3       21 UNK        -0.1800 
    117 C         -5.2763  -20.0895  -50.8696 C.2       21 UNK         0.5000 
    118 O         -4.9196  -19.7129  -49.7542 O.2       21 UNK        -0.5000 
    119 N         -4.8616  -19.5208  -52.0078 N.am      22 UNK        -0.5000 
    120 CA        -4.0671  -18.2896  -52.1263 C.3       22 UNK         0.1400 
    121 C         -4.8027  -16.9987  -51.6424 C.2       22 UNK         0.5000 
    122 N         -6.1282  -16.9920  -51.5447 N.am      22 UNK        -0.7600 
    123 O         -4.1771  -15.9765  -51.3783 O.2       22 UNK        -0.5000 
    124 C124       -2.6251  -18.4555  -51.5624 C.3       23 UNK        -0.0398 
    125 S125       -1.3818  -17.6611  -52.6375 S.3       23 UNK        -0.2404 
    126 C126       -0.7917  -16.2885  -51.5991 C.3       23 UNK        -0.0205 
    127 H127        0.4053  -13.9482  -49.3638 H         1 UNK         0.0600 
    128 H128        0.3986  -13.2370  -47.7424 H         1 UNK         0.0600 
    129 H129        0.6793  -14.9666  -47.9484 H         1 UNK         0.0600 
    130 H130        2.1399  -12.6869  -50.1881 H         1 UNK         0.3000 
    131 H131        4.1657  -11.9240  -50.6091 H         1 UNK         0.0600 
    132 H132        6.0831  -13.6309  -50.4534 H         1 UNK         0.0800 
    133 H133        4.9709  -14.7146  -49.6578 H         1 UNK         0.0800 
    134 H134        4.2081  -16.6203  -52.8310 H         1 UNK         0.0800 
    135 H135        5.1323  -16.5979  -51.3517 H         1 UNK         0.0800 
    136 H136        1.6757  -15.7812  -52.6128 H         1 UNK         0.1150 
    137 H137       -0.2728  -17.5125  -49.2105 H         1 UNK         0.1150 
    138 H138        4.0105  -17.3937  -49.4025 H         1 UNK         0.1150 
    139 H139        2.9119  -17.9572  -47.3255 H         1 UNK         0.0800 
    140 H140        1.1863  -17.8488  -47.1537 H         1 UNK         0.0800 
    141 H141       -0.1594  -20.3056  -49.1826 H         1 UNK         0.0800 
    142 H142       -0.4652  -19.4652  -47.6824 H         1 UNK         0.0800 
    143 H143        0.2848  -22.4203  -47.8226 H         1 UNK         0.0600 
    144 H144        0.0637  -20.6989  -45.5764 H         1 UNK         0.3000 
    145 H145       -0.6378  -23.2696  -43.1533 H         1 UNK         0.0600 
    146 H146        1.3176  -22.1091  -42.1374 H         1 UNK         0.0600 
    147 H147        1.7517  -21.4341  -43.7056 H         1 UNK         0.0600 
    148 H148        1.8102  -23.1703  -43.4490 H         1 UNK         0.0600 
    149 H149       -0.4531  -20.4211  -42.9373 H         1 UNK         0.3000 
    150 H150       -3.9601  -19.7726  -43.3453 H         1 UNK         0.0600 
    151 H151       -3.6483  -20.5242  -40.9758 H         1 UNK         0.0600 
    152 H152       -3.6273  -18.7721  -41.1096 H         1 UNK         0.0600 
    153 H153       -2.1182  -19.6566  -40.8981 H         1 UNK         0.0600 
    154 H154       -1.8234  -18.0163  -42.7373 H         1 UNK         0.3000 
    155 H155       -0.7828  -17.3260  -46.1058 H         1 UNK         0.0600 
    156 H156       -2.6342  -15.7965  -45.6585 H         1 UNK         0.0600 
    157 H157       -1.1377  -15.0279  -45.1475 H         1 UNK         0.0600 
    158 H158       -2.2356  -15.7200  -43.9512 H         1 UNK         0.0600 
    159 H159        0.3113  -16.3728  -43.6975 H         1 UNK         0.3000 
    160 H160        2.5587  -19.1000  -43.0132 H         1 UNK         0.0600 
    161 H161        2.9433  -16.2544  -44.0515 H         1 UNK         0.0600 
    162 H162        3.6573  -17.7085  -44.7385 H         1 UNK         0.0600 
    163 H163        4.1352  -17.1744  -43.1317 H         1 UNK         0.0600 
    164 H164        1.9122  -16.5260  -41.8131 H         1 UNK         0.3000 
    165 H165       -0.2878  -17.8897  -39.3502 H         1 UNK         0.0600 
    166 H166        1.3189  -16.7407  -37.8527 H         1 UNK         0.0600 
    167 H167        2.0197  -18.2370  -38.4484 H         1 UNK         0.0600 
    168 H168        2.5314  -16.6989  -39.1331 H         1 UNK         0.0600 
    169 H169        0.6451  -15.2368  -39.8331 H         1 UNK         0.3000 
    170 H170       -1.7771  -14.2719  -42.2360 H         1 UNK         0.0600 
    171 H171       -1.6990  -13.6245  -39.2450 H         1 UNK         0.0600 
    172 H172       -2.4810  -12.6653  -40.5023 H         1 UNK         0.0600 
    173 H173       -3.0919  -14.2635  -40.1095 H         1 UNK         0.0600 
    174 H174       -0.0400  -12.6245  -40.8493 H         1 UNK         0.3000 
    175 H175        1.4379  -11.6229  -42.7081 H         1 UNK         0.0600 
    176 H176        2.9950  -13.0496  -40.4899 H         1 UNK         0.0600 
    177 H177        3.3520  -11.4176  -41.0512 H         1 UNK         0.0600 
    178 H178        1.8079  -11.7695  -40.3041 H         1 UNK         0.0600 
    179 H179        2.9595  -12.1557  -44.1904 H         1 UNK         0.3000 
    180 H180        6.0414  -13.1886  -44.0363 H         1 UNK         0.0600 
    181 H181        6.0768  -14.8080  -45.9072 H         1 UNK         0.0600 
    182 H182        4.4065  -15.2539  -45.5828 H         1 UNK         0.0600 
    183 H183        5.6627  -15.5998  -44.3970 H         1 UNK         0.0600 
    184 H184        4.1857  -12.9149  -46.2975 H         1 UNK         0.3000 
    185 H185        3.6454   -9.8767  -46.3484 H         1 UNK         0.0600 
    186 H186        5.1936   -8.6557  -47.8999 H         1 UNK         0.0600 
    187 H187        5.7272   -8.5840  -46.2301 H         1 UNK         0.0600 
    188 H188        6.5295   -9.6693  -47.3547 H         1 UNK         0.0600 
    189 H189        3.1759  -11.0899  -48.1232 H         1 UNK         0.3000 
    190 H190       -2.5905  -20.8862  -46.3467 H         1 UNK         0.3000 
    191 H191       -4.4543  -21.7862  -48.3062 H         1 UNK         0.0600 
    192 H192       -5.0028  -19.9681  -46.7382 H         1 UNK         0.0600 
    193 H193       -4.8522  -21.0521  -45.3571 H         1 UNK         0.0600 
    194 H194       -6.1493  -21.2811  -46.5202 H         1 UNK         0.0600 
    195 H195       -3.4021  -23.2422  -45.1897 H         1 UNK         0.3000 
    196 H196       -5.0099  -25.5720  -45.3412 H         1 UNK         0.0600 
    197 H197       -3.9386  -24.7898  -43.2496 H         1 UNK         0.0600 
    198 H198       -2.3377  -25.1053  -43.9144 H         1 UNK         0.0600 
    199 H199       -3.4417  -26.4387  -43.5992 H         1 UNK         0.0600 
    200 H200       -1.7067  -24.9293  -46.5516 H         1 UNK         0.3000 
    201 H201       -1.2375  -27.5582  -47.6163 H         1 UNK         0.0600 
    202 H202        0.5840  -25.9670  -47.0099 H         1 UNK         0.0600 
    203 H203        0.0529  -24.8550  -48.2713 H         1 UNK         0.0600 
    204 H204        0.7056  -26.4315  -48.6994 H         1 UNK         0.0600 
    205 H205       -3.1992  -24.9794  -48.7287 H         1 UNK         0.3000 
    206 H206       -4.3446  -24.4591  -50.5405 H         1 UNK         0.0600 
    207 H207       -3.9252  -27.3522  -51.4672 H         1 UNK         0.0600 
    208 H208       -5.1998  -26.8016  -50.3805 H         1 UNK         0.0600 
    209 H209       -5.1554  -26.2380  -52.0411 H         1 UNK         0.0600 
    210 H210       -1.9939  -23.3911  -50.5771 H         1 UNK         0.3000 
    211 H211       -0.1174  -24.0088  -52.5084 H         1 UNK         0.0600 
    212 H212       -0.8192  -21.2891  -51.2954 H         1 UNK         0.0600 
    213 H213        0.6896  -21.6594  -52.1196 H         1 UNK         0.0600 
    214 H214        0.2906  -22.4821  -50.6206 H         1 UNK         0.0600 
    215 H215       -3.1552  -22.4108  -53.1099 H         1 UNK         0.3000 
    216 H216       -2.4675  -22.1940  -56.0032 H         1 UNK         0.0600 
    217 H217       -3.7367  -20.1410  -56.2114 H         1 UNK         0.0600 
    218 H218       -2.5646  -19.8747  -54.9293 H         1 UNK         0.0600 
    219 H219       -4.2548  -20.1965  -54.5374 H         1 UNK         0.0600 
    220 H220       -3.5292  -24.4010  -54.4909 H         1 UNK         0.3000 
    221 H221       -5.0647  -25.9636  -54.5179 H         1 UNK         0.0600 
    222 H222       -6.1675  -24.6747  -57.0771 H         1 UNK         0.0600 
    223 H223       -4.8237  -25.8066  -57.0046 H         1 UNK         0.0600 
    224 H224       -6.4268  -26.3344  -56.5396 H         1 UNK         0.0600 
    225 H225       -7.9044  -25.1594  -55.7427 H         1 UNK         0.3000 
    226 H226       -9.2522  -24.9847  -53.2873 H         1 UNK         0.0600 
    227 H227      -10.2280  -25.9541  -55.3497 H         1 UNK         0.0600 
    228 H228      -11.2681  -24.6785  -54.7396 H         1 UNK         0.0600 
    229 H229      -10.2312  -24.3701  -56.1272 H         1 UNK         0.0600 
    230 H230       -7.8656  -22.3758  -55.1292 H         1 UNK         0.3000 
    231 H231       -9.5283  -20.2474  -54.0466 H         1 UNK         0.0600 
    232 H232       -7.8351  -18.7777  -55.0929 H         1 UNK         0.0600 
    233 H233       -8.3214  -20.0281  -56.2262 H         1 UNK         0.0600 
    234 H234       -6.7741  -20.1465  -55.3894 H         1 UNK         0.0600 
    235 H235       -6.9338  -22.1648  -52.7989 H         1 UNK         0.3000 
    236 H236       -5.6637  -22.1750  -50.9954 H         1 UNK         0.0600 
    237 H237       -7.8587  -20.4351  -49.7536 H         1 UNK         0.0600 
    238 H238       -7.9501  -22.1837  -49.9616 H         1 UNK         0.0600 
    239 H239       -6.7491  -21.4892  -48.8914 H         1 UNK         0.0600 
    240 H240       -5.2410  -19.8819  -52.8693 H         1 UNK         0.3000 
    241 H241       -3.9861  -18.1461  -53.2040 H         1 UNK         0.0600 
    242 H242       -6.6807  -17.8151  -51.7651 H         1 UNK         0.3800 
    243 H243       -6.5929  -16.1515  -51.2409 H         1 UNK         0.3800 
    244 H244       -2.5516  -18.1015  -50.5329 H         1 UNK         0.0800 
    245 H245       -2.3583  -19.5116  -51.5229 H         1 UNK         0.0800 
    246 H246       -1.5189  -16.0408  -50.8250 H         1 UNK         0.0800 
    247 H247       -0.7056  -15.3959  -52.2205 H         1 UNK         0.0800 
@<TRIPOS>BOND
     1    1    2 1    
     2    1  127 1    
     3    1  128 1    
     4    1  129 1    
     5    2    3 2    
     6    2    4 am   BACKBONE|DICT|INTERRES
     7    4    5 1    
     8    4  130 1    
     9    5    6 1    
    10    5   65 1    
    11    5  131 1    
    12    6    7 1    
    13    6  132 1    
    14    6  133 1    
    15    7    8 1    
    16    8    9 1    
    17    8  134 1    
    18    8  135 1    
    19    9   10 ar   
    20    9   14 ar   
    21   10   11 ar   
    22   10  136 1    
    23   11   12 ar   
    24   11  126 1    
    25   12   13 ar   
    26   12  137 1    
    27   13   14 ar   
    28   13   15 1    
    29   14  138 1    
    30   15   16 1    
    31   15  139 1    
    32   15  140 1    
    33   16   17 1    
    34   17   18 1    
    35   17  141 1    
    36   17  142 1    
    37   18   19 1    
    38   18   67 1    
    39   18  143 1    
    40   19   20 am   BACKBONE|DICT|INTERRES
    41   19  144 1    
    42   20   21 2    
    43   20   22 1    
    44   22   23 1    
    45   22   24 1    
    46   22  145 1    
    47   23  146 1    
    48   23  147 1    
    49   23  148 1    
    50   24   25 am   BACKBONE|DICT|INTERRES
    51   24  149 1    
    52   25   26 2    
    53   25   27 1    
    54   27   28 1    
    55   27   29 1    
    56   27  150 1    
    57   28  151 1    
    58   28  152 1    
    59   28  153 1    
    60   29   30 am   BACKBONE|DICT|INTERRES
    61   29  154 1    
    62   30   31 2    
    63   30   32 1    
    64   32   33 1    
    65   32   34 1    
    66   32  155 1    
    67   33  156 1    
    68   33  157 1    
    69   33  158 1    
    70   34   35 am   BACKBONE|DICT|INTERRES
    71   34  159 1    
    72   35   36 2    
    73   35   37 1    
    74   37   38 1    
    75   37   39 1    
    76   37  160 1    
    77   38  161 1    
    78   38  162 1    
    79   38  163 1    
    80   39   40 am   BACKBONE|DICT|INTERRES
    81   39  164 1    
    82   40   41 2    
    83   40   42 1    
    84   42   43 1    
    85   42   44 1    
    86   42  165 1    
    87   43  166 1    
    88   43  167 1    
    89   43  168 1    
    90   44   45 am   BACKBONE|DICT|INTERRES
    91   44  169 1    
    92   45   46 2    
    93   45   47 1    
    94   47   48 1    
    95   47   49 1    
    96   47  170 1    
    97   48  171 1    
    98   48  172 1    
    99   48  173 1    
   100   49   50 am   BACKBONE|DICT|INTERRES
   101   49  174 1    
   102   50   51 2    
   103   50   52 1    
   104   52   53 1    
   105   52   54 1    
   106   52  175 1    
   107   53  176 1    
   108   53  177 1    
   109   53  178 1    
   110   54   55 am   BACKBONE|DICT|INTERRES
   111   54  179 1    
   112   55   56 2    
   113   55   57 1    
   114   57   58 1    
   115   57   59 1    
   116   57  180 1    
   117   58  181 1    
   118   58  182 1    
   119   58  183 1    
   120   59   60 am   BACKBONE|DICT|INTERRES
   121   59  184 1    
   122   60   61 2    
   123   60   62 1    
   124   62   63 1    
   125   62   64 1    
   126   62  185 1    
   127   63  186 1    
   128   63  187 1    
   129   63  188 1    
   130   64   65 am   BACKBONE|DICT|INTERRES
   131   64  189 1    
   132   65   66 2    
   133   67   68 2    
   134   67   69 am   BACKBONE|DICT|INTERRES
   135   69   70 1    
   136   69  190 1    
   137   70   71 1    
   138   70   72 1    
   139   70  191 1    
   140   71  192 1    
   141   71  193 1    
   142   71  194 1    
   143   72   73 2    
   144   72   74 am   BACKBONE|DICT|INTERRES
   145   74   75 1    
   146   74  195 1    
   147   75   76 1    
   148   75   77 1    
   149   75  196 1    
   150   76  197 1    
   151   76  198 1    
   152   76  199 1    
   153   77   78 2    
   154   77   79 am   BACKBONE|DICT|INTERRES
   155   79   80 1    
   156   79  200 1    
   157   80   81 1    
   158   80   82 1    
   159   80  201 1    
   160   81  202 1    
   161   81  203 1    
   162   81  204 1    
   163   82   83 2    
   164   82   84 am   BACKBONE|DICT|INTERRES
   165   84   85 1    
   166   84  205 1    
   167   85   86 1    
   168   85   87 1    
   169   85  206 1    
   170   86  207 1    
   171   86  208 1    
   172   86  209 1    
   173   87   88 2    
   174   87   89 am   BACKBONE|DICT|INTERRES
   175   89   90 1    
   176   89  210 1    
   177   90   91 1    
   178   90   92 1    
   179   90  211 1    
   180   91  212 1    
   181   91  213 1    
   182   91  214 1    
   183   92   93 2    
   184   92   94 am   BACKBONE|DICT|INTERRES
   185   94   95 1    
   186   94  215 1    
   187   95   96 1    
   188   95   97 1    
   189   95  216 1    
   190   96  217 1    
   191   96  218 1    
   192   96  219 1    
   193   97   98 2    
   194   97   99 am   BACKBONE|DICT|INTERRES
   195   99  100 1    
   196   99  220 1    
   197  100  101 1    
   198  100  102 1    
   199  100  221 1    
   200  101  222 1    
   201  101  223 1    
   202  101  224 1    
   203  102  103 2    
   204  102  104 am   BACKBONE|DICT|INTERRES
   205  104  105 1    
   206  104  225 1    
   207  105  106 1    
   208  105  107 1    
   209  105  226 1    
   210  106  227 1    
   211  106  228 1    
   212  106  229 1    
   213  107  108 2    
   214  107  109 am   BACKBONE|DICT|INTERRES
   215  109  110 1    
   216  109  230 1    
   217  110  111 1    
   218  110  112 1    
   219  110  231 1    
   220  111  232 1    
   221  111  233 1    
   222  111  234 1    
   223  112  113 2    
   224  112  114 am   BACKBONE|DICT|INTERRES
   225  114  115 1    
   226  114  235 1    
   227  115  116 1    
   228  115  117 1    
   229  115  236 1    
   230  116  237 1    
   231  116  238 1    
   232  116  239 1    
   233  117  118 2    
   234  117  119 am   BACKBONE|DICT|INTERRES
   235  119  120 1    
   236  119  240 1    
   237  120  121 1    
   238  120  124 1    
   239  120  241 1    
   240  121  122 am   BACKBONE|DICT|INTERRES
   241  121  123 2    
   242  122  242 1    
   243  122  243 1    
   244  124  125 1    
   245  124  244 1    
   246  124  245 1    
   247  125  126 1    
   248  126  246 1    
   249  126  247 1    
@<TRIPOS>SUBSTRUCTURE
     1 UNK         1 GROUP             0       ****    0 ROOT    
