@<TRIPOS>MOLECULE
3R540
247   249    1
SMALL
USER_CHARGES


@<TRIPOS>ATOM
      1 CA          0.8698   -8.0486  -47.6421 C.3       0 UNK        -0.1800 
      2 C           0.7220   -9.5626  -47.6355 C.2       0 UNK         0.5000 
      3 O           1.0853  -10.2066  -46.6505 O.2       0 UNK        -0.5000 
      4 N           0.1757  -10.1314  -48.7210 N.am      1 UNK        -0.5000 
      5 CA         -0.0335  -11.5727  -48.9210 C.3       1 UNK         0.1400 
      6 C6         -0.6253  -11.8733  -50.3216 C.3       23 UNK        -0.0398 
      7 S7         -0.6487  -13.6547  -50.7361 S.3       23 UNK        -0.2404 
      8 C8         -2.4313  -14.0375  -50.6375 C.3       23 UNK        -0.0205 
      9 C9         -2.6933  -15.4154  -50.0432 C.ar      23 UNK        -0.0193 
     10 C10        -2.1949  -16.5629  -50.6676 C.ar      23 UNK        -0.1150 
     11 C11        -2.4267  -17.8289  -50.1217 C.ar      23 UNK        -0.0193 
     12 C12        -3.1771  -17.9449  -48.9496 C.ar      23 UNK        -0.1150 
     13 C13        -3.6877  -16.8076  -48.3188 C.ar      23 UNK        -0.0193 
     14 C14        -3.4427  -15.5457  -48.8691 C.ar      23 UNK        -0.1150 
     15 C15        -4.4797  -16.9470  -47.0300 C.3       23 UNK        -0.0205 
     16 S16        -3.3574  -17.1871  -45.6197 S.3       23 UNK        -0.2404 
     17 C17        -4.0722  -18.6530  -44.8122 C.3       23 UNK        -0.0398 
     18 CA         -3.7344  -19.9889  -45.5219 C.3       11 UNK         0.1400 
     19 N          -2.2914  -20.2134  -45.6864 N.am      11 UNK        -0.5000 
     20 C          -1.7603  -21.1962  -46.4309 C.2       10 UNK         0.5000 
     21 O          -2.4271  -21.9782  -47.1056 O.2       10 UNK        -0.5000 
     22 CA         -0.2369  -21.3902  -46.3564 C.3       10 UNK         0.1400 
     23 CB          0.4831  -20.5793  -47.4425 C.3       10 UNK        -0.1800 
     24 N           0.2958  -21.0414  -45.0426 N.am      10 UNK        -0.5000 
     25 C           0.0984  -21.7503  -43.9239 C.2       9 UNK         0.5000 
     26 O          -0.5590  -22.7922  -43.9000 O.2       9 UNK        -0.5000 
     27 CA          0.6768  -21.1712  -42.6142 C.3       9 UNK         0.1400 
     28 CB          1.1035  -22.2670  -41.6166 C.3       9 UNK        -0.1800 
     29 N           1.7482  -20.1894  -42.8254 N.am      9 UNK        -0.5000 
     30 C           2.9669  -20.3947  -43.3498 C.2       8 UNK         0.5000 
     31 O           3.3939  -21.5023  -43.6767 O.2       8 UNK        -0.5000 
     32 CA          3.8557  -19.1538  -43.5858 C.3       8 UNK         0.1400 
     33 CB          4.0066  -18.8920  -45.0930 C.3       8 UNK        -0.1800 
     34 N           3.3507  -17.9351  -42.9483 N.am      8 UNK        -0.5000 
     35 C           3.4195  -17.6680  -41.6369 C.2       7 UNK         0.5000 
     36 O           3.9840  -18.3955  -40.8195 O.2       7 UNK        -0.5000 
     37 CA          2.6957  -16.3960  -41.1525 C.3       7 UNK         0.1400 
     38 CB          3.6095  -15.1674  -41.2744 C.3       7 UNK        -0.1800 
     39 N           1.4440  -16.1446  -41.8713 N.am      7 UNK        -0.5000 
     40 C           0.3708  -16.9487  -41.8454 C.2       6 UNK         0.5000 
     41 O           0.3006  -17.9757  -41.1710 O.2       6 UNK        -0.5000 
     42 CA         -0.7910  -16.5849  -42.7836 C.3       6 UNK         0.1400 
     43 CB         -1.6739  -15.4834  -42.1826 C.3       6 UNK        -0.1800 
     44 N          -0.3067  -16.1818  -44.1027 N.am      6 UNK        -0.5000 
     45 C           0.2232  -17.0319  -44.9932 C.2       5 UNK         0.5000 
     46 O           0.2976  -18.2460  -44.8094 O.2       5 UNK        -0.5000 
     47 CA          0.7962  -16.4346  -46.2886 C.3       5 UNK         0.1400 
     48 CB         -0.2546  -16.4417  -47.4042 C.3       5 UNK        -0.1800 
     49 N           1.3030  -15.0770  -46.1005 N.am      5 UNK        -0.5000 
     50 C           2.4153  -14.7842  -45.4151 C.2       4 UNK         0.5000 
     51 O           3.1241  -15.6335  -44.8743 O.2       4 UNK        -0.5000 
     52 CA          2.7751  -13.2952  -45.2775 C.3       4 UNK         0.1400 
     53 CB          3.3954  -12.7628  -46.5777 C.3       4 UNK        -0.1800 
     54 N           1.6398  -12.4521  -44.8996 N.am      4 UNK        -0.5000 
     55 C           0.9568  -12.5558  -43.7507 C.2       3 UNK         0.5000 
     56 O           1.1636  -13.4304  -42.9095 O.2       3 UNK        -0.5000 
     57 CA         -0.1506  -11.5183  -43.5081 C.3       3 UNK         0.1400 
     58 CB          0.4480  -10.1491  -43.1493 C.3       3 UNK        -0.1800 
     59 N          -1.0014  -11.3865  -44.6880 N.am      3 UNK        -0.5000 
     60 C          -2.1157  -12.1015  -44.8958 C.2       2 UNK         0.5000 
     61 O          -2.6004  -12.8650  -44.0620 O.2       2 UNK        -0.5000 
     62 CA         -2.8106  -11.9550  -46.2657 C.3       2 UNK         0.1400 
     63 CB         -3.9944  -10.9811  -46.1690 C.3       2 UNK        -0.1800 
     64 N          -1.9249  -11.5194  -47.3482 N.am      2 UNK        -0.5000 
     65 C          -0.8673  -12.2135  -47.7913 C.2       1 UNK         0.5000 
     66 O          -0.5033  -13.2816  -47.3051 O.2       1 UNK        -0.5000 
     67 C          -4.4204  -21.1528  -44.7756 C.2       11 UNK         0.5000 
     68 O          -5.5665  -21.4793  -45.0851 O.2       11 UNK        -0.5000 
     69 N          -3.7096  -21.7509  -43.8080 N.am      12 UNK        -0.5000 
     70 CA         -4.1762  -22.9004  -43.0345 C.3       12 UNK         0.1400 
     71 CB         -3.3686  -23.0068  -41.7312 C.3       12 UNK        -0.1800 
     72 C          -4.0928  -24.2051  -43.8447 C.2       12 UNK         0.5000 
     73 O          -5.0089  -25.0243  -43.7658 O.2       12 UNK        -0.5000 
     74 N          -3.0050  -24.3686  -44.6116 N.am      13 UNK        -0.5000 
     75 CA         -2.7809  -25.5092  -45.4984 C.3       13 UNK         0.1400 
     76 CB         -1.3254  -25.4980  -45.9914 C.3       13 UNK        -0.1800 
     77 C          -3.7602  -25.5338  -46.6855 C.2       13 UNK         0.5000 
     78 O          -4.3925  -26.5636  -46.9263 O.2       13 UNK        -0.5000 
     79 N          -3.8636  -24.3979  -47.3924 N.am      14 UNK        -0.5000 
     80 CA         -4.6537  -24.1219  -48.5974 C.3       14 UNK         0.1400 
     81 CB         -6.1650  -24.2285  -48.3209 C.3       14 UNK        -0.1800 
     82 C          -4.2333  -24.9592  -49.8200 C.2       14 UNK         0.5000 
     83 O          -3.7999  -24.3897  -50.8221 O.2       14 UNK        -0.5000 
     84 N          -4.3572  -26.2892  -49.7105 N.am      15 UNK        -0.5000 
     85 CA         -3.9584  -27.3181  -50.6776 C.3       15 UNK         0.1400 
     86 CB         -2.4207  -27.4368  -50.7088 C.3       15 UNK        -0.1800 
     87 C          -4.5689  -27.1119  -52.0799 C.2       15 UNK         0.5000 
     88 O          -3.8729  -27.2631  -53.0830 O.2       15 UNK        -0.5000 
     89 N          -5.8503  -26.7151  -52.1244 N.am      16 UNK        -0.5000 
     90 CA         -6.5997  -26.3299  -53.3301 C.3       16 UNK         0.1400 
     91 CB         -6.8561  -27.5550  -54.2331 C.3       16 UNK        -0.1800 
     92 C          -5.9444  -25.1468  -54.0813 C.2       16 UNK         0.5000 
     93 O          -5.8904  -25.1413  -55.3116 O.2       16 UNK        -0.5000 
     94 N          -5.4394  -24.1842  -53.2963 N.am      17 UNK        -0.5000 
     95 CA         -4.6939  -22.9757  -53.6619 C.3       17 UNK         0.1400 
     96 CB         -5.4177  -22.1415  -54.7399 C.3       17 UNK        -0.1800 
     97 C          -3.2124  -23.2172  -54.0120 C.2       17 UNK         0.5000 
     98 O          -2.5042  -22.2478  -54.2871 O.2       17 UNK        -0.5000 
     99 N          -2.7375  -24.4696  -53.9724 N.am      18 UNK        -0.5000 
    100 CA        -1.3580  -24.8262  -54.3106 C.3       18 UNK         0.1400 
    101 CB        -1.2937  -26.3104  -54.7030 C.3       18 UNK        -0.1800 
    102 C         -0.3385  -24.5211  -53.1951 C.2       18 UNK         0.5000 
    103 O          0.8600  -24.6267  -53.4574 O.2       18 UNK        -0.5000 
    104 N         -0.8019  -24.1683  -51.9837 N.am      19 UNK        -0.5000 
    105 CA         0.0420  -23.9481  -50.8026 C.3       19 UNK         0.1400 
    106 CB        -0.8347  -23.6860  -49.5707 C.3       19 UNK        -0.1800 
    107 C          1.0934  -22.8344  -50.9677 C.2       19 UNK         0.5000 
    108 O          2.2242  -23.0052  -50.5105 O.2       19 UNK        -0.5000 
    109 N          0.7178  -21.7388  -51.6396 N.am      20 UNK        -0.5000 
    110 CA         1.6218  -20.6455  -52.0048 C.3       20 UNK         0.1400 
    111 CB         1.9360  -19.7514  -50.7845 C.3       20 UNK        -0.1800 
    112 C          1.0801  -19.8569  -53.2112 C.2       20 UNK         0.5000 
    113 O          1.2665  -18.6412  -53.2710 O.2       20 UNK        -0.5000 
    114 N          0.4112  -20.5596  -54.1420 N.am      21 UNK        -0.5000 
    115 CA        -0.2434  -20.0315  -55.3482 C.3       21 UNK         0.1400 
    116 CB         0.8043  -19.5191  -56.3588 C.3       21 UNK        -0.1800 
    117 C         -1.3163  -18.9784  -54.9997 C.2       21 UNK         0.5000 
    118 O         -1.1894  -17.8066  -55.3604 O.2       21 UNK        -0.5000 
    119 N         -2.3313  -19.4225  -54.2504 N.am      22 UNK        -0.5000 
    120 CA        -3.3708  -18.5743  -53.6431 C.3       22 UNK         0.1400 
    121 C         -4.3969  -17.9563  -54.6392 C.2       22 UNK         0.5000 
    122 N         -4.4371  -18.3698  -55.8999 N.am      22 UNK        -0.7600 
    123 O         -5.1722  -17.0832  -54.2597 O.2       22 UNK        -0.5000 
    124 C124       -4.1130  -19.2798  -52.4729 C.3       23 UNK        -0.0398 
    125 S125       -3.0776  -20.2649  -51.3300 S.3       23 UNK        -0.2404 
    126 C126       -1.8285  -19.0656  -50.7731 C.3       23 UNK        -0.0205 
    127 H127        0.4966   -7.6078  -48.5668 H         1 UNK         0.0600 
    128 H128        0.3156   -7.6153  -46.8096 H         1 UNK         0.0600 
    129 H129        1.9192   -7.7754  -47.5333 H         1 UNK         0.0600 
    130 H130       -0.1037   -9.5380  -49.4894 H         1 UNK         0.3000 
    131 H131        0.9562  -12.0313  -48.8800 H         1 UNK         0.0600 
    132 H132       -0.0167  -11.3827  -51.0823 H         1 UNK         0.0800 
    133 H133       -1.6230  -11.4437  -50.4244 H         1 UNK         0.0800 
    134 H134       -2.8627  -13.9885  -51.6381 H         1 UNK         0.0800 
    135 H135       -2.9437  -13.2788  -50.0447 H         1 UNK         0.0800 
    136 H136       -1.6055  -16.4628  -51.5683 H         1 UNK         0.1150 
    137 H137       -3.3468  -18.9221  -48.5206 H         1 UNK         0.1150 
    138 H138       -3.8267  -14.6646  -48.3750 H         1 UNK         0.1150 
    139 H139       -5.0887  -16.0594  -46.8530 H         1 UNK         0.0800 
    140 H140       -5.1754  -17.7819  -47.1214 H         1 UNK         0.0800 
    141 H141       -3.7071  -18.6671  -43.7837 H         1 UNK         0.0800 
    142 H142       -5.1530  -18.5128  -44.7454 H         1 UNK         0.0800 
    143 H143       -4.1716  -19.9583  -46.5217 H         1 UNK         0.0600 
    144 H144       -1.6689  -19.5859  -45.1947 H         1 UNK         0.3000 
    145 H145       -0.0270  -22.4463  -46.5316 H         1 UNK         0.0600 
    146 H146        1.5554  -20.7750  -47.4327 H         1 UNK         0.0600 
    147 H147        0.1146  -20.8435  -48.4340 H         1 UNK         0.0600 
    148 H148        0.3385  -19.5085  -47.3100 H         1 UNK         0.0600 
    149 H149        0.7258  -20.1257  -44.9566 H         1 UNK         0.3000 
    150 H150       -0.1416  -20.6164  -42.1538 H         1 UNK         0.0600 
    151 H151        0.2540  -22.8889  -41.3324 H         1 UNK         0.0600 
    152 H152        1.5054  -21.8317  -40.7017 H         1 UNK         0.0600 
    153 H153        1.8618  -22.9276  -42.0373 H         1 UNK         0.0600 
    154 H154        1.4993  -19.2370  -42.5903 H         1 UNK         0.3000 
    155 H155        4.8436  -19.3749  -43.1768 H         1 UNK         0.0600 
    156 H156        4.4483  -19.7515  -45.5986 H         1 UNK         0.0600 
    157 H157        4.6540  -18.0358  -45.2837 H         1 UNK         0.0600 
    158 H158        3.0431  -18.6962  -45.5634 H         1 UNK         0.0600 
    159 H159        2.9382  -17.2402  -43.5615 H         1 UNK         0.3000 
    160 H160        2.4515  -16.5355  -40.0974 H         1 UNK         0.0600 
    161 H161        3.8675  -14.9583  -42.3130 H         1 UNK         0.0600 
    162 H162        3.1299  -14.2780  -40.8651 H         1 UNK         0.0600 
    163 H163        4.5411  -15.3167  -40.7272 H         1 UNK         0.0600 
    164 H164        1.4014  -15.2905  -42.4208 H         1 UNK         0.3000 
    165 H165       -1.4105  -17.4761  -42.9056 H         1 UNK         0.0600 
    166 H166       -2.5478  -15.3016  -42.8084 H         1 UNK         0.0600 
    167 H167       -2.0370  -15.7696  -41.1949 H         1 UNK         0.0600 
    168 H168       -1.1365  -14.5414  -42.0752 H         1 UNK         0.0600 
    169 H169       -0.3203  -15.1960  -44.3189 H         1 UNK         0.3000 
    170 H170        1.6254  -17.0680  -46.6084 H         1 UNK         0.0600 
    171 H171       -0.6349  -17.4462  -47.5850 H         1 UNK         0.0600 
    172 H172       -1.1097  -15.8172  -47.1476 H         1 UNK         0.0600 
    173 H173        0.1564  -16.0731  -48.3443 H         1 UNK         0.0600 
    174 H174        0.7423  -14.3272  -46.5032 H         1 UNK         0.3000 
    175 H175        3.5233  -13.2105  -44.4867 H         1 UNK         0.0600 
    176 H176        2.6866  -12.8003  -47.4050 H         1 UNK         0.0600 
    177 H177        3.7220  -11.7289  -46.4645 H         1 UNK         0.0600 
    178 H178        4.2678  -13.3513  -46.8644 H         1 UNK         0.0600 
    179 H179        1.4079  -11.6968  -45.5395 H         1 UNK         0.3000 
    180 H180       -0.7441  -11.8536  -42.6547 H         1 UNK         0.0600 
    181 H181        1.0831  -10.2221  -42.2655 H         1 UNK         0.0600 
    182 H182        1.0571   -9.7440  -43.9580 H         1 UNK         0.0600 
    183 H183       -0.3357   -9.4248  -42.9272 H         1 UNK         0.0600 
    184 H184       -0.6399  -10.8184  -45.4433 H         1 UNK         0.3000 
    185 H185       -3.1993  -12.9397  -46.5343 H         1 UNK         0.0600 
    186 H186       -4.6929  -11.2909  -45.3905 H         1 UNK         0.0600 
    187 H187       -3.6637   -9.9695  -45.9299 H         1 UNK         0.0600 
    188 H188       -4.5513  -10.9417  -47.1054 H         1 UNK         0.0600 
    189 H189       -2.1328  -10.6282  -47.7744 H         1 UNK         0.3000 
    190 H190       -2.7634  -21.4451  -43.6396 H         1 UNK         0.3000 
    191 H191       -5.2228  -22.7382  -42.7671 H         1 UNK         0.0600 
    192 H192       -3.7310  -23.8322  -41.1172 H         1 UNK         0.0600 
    193 H193       -3.4569  -22.0973  -41.1368 H         1 UNK         0.0600 
    194 H194       -2.3097  -23.1826  -41.9202 H         1 UNK         0.0600 
    195 H195       -2.2636  -23.6785  -44.5594 H         1 UNK         0.3000 
    196 H196       -2.9336  -26.4224  -44.9193 H         1 UNK         0.0600 
    197 H197       -1.1258  -26.3513  -46.6409 H         1 UNK         0.0600 
    198 H198       -0.6264  -25.5521  -45.1566 H         1 UNK         0.0600 
    199 H199       -1.0981  -24.5950  -46.5574 H         1 UNK         0.0600 
    200 H200       -3.2807  -23.6124  -47.1095 H         1 UNK         0.3000 
    201 H201       -4.4440  -23.0808  -48.8495 H         1 UNK         0.0600 
    202 H202       -6.4605  -23.5576  -47.5138 H         1 UNK         0.0600 
    203 H203       -6.4646  -25.2383  -48.0398 H         1 UNK         0.0600 
    204 H204       -6.7423  -23.9496  -49.2031 H         1 UNK         0.0600 
    205 H205       -4.6609  -26.6335  -48.8030 H         1 UNK         0.3000 
    206 H206       -4.3568  -28.2634  -50.3069 H         1 UNK         0.0600 
    207 H207       -2.0176  -27.6010  -49.7094 H         1 UNK         0.0600 
    208 H208       -2.1032  -28.2759  -51.3287 H         1 UNK         0.0600 
    209 H209       -1.9561  -26.5380  -51.1122 H         1 UNK         0.0600 
    210 H210       -6.3400  -26.6095  -51.2468 H         1 UNK         0.3000 
    211 H211       -7.5700  -25.9684  -52.9866 H         1 UNK         0.0600 
    212 H212       -5.9337  -27.9406  -54.6680 H         1 UNK         0.0600 
    213 H213       -7.5228  -27.2993  -55.0574 H         1 UNK         0.0600 
    214 H214       -7.3275  -28.3639  -53.6751 H         1 UNK         0.0600 
    215 H215       -5.4617  -24.3535  -52.2989 H         1 UNK         0.3000 
    216 H216       -4.6773  -22.3782  -52.7507 H         1 UNK         0.0600 
    217 H217       -6.4484  -21.9333  -54.4535 H         1 UNK         0.0600 
    218 H218       -5.4291  -22.6427  -55.7074 H         1 UNK         0.0600 
    219 H219       -4.9233  -21.1823  -54.8915 H         1 UNK         0.0600 
    220 H220       -3.3523  -25.2298  -53.7070 H         1 UNK         0.3000 
    221 H221       -1.0616  -24.2435  -55.1855 H         1 UNK         0.0600 
    222 H222       -1.4249  -26.9615  -53.8387 H         1 UNK         0.0600 
    223 H223       -2.0584  -26.5636  -55.4376 H         1 UNK         0.0600 
    224 H224       -0.3262  -26.5533  -55.1440 H         1 UNK         0.0600 
    225 H225       -1.8042  -24.1204  -51.8419 H         1 UNK         0.3000 
    226 H226        0.5900  -24.8757  -50.6245 H         1 UNK         0.0600 
    227 H227       -1.4175  -24.5688  -49.3124 H         1 UNK         0.0600 
    228 H228       -0.2235  -23.4468  -48.7010 H         1 UNK         0.0600 
    229 H229       -1.5235  -22.8551  -49.7298 H         1 UNK         0.0600 
    230 H230       -0.2364  -21.6692  -51.9660 H         1 UNK         0.3000 
    231 H231        2.5621  -21.0846  -52.3449 H         1 UNK         0.0600 
    232 H232        2.3523  -20.3279  -49.9589 H         1 UNK         0.0600 
    233 H233        2.6731  -18.9892  -51.0393 H         1 UNK         0.0600 
    234 H234        1.0509  -19.2349  -50.4181 H         1 UNK         0.0600 
    235 H235        0.3214  -21.5563  -54.0087 H         1 UNK         0.3000 
    236 H236       -0.7635  -20.8677  -55.8176 H         1 UNK         0.0600 
    237 H237        1.5188  -20.3013  -56.6147 H         1 UNK         0.0600 
    238 H238        0.3258  -19.2003  -57.2854 H         1 UNK         0.0600 
    239 H239        1.3648  -18.6676  -55.9721 H         1 UNK         0.0600 
    240 H240       -2.3819  -20.4178  -54.0459 H         1 UNK         0.3000 
    241 H241       -2.8476  -17.7183  -53.2165 H         1 UNK         0.0600 
    242 H242       -5.1024  -17.9602  -56.5367 H         1 UNK         0.3800 
    243 H243       -3.7960  -19.0739  -56.2273 H         1 UNK         0.3800 
    244 H244       -4.6513  -18.5390  -51.8790 H         1 UNK         0.0800 
    245 H245       -4.8794  -19.9499  -52.8613 H         1 UNK         0.0800 
    246 H246       -1.1878  -19.5621  -50.0453 H         1 UNK         0.0800 
    247 H247       -1.1913  -18.7912  -51.6138 H         1 UNK         0.0800 
@<TRIPOS>BOND
     1    1    2 1    
     2    1  127 1    
     3    1  128 1    
     4    1  129 1    
     5    2    3 2    
     6    2    4 am   BACKBONE|DICT|INTERRES
     7    4    5 1    
     8    4  130 1    
     9    5    6 1    
    10    5   65 1    
    11    5  131 1    
    12    6    7 1    
    13    6  132 1    
    14    6  133 1    
    15    7    8 1    
    16    8    9 1    
    17    8  134 1    
    18    8  135 1    
    19    9   10 ar   
    20    9   14 ar   
    21   10   11 ar   
    22   10  136 1    
    23   11   12 ar   
    24   11  126 1    
    25   12   13 ar   
    26   12  137 1    
    27   13   14 ar   
    28   13   15 1    
    29   14  138 1    
    30   15   16 1    
    31   15  139 1    
    32   15  140 1    
    33   16   17 1    
    34   17   18 1    
    35   17  141 1    
    36   17  142 1    
    37   18   19 1    
    38   18   67 1    
    39   18  143 1    
    40   19   20 am   BACKBONE|DICT|INTERRES
    41   19  144 1    
    42   20   21 2    
    43   20   22 1    
    44   22   23 1    
    45   22   24 1    
    46   22  145 1    
    47   23  146 1    
    48   23  147 1    
    49   23  148 1    
    50   24   25 am   BACKBONE|DICT|INTERRES
    51   24  149 1    
    52   25   26 2    
    53   25   27 1    
    54   27   28 1    
    55   27   29 1    
    56   27  150 1    
    57   28  151 1    
    58   28  152 1    
    59   28  153 1    
    60   29   30 am   BACKBONE|DICT|INTERRES
    61   29  154 1    
    62   30   31 2    
    63   30   32 1    
    64   32   33 1    
    65   32   34 1    
    66   32  155 1    
    67   33  156 1    
    68   33  157 1    
    69   33  158 1    
    70   34   35 am   BACKBONE|DICT|INTERRES
    71   34  159 1    
    72   35   36 2    
    73   35   37 1    
    74   37   38 1    
    75   37   39 1    
    76   37  160 1    
    77   38  161 1    
    78   38  162 1    
    79   38  163 1    
    80   39   40 am   BACKBONE|DICT|INTERRES
    81   39  164 1    
    82   40   41 2    
    83   40   42 1    
    84   42   43 1    
    85   42   44 1    
    86   42  165 1    
    87   43  166 1    
    88   43  167 1    
    89   43  168 1    
    90   44   45 am   BACKBONE|DICT|INTERRES
    91   44  169 1    
    92   45   46 2    
    93   45   47 1    
    94   47   48 1    
    95   47   49 1    
    96   47  170 1    
    97   48  171 1    
    98   48  172 1    
    99   48  173 1    
   100   49   50 am   BACKBONE|DICT|INTERRES
   101   49  174 1    
   102   50   51 2    
   103   50   52 1    
   104   52   53 1    
   105   52   54 1    
   106   52  175 1    
   107   53  176 1    
   108   53  177 1    
   109   53  178 1    
   110   54   55 am   BACKBONE|DICT|INTERRES
   111   54  179 1    
   112   55   56 2    
   113   55   57 1    
   114   57   58 1    
   115   57   59 1    
   116   57  180 1    
   117   58  181 1    
   118   58  182 1    
   119   58  183 1    
   120   59   60 am   BACKBONE|DICT|INTERRES
   121   59  184 1    
   122   60   61 2    
   123   60   62 1    
   124   62   63 1    
   125   62   64 1    
   126   62  185 1    
   127   63  186 1    
   128   63  187 1    
   129   63  188 1    
   130   64   65 am   BACKBONE|DICT|INTERRES
   131   64  189 1    
   132   65   66 2    
   133   67   68 2    
   134   67   69 am   BACKBONE|DICT|INTERRES
   135   69   70 1    
   136   69  190 1    
   137   70   71 1    
   138   70   72 1    
   139   70  191 1    
   140   71  192 1    
   141   71  193 1    
   142   71  194 1    
   143   72   73 2    
   144   72   74 am   BACKBONE|DICT|INTERRES
   145   74   75 1    
   146   74  195 1    
   147   75   76 1    
   148   75   77 1    
   149   75  196 1    
   150   76  197 1    
   151   76  198 1    
   152   76  199 1    
   153   77   78 2    
   154   77   79 am   BACKBONE|DICT|INTERRES
   155   79   80 1    
   156   79  200 1    
   157   80   81 1    
   158   80   82 1    
   159   80  201 1    
   160   81  202 1    
   161   81  203 1    
   162   81  204 1    
   163   82   83 2    
   164   82   84 am   BACKBONE|DICT|INTERRES
   165   84   85 1    
   166   84  205 1    
   167   85   86 1    
   168   85   87 1    
   169   85  206 1    
   170   86  207 1    
   171   86  208 1    
   172   86  209 1    
   173   87   88 2    
   174   87   89 am   BACKBONE|DICT|INTERRES
   175   89   90 1    
   176   89  210 1    
   177   90   91 1    
   178   90   92 1    
   179   90  211 1    
   180   91  212 1    
   181   91  213 1    
   182   91  214 1    
   183   92   93 2    
   184   92   94 am   BACKBONE|DICT|INTERRES
   185   94   95 1    
   186   94  215 1    
   187   95   96 1    
   188   95   97 1    
   189   95  216 1    
   190   96  217 1    
   191   96  218 1    
   192   96  219 1    
   193   97   98 2    
   194   97   99 am   BACKBONE|DICT|INTERRES
   195   99  100 1    
   196   99  220 1    
   197  100  101 1    
   198  100  102 1    
   199  100  221 1    
   200  101  222 1    
   201  101  223 1    
   202  101  224 1    
   203  102  103 2    
   204  102  104 am   BACKBONE|DICT|INTERRES
   205  104  105 1    
   206  104  225 1    
   207  105  106 1    
   208  105  107 1    
   209  105  226 1    
   210  106  227 1    
   211  106  228 1    
   212  106  229 1    
   213  107  108 2    
   214  107  109 am   BACKBONE|DICT|INTERRES
   215  109  110 1    
   216  109  230 1    
   217  110  111 1    
   218  110  112 1    
   219  110  231 1    
   220  111  232 1    
   221  111  233 1    
   222  111  234 1    
   223  112  113 2    
   224  112  114 am   BACKBONE|DICT|INTERRES
   225  114  115 1    
   226  114  235 1    
   227  115  116 1    
   228  115  117 1    
   229  115  236 1    
   230  116  237 1    
   231  116  238 1    
   232  116  239 1    
   233  117  118 2    
   234  117  119 am   BACKBONE|DICT|INTERRES
   235  119  120 1    
   236  119  240 1    
   237  120  121 1    
   238  120  124 1    
   239  120  241 1    
   240  121  122 am   BACKBONE|DICT|INTERRES
   241  121  123 2    
   242  122  242 1    
   243  122  243 1    
   244  124  125 1    
   245  124  244 1    
   246  124  245 1    
   247  125  126 1    
   248  126  246 1    
   249  126  247 1    
@<TRIPOS>SUBSTRUCTURE
     1 UNK         1 GROUP             0       ****    0 ROOT    
