@<TRIPOS>MOLECULE
3R540
247   249    1
SMALL
USER_CHARGES


@<TRIPOS>ATOM
      1 CA          5.7303  -15.7726  -45.5889 C.3       0 UNK        -0.1800 
      2 C           5.3406  -14.3285  -45.8692 C.2       0 UNK         0.5000 
      3 O           5.7863  -13.4217  -45.1654 O.2       0 UNK        -0.5000 
      4 N           4.5093  -14.1082  -46.8941 N.am      1 UNK        -0.5000 
      5 CA          4.0667  -12.7836  -47.3382 C.3       1 UNK         0.1400 
      6 C6          2.8902  -12.8907  -48.3445 C.3       23 UNK        -0.0398 
      7 S7          1.2756  -12.7812  -47.5098 S.3       23 UNK        -0.2404 
      8 C8          1.0351  -14.4842  -46.9170 C.3       23 UNK        -0.0205 
      9 C9          0.8178  -15.4785  -48.0472 C.ar      23 UNK        -0.0193 
     10 C10        -0.2995  -15.3586  -48.8779 C.ar      23 UNK        -0.1150 
     11 C11        -0.5314  -16.2853  -49.8965 C.ar      23 UNK        -0.0193 
     12 C12         0.3682  -17.3367  -50.0877 C.ar      23 UNK        -0.1150 
     13 C13         1.4881  -17.4701  -49.2621 C.ar      23 UNK        -0.0193 
     14 C14         1.7091  -16.5378  -48.2434 C.ar      23 UNK        -0.1150 
     15 C15         2.4613  -18.6190  -49.4746 C.3       23 UNK        -0.0205 
     16 S16         2.2160  -19.9532  -48.2631 S.3       23 UNK        -0.2404 
     17 C17         0.5638  -20.5744  -48.7278 C.3       23 UNK        -0.0398 
     18 CA          0.2334  -21.9018  -48.0076 C.3       11 UNK         0.1400 
     19 N           0.1250  -21.7386  -46.5548 N.am      11 UNK        -0.5000 
     20 C           0.0469  -22.7470  -45.6769 C.2       10 UNK         0.5000 
     21 O           0.0921  -23.9338  -45.9956 O.2       10 UNK        -0.5000 
     22 CA         -0.1745  -22.3713  -44.2023 C.3       10 UNK         0.1400 
     23 CB          1.1417  -21.9523  -43.5294 C.3       10 UNK        -0.1800 
     24 N          -1.1727  -21.3128  -44.0536 N.am      10 UNK        -0.5000 
     25 C          -2.4798  -21.4687  -44.3069 C.2       9 UNK         0.5000 
     26 O          -2.9847  -22.5336  -44.6600 O.2       9 UNK        -0.5000 
     27 CA         -3.3651  -20.2164  -44.1812 C.3       9 UNK         0.1400 
     28 CB         -3.7862  -19.9930  -42.7214 C.3       9 UNK        -0.1800 
     29 N          -2.7060  -19.0127  -44.6850 N.am      9 UNK        -0.5000 
     30 C          -2.4007  -18.7989  -45.9737 C.2       8 UNK         0.5000 
     31 O          -2.6642  -19.5872  -46.8803 O.2       8 UNK        -0.5000 
     32 CA         -1.6165  -17.5123  -46.2884 C.3       8 UNK         0.1400 
     33 CB         -2.5833  -16.3237  -46.4042 C.3       8 UNK        -0.1800 
     34 N          -0.5918  -17.2093  -45.2854 N.am      8 UNK        -0.5000 
     35 C           0.4002  -18.0400  -44.9272 C.2       7 UNK         0.5000 
     36 O           0.5844  -19.1361  -45.4516 O.2       7 UNK        -0.5000 
     37 CA          1.3073  -17.6233  -43.7537 C.3       7 UNK         0.1400 
     38 CB          2.7166  -17.2754  -44.2533 C.3       7 UNK        -0.1800 
     39 N           0.7738  -16.5173  -42.9540 N.am      7 UNK        -0.5000 
     40 C          -0.3318  -16.5943  -42.1941 C.2       6 UNK         0.5000 
     41 O          -1.0068  -17.6196  -42.0885 O.2       6 UNK        -0.5000 
     42 CA         -0.7873  -15.3202  -41.4523 C.3       6 UNK         0.1400 
     43 CB         -0.4061  -15.4032  -39.9666 C.3       6 UNK        -0.1800 
     44 N          -0.2461  -14.0790  -42.0083 N.am      6 UNK        -0.5000 
     45 C          -0.5019  -13.5945  -43.2319 C.2       5 UNK         0.5000 
     46 O          -1.2798  -14.1255  -44.0247 O.2       5 UNK        -0.5000 
     47 CA          0.2854  -12.3360  -43.6559 C.3       5 UNK         0.1400 
     48 CB         -0.5514  -11.0706  -43.4199 C.3       5 UNK        -0.1800 
     49 N           1.5832  -12.1871  -42.9843 N.am      5 UNK        -0.5000 
     50 C           2.5854  -13.0737  -43.0484 C.2       4 UNK         0.5000 
     51 O           2.5317  -14.1127  -43.7067 O.2       4 UNK        -0.5000 
     52 CA          3.8413  -12.7393  -42.2352 C.3       4 UNK         0.1400 
     53 CB          4.6169  -14.0020  -41.8196 C.3       4 UNK        -0.1800 
     54 N           4.7068  -11.8929  -43.0463 N.am      4 UNK        -0.5000 
     55 C           5.0402  -10.6306  -42.7592 C.2       3 UNK         0.5000 
     56 O           4.6459  -10.0249  -41.7616 O.2       3 UNK        -0.5000 
     57 CA          5.9682   -9.9186  -43.7606 C.3       3 UNK         0.1400 
     58 CB          7.4193  -10.3951  -43.5909 C.3       3 UNK        -0.1800 
     59 N           5.5663  -10.0832  -45.1595 N.am      3 UNK        -0.5000 
     60 C           4.4329   -9.6088  -45.6961 C.2       2 UNK         0.5000 
     61 O           3.5617   -9.0311  -45.0462 O.2       2 UNK        -0.5000 
     62 CA          4.2384   -9.7802  -47.2177 C.3       2 UNK         0.1400 
     63 CB          4.2751   -8.4103  -47.9138 C.3       2 UNK        -0.1800 
     64 N           5.2488  -10.6395  -47.8483 N.am      2 UNK        -0.5000 
     65 C           5.2443  -11.9774  -47.9419 C.2       1 UNK         0.5000 
     66 O           6.1480  -12.5757  -48.5277 O.2       1 UNK        -0.5000 
     67 C          -1.0245  -22.5680  -48.6024 C.2       11 UNK         0.5000 
     68 O          -0.8940  -23.4678  -49.4326 O.2       11 UNK        -0.5000 
     69 N          -2.2145  -22.1649  -48.1333 N.am      12 UNK        -0.5000 
     70 CA         -3.4940  -22.7781  -48.4909 C.3       12 UNK         0.1400 
     71 CB         -4.6448  -21.9410  -47.9153 C.3       12 UNK        -0.1800 
     72 C          -3.6033  -24.2465  -48.0395 C.2       12 UNK         0.5000 
     73 O          -4.0782  -25.0797  -48.8116 O.2       12 UNK        -0.5000 
     74 N          -3.1326  -24.5430  -46.8194 N.am      13 UNK        -0.5000 
     75 CA         -3.0628  -25.8952  -46.2642 C.3       13 UNK         0.1400 
     76 CB         -2.7360  -25.8278  -44.7651 C.3       13 UNK        -0.1800 
     77 C          -2.0543  -26.7920  -47.0048 C.2       13 UNK         0.5000 
     78 O          -2.3571  -27.9591  -47.2503 O.2       13 UNK        -0.5000 
     79 N          -0.8959  -26.2307  -47.3804 N.am      14 UNK        -0.5000 
     80 CA          0.1377  -26.8984  -48.1760 C.3       14 UNK         0.1400 
     81 CB          1.4096  -26.0374  -48.1991 C.3       14 UNK        -0.1800 
     82 C          -0.3292  -27.2204  -49.6078 C.2       14 UNK         0.5000 
     83 O          -0.0084  -28.2909  -50.1252 O.2       14 UNK        -0.5000 
     84 N          -1.1089  -26.3082  -50.2055 N.am      15 UNK        -0.5000 
     85 CA         -1.7785  -26.4970  -51.4947 C.3       15 UNK         0.1400 
     86 CB         -2.2747  -25.1350  -52.0017 C.3       15 UNK        -0.1800 
     87 C          -2.9484  -27.5007  -51.4328 C.2       15 UNK         0.5000 
     88 O          -3.3627  -28.0072  -52.4759 O.2       15 UNK        -0.5000 
     89 N          -3.4724  -27.7472  -50.2233 N.am      16 UNK        -0.5000 
     90 CA         -4.5601  -28.6503  -49.8260 C.3       16 UNK         0.1400 
     91 CB         -4.2479  -30.1092  -50.2074 C.3       16 UNK        -0.1800 
     92 C          -5.9569  -28.2288  -50.3185 C.2       16 UNK         0.5000 
     93 O          -6.9198  -28.3229  -49.5566 O.2       16 UNK        -0.5000 
     94 N          -6.0479  -27.7628  -51.5684 N.am      17 UNK        -0.5000 
     95 CA         -7.2707  -27.2710  -52.2012 C.3       17 UNK         0.1400 
     96 CB         -7.0527  -27.2288  -53.7216 C.3       17 UNK        -0.1800 
     97 C          -7.7116  -25.8868  -51.6872 C.2       17 UNK         0.5000 
     98 O          -8.8887  -25.5496  -51.8243 O.2       17 UNK        -0.5000 
     99 N          -6.7662  -25.1149  -51.1250 N.am      18 UNK        -0.5000 
    100 CA        -6.9091  -23.7214  -50.6900 C.3       18 UNK         0.1400 
    101 CB        -7.8219  -23.6346  -49.4459 C.3       18 UNK        -0.1800 
    102 C         -7.3372  -22.8038  -51.8581 C.2       18 UNK         0.5000 
    103 O         -6.8703  -23.0197  -52.9790 O.2       18 UNK        -0.5000 
    104 N         -8.1987  -21.8115  -51.5808 N.am      19 UNK        -0.5000 
    105 CA        -8.8854  -20.9150  -52.5210 C.3       19 UNK         0.1400 
    106 CB       -10.0663  -21.6638  -53.1765 C.3       19 UNK        -0.1800 
    107 C         -7.9415  -20.2560  -53.5484 C.2       19 UNK         0.5000 
    108 O         -7.3030  -19.2507  -53.2312 O.2       19 UNK        -0.5000 
    109 N         -7.8394  -20.8670  -54.7385 N.am      20 UNK        -0.5000 
    110 CA        -6.9600  -20.4996  -55.8507 C.3       20 UNK         0.1400 
    111 CB        -7.1942  -21.4789  -57.0106 C.3       20 UNK        -0.1800 
    112 C         -5.4606  -20.4363  -55.4945 C.2       20 UNK         0.5000 
    113 O         -4.7177  -19.7358  -56.1836 O.2       20 UNK        -0.5000 
    114 N         -5.0525  -21.0962  -54.3987 N.am      21 UNK        -0.5000 
    115 CA        -3.7280  -20.9944  -53.7734 C.3       21 UNK         0.1400 
    116 CB        -3.7084  -21.8674  -52.5090 C.3       21 UNK        -0.1800 
    117 C         -3.3013  -19.5502  -53.4252 C.2       21 UNK         0.5000 
    118 O         -2.1045  -19.2596  -53.4335 O.2       21 UNK        -0.5000 
    119 N         -4.2830  -18.6763  -53.1679 N.am      22 UNK        -0.5000 
    120 CA        -4.1216  -17.2240  -53.0084 C.3       22 UNK         0.1400 
    121 C         -4.9814  -16.4281  -54.0359 C.2       22 UNK         0.5000 
    122 N         -5.3141  -16.9873  -55.1938 N.am      22 UNK        -0.7600 
    123 O         -5.3371  -15.2759  -53.8030 O.2       22 UNK        -0.5000 
    124 C124       -4.3515  -16.7705  -51.5401 C.3       23 UNK        -0.0398 
    125 S125       -3.0450  -17.3439  -50.4018 S.3       23 UNK        -0.2404 
    126 C126       -1.7404  -16.1380  -50.8030 C.3       23 UNK        -0.0205 
    127 H127        6.8012  -15.9070  -45.7401 H         1 UNK         0.0600 
    128 H128        5.4962  -16.0316  -44.5570 H         1 UNK         0.0600 
    129 H129        5.2025  -16.4692  -46.2408 H         1 UNK         0.0600 
    130 H130        4.2167  -14.8842  -47.4675 H         1 UNK         0.3000 
    131 H131        3.7269  -12.2694  -46.4384 H         1 UNK         0.0600 
    132 H132        2.9487  -13.8009  -48.9431 H         1 UNK         0.0800 
    133 H133        2.9029  -12.0727  -49.0676 H         1 UNK         0.0800 
    134 H134        0.1629  -14.5029  -46.2651 H         1 UNK         0.0800 
    135 H135        1.8816  -14.7692  -46.2943 H         1 UNK         0.0800 
    136 H136       -0.9915  -14.5424  -48.7249 H         1 UNK         0.1150 
    137 H137        0.1891  -18.0539  -50.8768 H         1 UNK         0.1150 
    138 H138        2.5669  -16.6510  -47.5963 H         1 UNK         0.1150 
    139 H139        2.3708  -19.0224  -50.4843 H         1 UNK         0.0800 
    140 H140        3.4832  -18.2476  -49.3864 H         1 UNK         0.0800 
    141 H141        0.5448  -20.7092  -49.8110 H         1 UNK         0.0800 
    142 H142       -0.1827  -19.8133  -48.4929 H         1 UNK         0.0800 
    143 H143        1.0616  -22.5899  -48.1902 H         1 UNK         0.0600 
    144 H144        0.1470  -20.7836  -46.2029 H         1 UNK         0.3000 
    145 H145       -0.5462  -23.2585  -43.6853 H         1 UNK         0.0600 
    146 H146        0.9884  -21.7127  -42.4771 H         1 UNK         0.0600 
    147 H147        1.8728  -22.7603  -43.5755 H         1 UNK         0.0600 
    148 H148        1.5893  -21.0827  -44.0101 H         1 UNK         0.0600 
    149 H149       -0.8303  -20.3912  -43.8257 H         1 UNK         0.3000 
    150 H150       -4.2664  -20.3834  -44.7745 H         1 UNK         0.0600 
    151 H151       -4.2971  -20.8709  -42.3239 H         1 UNK         0.0600 
    152 H152       -4.4723  -19.1504  -42.6337 H         1 UNK         0.0600 
    153 H153       -2.9270  -19.7935  -42.0796 H         1 UNK         0.0600 
    154 H154       -2.4113  -18.3331  -43.9967 H         1 UNK         0.3000 
    155 H155       -1.1145  -17.6545  -47.2469 H         1 UNK         0.0600 
    156 H156       -3.1325  -16.1588  -45.4764 H         1 UNK         0.0600 
    157 H157       -3.3139  -16.4937  -47.1960 H         1 UNK         0.0600 
    158 H158       -2.0579  -15.4000  -46.6415 H         1 UNK         0.0600 
    159 H159       -0.6847  -16.3294  -44.7960 H         1 UNK         0.3000 
    160 H160        1.3939  -18.4909  -43.0964 H         1 UNK         0.0600 
    161 H161        3.3747  -17.0061  -43.4271 H         1 UNK         0.0600 
    162 H162        2.7018  -16.4432  -44.9549 H         1 UNK         0.0600 
    163 H163        3.1688  -18.1244  -44.7678 H         1 UNK         0.0600 
    164 H164        1.2691  -15.6351  -43.0260 H         1 UNK         0.3000 
    165 H165       -1.8757  -15.2734  -41.5264 H         1 UNK         0.0600 
    166 H166       -0.7939  -14.5494  -39.4107 H         1 UNK         0.0600 
    167 H167       -0.8185  -16.3023  -39.5064 H         1 UNK         0.0600 
    168 H168        0.6757  -15.4314  -39.8301 H         1 UNK         0.0600 
    169 H169        0.4068  -13.5741  -41.4278 H         1 UNK         0.3000 
    170 H170        0.4775  -12.4201  -44.7255 H         1 UNK         0.0600 
    171 H171       -1.5131  -11.1377  -43.9305 H         1 UNK         0.0600 
    172 H172       -0.7522  -10.9125  -42.3596 H         1 UNK         0.0600 
    173 H173       -0.0434  -10.1852  -43.8028 H         1 UNK         0.0600 
    174 H174        1.7151  -11.3445  -42.4430 H         1 UNK         0.3000 
    175 H175        3.5264  -12.2284  -41.3230 H         1 UNK         0.0600 
    176 H176        4.9877  -14.5544  -42.6829 H         1 UNK         0.0600 
    177 H177        5.4739  -13.7473  -41.1962 H         1 UNK         0.0600 
    178 H178        3.9835  -14.6782  -41.2442 H         1 UNK         0.0600 
    179 H179        5.0799  -12.3261  -43.8901 H         1 UNK         0.3000 
    180 H180        5.9374   -8.8510  -43.5327 H         1 UNK         0.0600 
    181 H181        7.5306  -11.4486  -43.8515 H         1 UNK         0.0600 
    182 H182        7.7522  -10.2751  -42.5591 H         1 UNK         0.0600 
    183 H183        8.0995   -9.8203  -44.2196 H         1 UNK         0.0600 
    184 H184        6.2182  -10.5648  -45.7617 H         1 UNK         0.3000 
    185 H185        3.2426  -10.1960  -47.3776 H         1 UNK         0.0600 
    186 H186        3.5124   -7.7430  -47.5100 H         1 UNK         0.0600 
    187 H187        5.2407   -7.9191  -47.7869 H         1 UNK         0.0600 
    188 H188        4.0847   -8.5059  -48.9831 H         1 UNK         0.0600 
    189 H189        6.0277  -10.1457  -48.2594 H         1 UNK         0.3000 
    190 H190       -2.2550  -21.3762  -47.4934 H         1 UNK         0.3000 
    191 H191       -3.5756  -22.7639  -49.5793 H         1 UNK         0.0600 
    192 H192       -4.6601  -20.9418  -48.3511 H         1 UNK         0.0600 
    193 H193       -4.5612  -21.8331  -46.8340 H         1 UNK         0.0600 
    194 H194       -5.6097  -22.4017  -48.1199 H         1 UNK         0.0600 
    195 H195       -2.8140  -23.7897  -46.2182 H         1 UNK         0.3000 
    196 H196       -4.0496  -26.3505  -46.3725 H         1 UNK         0.0600 
    197 H197       -2.6954  -26.8265  -44.3287 H         1 UNK         0.0600 
    198 H198       -3.4962  -25.2666  -44.2217 H         1 UNK         0.0600 
    199 H199       -1.7735  -25.3501  -44.5824 H         1 UNK         0.0600 
    200 H200       -0.6886  -25.2848  -47.0699 H         1 UNK         0.3000 
    201 H201        0.3777  -27.8438  -47.6852 H         1 UNK         0.0600 
    202 H202        1.7877  -25.8659  -47.1912 H         1 UNK         0.0600 
    203 H203        1.2298  -25.0656  -48.6589 H         1 UNK         0.0600 
    204 H204        2.2028  -26.5272  -48.7652 H         1 UNK         0.0600 
    205 H205       -1.2563  -25.4158  -49.7438 H         1 UNK         0.3000 
    206 H206       -1.0491  -26.8844  -52.2088 H         1 UNK         0.0600 
    207 H207       -1.4498  -24.4314  -52.1152 H         1 UNK         0.0600 
    208 H208       -2.7580  -25.2293  -52.9750 H         1 UNK         0.0600 
    209 H209       -2.9978  -24.6929  -51.3159 H         1 UNK         0.0600 
    210 H210       -3.0824  -27.2158  -49.4560 H         1 UNK         0.3000 
    211 H211       -4.5923  -28.5999  -48.7367 H         1 UNK         0.0600 
    212 H212       -4.2193  -30.2531  -51.2877 H         1 UNK         0.0600 
    213 H213       -5.0062  -30.7846  -49.8098 H         1 UNK         0.0600 
    214 H214       -3.2866  -30.4236  -49.8006 H         1 UNK         0.0600 
    215 H215       -5.1983  -27.7573  -52.1265 H         1 UNK         0.3000 
    216 H216       -8.0776  -27.9756  -51.9892 H         1 UNK         0.0600 
    217 H217       -7.9540  -26.8944  -54.2372 H         1 UNK         0.0600 
    218 H218       -6.8020  -28.2151  -54.1124 H         1 UNK         0.0600 
    219 H219       -6.2470  -26.5449  -53.9922 H         1 UNK         0.0600 
    220 H220       -5.8342  -25.4975  -51.0590 H         1 UNK         0.3000 
    221 H221       -5.9118  -23.3918  -50.3991 H         1 UNK         0.0600 
    222 H222       -8.8542  -23.8998  -49.6769 H         1 UNK         0.0600 
    223 H223       -7.4748  -24.3108  -48.6641 H         1 UNK         0.0600 
    224 H224       -7.8259  -22.6317  -49.0185 H         1 UNK         0.0600 
    225 H225       -8.4802  -21.7046  -50.6168 H         1 UNK         0.3000 
    226 H226       -9.3033  -20.1004  -51.9275 H         1 UNK         0.0600 
    227 H227      -10.8000  -21.9598  -52.4266 H         1 UNK         0.0600 
    228 H228      -10.5840  -21.0315  -53.8991 H         1 UNK         0.0600 
    229 H229       -9.7460  -22.5699  -53.6923 H         1 UNK         0.0600 
    230 H230       -8.3666  -21.7190  -54.8625 H         1 UNK         0.3000 
    231 H231       -7.2543  -19.5008  -56.1789 H         1 UNK         0.0600 
    232 H232       -8.2332  -21.4608  -57.3399 H         1 UNK         0.0600 
    233 H233       -6.9486  -22.5029  -56.7257 H         1 UNK         0.0600 
    234 H234       -6.5775  -21.2206  -57.8726 H         1 UNK         0.0600 
    235 H235       -5.7341  -21.6747  -53.9163 H         1 UNK         0.3000 
    236 H236       -3.0006  -21.3934  -54.4828 H         1 UNK         0.0600 
    237 H237       -2.7141  -21.8880  -52.0605 H         1 UNK         0.0600 
    238 H238       -4.4014  -21.4935  -51.7543 H         1 UNK         0.0600 
    239 H239       -3.9861  -22.8958  -52.7380 H         1 UNK         0.0600 
    240 H240       -5.2454  -18.9975  -53.2002 H         1 UNK         0.3000 
    241 H241       -3.1028  -16.9483  -53.2809 H         1 UNK         0.0600 
    242 H242       -5.8610  -16.4568  -55.8532 H         1 UNK         0.3800 
    243 H243       -4.9862  -17.9131  -55.4450 H         1 UNK         0.3800 
    244 H244       -4.3995  -15.6833  -51.4615 H         1 UNK         0.0800 
    245 H245       -5.3136  -17.1384  -51.1806 H         1 UNK         0.0800 
    246 H246       -2.1447  -15.1271  -50.7309 H         1 UNK         0.0800 
    247 H247       -1.4234  -16.2712  -51.8378 H         1 UNK         0.0800 
@<TRIPOS>BOND
     1    1    2 1    
     2    1  127 1    
     3    1  128 1    
     4    1  129 1    
     5    2    3 2    
     6    2    4 am   BACKBONE|DICT|INTERRES
     7    4    5 1    
     8    4  130 1    
     9    5    6 1    
    10    5   65 1    
    11    5  131 1    
    12    6    7 1    
    13    6  132 1    
    14    6  133 1    
    15    7    8 1    
    16    8    9 1    
    17    8  134 1    
    18    8  135 1    
    19    9   10 ar   
    20    9   14 ar   
    21   10   11 ar   
    22   10  136 1    
    23   11   12 ar   
    24   11  126 1    
    25   12   13 ar   
    26   12  137 1    
    27   13   14 ar   
    28   13   15 1    
    29   14  138 1    
    30   15   16 1    
    31   15  139 1    
    32   15  140 1    
    33   16   17 1    
    34   17   18 1    
    35   17  141 1    
    36   17  142 1    
    37   18   19 1    
    38   18   67 1    
    39   18  143 1    
    40   19   20 am   BACKBONE|DICT|INTERRES
    41   19  144 1    
    42   20   21 2    
    43   20   22 1    
    44   22   23 1    
    45   22   24 1    
    46   22  145 1    
    47   23  146 1    
    48   23  147 1    
    49   23  148 1    
    50   24   25 am   BACKBONE|DICT|INTERRES
    51   24  149 1    
    52   25   26 2    
    53   25   27 1    
    54   27   28 1    
    55   27   29 1    
    56   27  150 1    
    57   28  151 1    
    58   28  152 1    
    59   28  153 1    
    60   29   30 am   BACKBONE|DICT|INTERRES
    61   29  154 1    
    62   30   31 2    
    63   30   32 1    
    64   32   33 1    
    65   32   34 1    
    66   32  155 1    
    67   33  156 1    
    68   33  157 1    
    69   33  158 1    
    70   34   35 am   BACKBONE|DICT|INTERRES
    71   34  159 1    
    72   35   36 2    
    73   35   37 1    
    74   37   38 1    
    75   37   39 1    
    76   37  160 1    
    77   38  161 1    
    78   38  162 1    
    79   38  163 1    
    80   39   40 am   BACKBONE|DICT|INTERRES
    81   39  164 1    
    82   40   41 2    
    83   40   42 1    
    84   42   43 1    
    85   42   44 1    
    86   42  165 1    
    87   43  166 1    
    88   43  167 1    
    89   43  168 1    
    90   44   45 am   BACKBONE|DICT|INTERRES
    91   44  169 1    
    92   45   46 2    
    93   45   47 1    
    94   47   48 1    
    95   47   49 1    
    96   47  170 1    
    97   48  171 1    
    98   48  172 1    
    99   48  173 1    
   100   49   50 am   BACKBONE|DICT|INTERRES
   101   49  174 1    
   102   50   51 2    
   103   50   52 1    
   104   52   53 1    
   105   52   54 1    
   106   52  175 1    
   107   53  176 1    
   108   53  177 1    
   109   53  178 1    
   110   54   55 am   BACKBONE|DICT|INTERRES
   111   54  179 1    
   112   55   56 2    
   113   55   57 1    
   114   57   58 1    
   115   57   59 1    
   116   57  180 1    
   117   58  181 1    
   118   58  182 1    
   119   58  183 1    
   120   59   60 am   BACKBONE|DICT|INTERRES
   121   59  184 1    
   122   60   61 2    
   123   60   62 1    
   124   62   63 1    
   125   62   64 1    
   126   62  185 1    
   127   63  186 1    
   128   63  187 1    
   129   63  188 1    
   130   64   65 am   BACKBONE|DICT|INTERRES
   131   64  189 1    
   132   65   66 2    
   133   67   68 2    
   134   67   69 am   BACKBONE|DICT|INTERRES
   135   69   70 1    
   136   69  190 1    
   137   70   71 1    
   138   70   72 1    
   139   70  191 1    
   140   71  192 1    
   141   71  193 1    
   142   71  194 1    
   143   72   73 2    
   144   72   74 am   BACKBONE|DICT|INTERRES
   145   74   75 1    
   146   74  195 1    
   147   75   76 1    
   148   75   77 1    
   149   75  196 1    
   150   76  197 1    
   151   76  198 1    
   152   76  199 1    
   153   77   78 2    
   154   77   79 am   BACKBONE|DICT|INTERRES
   155   79   80 1    
   156   79  200 1    
   157   80   81 1    
   158   80   82 1    
   159   80  201 1    
   160   81  202 1    
   161   81  203 1    
   162   81  204 1    
   163   82   83 2    
   164   82   84 am   BACKBONE|DICT|INTERRES
   165   84   85 1    
   166   84  205 1    
   167   85   86 1    
   168   85   87 1    
   169   85  206 1    
   170   86  207 1    
   171   86  208 1    
   172   86  209 1    
   173   87   88 2    
   174   87   89 am   BACKBONE|DICT|INTERRES
   175   89   90 1    
   176   89  210 1    
   177   90   91 1    
   178   90   92 1    
   179   90  211 1    
   180   91  212 1    
   181   91  213 1    
   182   91  214 1    
   183   92   93 2    
   184   92   94 am   BACKBONE|DICT|INTERRES
   185   94   95 1    
   186   94  215 1    
   187   95   96 1    
   188   95   97 1    
   189   95  216 1    
   190   96  217 1    
   191   96  218 1    
   192   96  219 1    
   193   97   98 2    
   194   97   99 am   BACKBONE|DICT|INTERRES
   195   99  100 1    
   196   99  220 1    
   197  100  101 1    
   198  100  102 1    
   199  100  221 1    
   200  101  222 1    
   201  101  223 1    
   202  101  224 1    
   203  102  103 2    
   204  102  104 am   BACKBONE|DICT|INTERRES
   205  104  105 1    
   206  104  225 1    
   207  105  106 1    
   208  105  107 1    
   209  105  226 1    
   210  106  227 1    
   211  106  228 1    
   212  106  229 1    
   213  107  108 2    
   214  107  109 am   BACKBONE|DICT|INTERRES
   215  109  110 1    
   216  109  230 1    
   217  110  111 1    
   218  110  112 1    
   219  110  231 1    
   220  111  232 1    
   221  111  233 1    
   222  111  234 1    
   223  112  113 2    
   224  112  114 am   BACKBONE|DICT|INTERRES
   225  114  115 1    
   226  114  235 1    
   227  115  116 1    
   228  115  117 1    
   229  115  236 1    
   230  116  237 1    
   231  116  238 1    
   232  116  239 1    
   233  117  118 2    
   234  117  119 am   BACKBONE|DICT|INTERRES
   235  119  120 1    
   236  119  240 1    
   237  120  121 1    
   238  120  124 1    
   239  120  241 1    
   240  121  122 am   BACKBONE|DICT|INTERRES
   241  121  123 2    
   242  122  242 1    
   243  122  243 1    
   244  124  125 1    
   245  124  244 1    
   246  124  245 1    
   247  125  126 1    
   248  126  246 1    
   249  126  247 1    
@<TRIPOS>SUBSTRUCTURE
     1 UNK         1 GROUP             0       ****    0 ROOT    
