@<TRIPOS>MOLECULE
3R540
247   249    1
SMALL
USER_CHARGES


@<TRIPOS>ATOM
      1 CA          3.5573  -14.5231  -44.7581 C.3       0 UNK        -0.1800 
      2 C           2.4035  -15.1270  -45.5454 C.2       0 UNK         0.5000 
      3 O           1.7783  -16.0848  -45.0852 O.2       0 UNK        -0.5000 
      4 N           2.1369  -14.5611  -46.7267 N.am      1 UNK        -0.5000 
      5 CA          0.9849  -14.8679  -47.5859 C.3       1 UNK         0.1400 
      6 C6          1.4174  -15.1399  -49.0495 C.3       23 UNK        -0.0398 
      7 S7          2.5214  -16.5847  -49.2100 S.3       23 UNK        -0.2404 
      8 C8          1.4043  -17.7796  -50.0186 C.3       23 UNK        -0.0205 
      9 C9          2.0445  -19.1289  -50.3378 C.ar      23 UNK        -0.0193 
     10 C10         1.6363  -19.8113  -51.4874 C.ar      23 UNK        -0.1150 
     11 C11         2.1782  -21.0557  -51.8140 C.ar      23 UNK        -0.0193 
     12 C12         3.1466  -21.6224  -50.9811 C.ar      23 UNK        -0.1150 
     13 C13         3.5762  -20.9519  -49.8313 C.ar      23 UNK        -0.0193 
     14 C14         3.0116  -19.7129  -49.5084 C.ar      23 UNK        -0.1150 
     15 C15         4.6830  -21.5488  -48.9680 C.3       23 UNK        -0.0205 
     16 S16         4.1554  -21.8969  -47.2602 S.3       23 UNK        -0.2404 
     17 C17         2.7887  -23.0709  -47.5291 C.3       23 UNK        -0.0398 
     18 CA          2.7383  -24.2282  -46.4986 C.3       11 UNK         0.1400 
     19 N           2.6876  -23.7437  -45.1119 N.am      11 UNK        -0.5000 
     20 C           2.8455  -24.5076  -44.0208 C.2       10 UNK         0.5000 
     21 O           3.1633  -25.6964  -44.0597 O.2       10 UNK        -0.5000 
     22 CA          2.5388  -23.8496  -42.6627 C.3       10 UNK         0.1400 
     23 CB          3.8105  -23.2585  -42.0347 C.3       10 UNK        -0.1800 
     24 N           1.5103  -22.8115  -42.7775 N.am      10 UNK        -0.5000 
     25 C           0.1986  -23.0568  -42.9151 C.2       9 UNK         0.5000 
     26 O          -0.2844  -24.1887  -42.9199 O.2       9 UNK        -0.5000 
     27 CA         -0.7274  -21.8438  -43.1293 C.3       9 UNK         0.1400 
     28 CB         -1.2007  -21.2823  -41.7816 C.3       9 UNK        -0.1800 
     29 N          -0.0935  -20.7835  -43.9158 N.am      9 UNK        -0.5000 
     30 C           0.1865  -20.8973  -45.2215 C.2       8 UNK         0.5000 
     31 O          -0.1513  -21.8712  -45.8960 O.2       8 UNK        -0.5000 
     32 CA          1.0032  -19.7766  -45.8923 C.3       8 UNK         0.1400 
     33 CB          0.0908  -18.7762  -46.6036 C.3       8 UNK        -0.1800 
     34 N           1.9044  -19.0448  -45.0034 N.am      8 UNK        -0.5000 
     35 C           2.9139  -19.5960  -44.3146 C.2       7 UNK         0.5000 
     36 O           3.1126  -20.8080  -44.2527 O.2       7 UNK        -0.5000 
     37 CA          3.8395  -18.6408  -43.5514 C.3       7 UNK         0.1400 
     38 CB          4.8808  -18.0356  -44.5056 C.3       7 UNK        -0.1800 
     39 N           3.0561  -17.5771  -42.9257 N.am      7 UNK        -0.5000 
     40 C           2.8309  -17.4743  -41.6110 C.2       6 UNK         0.5000 
     41 O           3.3817  -18.1745  -40.7604 O.2       6 UNK        -0.5000 
     42 CA          1.7896  -16.4301  -41.1642 C.3       6 UNK         0.1400 
     43 CB          2.4610  -15.0773  -40.8849 C.3       6 UNK        -0.1800 
     44 N           0.6826  -16.2280  -42.1030 N.am      6 UNK        -0.5000 
     45 C          -0.1718  -17.1649  -42.5348 C.2       5 UNK         0.5000 
     46 O          -0.0555  -18.3610  -42.2679 O.2       5 UNK        -0.5000 
     47 CA         -1.3642  -16.6773  -43.3880 C.3       5 UNK         0.1400 
     48 CB         -2.4020  -17.7880  -43.6431 C.3       5 UNK        -0.1800 
     49 N          -2.0577  -15.5397  -42.7768 N.am      5 UNK        -0.5000 
     50 C          -1.6497  -14.2664  -42.8096 C.2       4 UNK         0.5000 
     51 O          -0.6041  -13.9106  -43.3562 O.2       4 UNK        -0.5000 
     52 CA         -2.5707  -13.2475  -42.1100 C.3       4 UNK         0.1400 
     53 CB         -2.4951  -13.3673  -40.5737 C.3       4 UNK        -0.1800 
     54 N          -2.3385  -11.8768  -42.5806 N.am      4 UNK        -0.5000 
     55 C          -1.3328  -11.0360  -42.2895 C.2       3 UNK         0.5000 
     56 O          -0.4917  -11.2164  -41.4069 O.2       3 UNK        -0.5000 
     57 CA         -1.2603   -9.7933  -43.2030 C.3       3 UNK         0.1400 
     58 CB         -0.1128   -8.8235  -42.8468 C.3       3 UNK        -0.1800 
     59 N          -1.2137  -10.1979  -44.6160 N.am      3 UNK        -0.5000 
     60 C          -0.2519  -10.9247  -45.2050 C.2       2 UNK         0.5000 
     61 O           0.8409  -11.1874  -44.6936 O.2       2 UNK        -0.5000 
     62 CA         -0.5712  -11.4609  -46.6069 C.3       2 UNK         0.1400 
     63 CB         -0.2867  -10.4096  -47.6925 C.3       2 UNK        -0.1800 
     64 N           0.2631  -12.6345  -46.8273 N.am      2 UNK        -0.5000 
     65 C          -0.0536  -13.7224  -47.5383 C.2       1 UNK         0.5000 
     66 O          -1.1151  -13.8413  -48.1513 O.2       1 UNK        -0.5000 
     67 C           1.5395  -25.1403  -46.8490 C.2       11 UNK         0.5000 
     68 O           1.6078  -25.8611  -47.8447 O.2       11 UNK        -0.5000 
     69 N           0.4532  -25.0428  -46.0639 N.am      12 UNK        -0.5000 
     70 CA         -0.8878  -25.5844  -46.3146 C.3       12 UNK         0.1400 
     71 CB         -0.8767  -27.1257  -46.3805 C.3       12 UNK        -0.1800 
     72 C          -1.5652  -24.9244  -47.5367 C.2       12 UNK         0.5000 
     73 O          -2.4240  -25.5329  -48.1768 O.2       12 UNK        -0.5000 
     74 N          -1.1638  -23.6807  -47.8273 N.am      13 UNK        -0.5000 
     75 CA         -1.6966  -22.8402  -48.8918 C.3       13 UNK         0.1400 
     76 CB         -0.5784  -21.9143  -49.3950 C.3       13 UNK        -0.1800 
     77 C          -2.8916  -22.0139  -48.3939 C.2       13 UNK         0.5000 
     78 O          -3.8248  -21.7826  -49.1611 O.2       13 UNK        -0.5000 
     79 N          -2.8400  -21.5825  -47.1234 N.am      14 UNK        -0.5000 
     80 CA         -3.8164  -20.7323  -46.4358 C.3       14 UNK         0.1400 
     81 CB         -5.1358  -21.4991  -46.1978 C.3       14 UNK        -0.1800 
     82 C          -3.9969  -19.3836  -47.1630 C.2       14 UNK         0.5000 
     83 O          -3.1273  -18.5220  -47.0450 O.2       14 UNK        -0.5000 
     84 N          -5.0920  -19.2303  -47.9196 N.am      15 UNK        -0.5000 
     85 CA         -5.3626  -18.0583  -48.7581 C.3       15 UNK         0.1400 
     86 CB         -6.8822  -17.8433  -48.8456 C.3       15 UNK        -0.1800 
     87 C          -4.7113  -18.1501  -50.1580 C.2       15 UNK         0.5000 
     88 O          -4.8732  -17.2253  -50.9557 O.2       15 UNK        -0.5000 
     89 N          -3.9917  -19.2488  -50.4366 N.am      16 UNK        -0.5000 
     90 CA         -3.1851  -19.5244  -51.6269 C.3       16 UNK         0.1400 
     91 CB         -1.9534  -18.5961  -51.6744 C.3       16 UNK        -0.1800 
     92 C          -4.0334  -19.5133  -52.9077 C.2       16 UNK         0.5000 
     93 O          -4.8238  -20.4372  -53.1067 O.2       16 UNK        -0.5000 
     94 N          -3.8817  -18.4736  -53.7370 N.am      17 UNK        -0.5000 
     95 CA         -4.6098  -18.2912  -54.9916 C.3       17 UNK         0.1400 
     96 CB         -4.0136  -17.0981  -55.7524 C.3       17 UNK        -0.1800 
     97 C          -6.1247  -18.1055  -54.7907 C.2       17 UNK         0.5000 
     98 O          -6.9014  -18.5495  -55.6357 O.2       17 UNK        -0.5000 
     99 N          -6.5229  -17.4976  -53.6633 N.am      18 UNK        -0.5000 
    100 CA        -7.9260  -17.3165  -53.2837 C.3       18 UNK         0.1400 
    101 CB        -8.0352  -16.1695  -52.2701 C.3       18 UNK        -0.1800 
    102 C         -8.5674  -18.6084  -52.7393 C.2       18 UNK         0.5000 
    103 O         -9.7848  -18.7635  -52.8378 O.2       18 UNK        -0.5000 
    104 N         -7.7434  -19.5239  -52.2087 N.am      19 UNK        -0.5000 
    105 CA        -8.1494  -20.8792  -51.8242 C.3       19 UNK         0.1400 
    106 CB        -7.2236  -21.3863  -50.7029 C.3       19 UNK        -0.1800 
    107 C         -8.1191  -21.8569  -53.0166 C.2       19 UNK         0.5000 
    108 O         -8.6685  -22.9534  -52.9087 O.2       19 UNK        -0.5000 
    109 N         -7.4454  -21.4558  -54.1068 N.am      20 UNK        -0.5000 
    110 CA        -7.0630  -22.2526  -55.2770 C.3       20 UNK         0.1400 
    111 CB        -8.3041  -22.7054  -56.0734 C.3       20 UNK        -0.1800 
    112 C         -6.1144  -23.4155  -54.9090 C.2       20 UNK         0.5000 
    113 O         -6.1406  -24.4649  -55.5547 O.2       20 UNK        -0.5000 
    114 N         -5.3031  -23.2102  -53.8623 N.am      21 UNK        -0.5000 
    115 CA        -4.3872  -24.2047  -53.3104 C.3       21 UNK         0.1400 
    116 CB        -4.1015  -23.8625  -51.8404 C.3       21 UNK        -0.1800 
    117 C         -3.0796  -24.2876  -54.1122 C.2       21 UNK         0.5000 
    118 O         -2.5947  -25.3892  -54.3728 O.2       21 UNK        -0.5000 
    119 N         -2.5445  -23.1240  -54.4946 N.am      22 UNK        -0.5000 
    120 CA        -1.2905  -22.9495  -55.2360 C.3       22 UNK         0.1400 
    121 C         -1.1367  -21.4846  -55.7272 C.2       22 UNK         0.5000 
    122 N         -0.1953  -21.2178  -56.6222 N.am      22 UNK        -0.7600 
    123 O         -1.8602  -20.5840  -55.3082 O.2       22 UNK        -0.5000 
    124 C124       -0.0373  -23.4594  -54.4641 C.3       23 UNK        -0.0398 
    125 S125        0.1996  -22.7097  -52.8134 S.3       23 UNK        -0.2404 
    126 C126        1.7325  -21.7692  -53.0809 C.3       23 UNK        -0.0205 
    127 H127        4.2831  -14.0464  -45.4172 H         1 UNK         0.0600 
    128 H128        4.0795  -15.2831  -44.1800 H         1 UNK         0.0600 
    129 H129        3.1774  -13.7710  -44.0668 H         1 UNK         0.0600 
    130 H130        2.7339  -13.8167  -47.0583 H         1 UNK         0.3000 
    131 H131        0.4669  -15.7527  -47.2142 H         1 UNK         0.0600 
    132 H132        0.5444  -15.2917  -49.6869 H         1 UNK         0.0800 
    133 H133        1.9378  -14.2727  -49.4595 H         1 UNK         0.0800 
    134 H134        1.0398  -17.3241  -50.9409 H         1 UNK         0.0800 
    135 H135        0.5285  -17.9463  -49.3932 H         1 UNK         0.0800 
    136 H136        0.8920  -19.3751  -52.1372 H         1 UNK         0.1150 
    137 H137        3.5767  -22.5801  -51.2387 H         1 UNK         0.1150 
    138 H138        3.3382  -19.2032  -48.6131 H         1 UNK         0.1150 
    139 H139        5.0705  -22.4673  -49.4114 H         1 UNK         0.0800 
    140 H140        5.5194  -20.8493  -48.9386 H         1 UNK         0.0800 
    141 H141        1.8588  -22.5022  -47.5240 H         1 UNK         0.0800 
    142 H142        2.8798  -23.4808  -48.5369 H         1 UNK         0.0800 
    143 H143        3.6457  -24.8252  -46.6106 H         1 UNK         0.0600 
    144 H144        2.5269  -22.7514  -44.9829 H         1 UNK         0.3000 
    145 H145        2.1678  -24.6286  -41.9931 H         1 UNK         0.0600 
    146 H146        3.5964  -22.7928  -41.0727 H         1 UNK         0.0600 
    147 H147        4.2732  -22.5084  -42.6757 H         1 UNK         0.0600 
    148 H148        4.5532  -24.0379  -41.8605 H         1 UNK         0.0600 
    149 H149        1.8442  -21.8608  -42.8756 H         1 UNK         0.3000 
    150 H150       -1.6078  -22.1916  -43.6742 H         1 UNK         0.0600 
    151 H151       -1.6979  -22.0517  -41.1897 H         1 UNK         0.0600 
    152 H152       -1.9135  -20.4698  -41.9222 H         1 UNK         0.0600 
    153 H153       -0.3677  -20.8993  -41.1907 H         1 UNK         0.0600 
    154 H154        0.1716  -19.9405  -43.4138 H         1 UNK         0.3000 
    155 H155        1.6252  -20.2498  -46.6534 H         1 UNK         0.0600 
    156 H156       -0.5485  -19.2708  -47.3347 H         1 UNK         0.0600 
    157 H157        0.6847  -18.0359  -47.1342 H         1 UNK         0.0600 
    158 H158       -0.5520  -18.2423  -45.9066 H         1 UNK         0.0600 
    159 H159        1.8123  -18.0342  -45.0115 H         1 UNK         0.3000 
    160 H160        4.3720  -19.2259  -42.7990 H         1 UNK         0.0600 
    161 H161        4.4141  -17.4831  -45.3217 H         1 UNK         0.0600 
    162 H162        5.4952  -18.8179  -44.9533 H         1 UNK         0.0600 
    163 H163        5.5516  -17.3576  -43.9780 H         1 UNK         0.0600 
    164 H164        2.5341  -16.9686  -43.5488 H         1 UNK         0.3000 
    165 H165        1.3537  -16.7908  -40.2305 H         1 UNK         0.0600 
    166 H166        1.7485  -14.3593  -40.4777 H         1 UNK         0.0600 
    167 H167        3.2675  -15.1830  -40.1582 H         1 UNK         0.0600 
    168 H168        2.8888  -14.6471  -41.7903 H         1 UNK         0.0600 
    169 H169        0.5195  -15.2783  -42.4219 H         1 UNK         0.3000 
    170 H170       -0.9598  -16.3669  -44.3538 H         1 UNK         0.0600 
    171 H171       -1.9520  -18.6583  -44.1189 H         1 UNK         0.0600 
    172 H172       -2.8624  -18.1281  -42.7149 H         1 UNK         0.0600 
    173 H173       -3.1958  -17.4395  -44.3041 H         1 UNK         0.0600 
    174 H174       -2.9080  -15.7619  -42.2795 H         1 UNK         0.3000 
    175 H175       -3.5929  -13.4847  -42.4091 H         1 UNK         0.0600 
    176 H176       -1.4713  -13.2906  -40.2065 H         1 UNK         0.0600 
    177 H177       -3.0882  -12.5938  -40.0858 H         1 UNK         0.0600 
    178 H178       -2.8818  -14.3303  -40.2392 H         1 UNK         0.0600 
    179 H179       -2.9436  -11.6002  -43.3403 H         1 UNK         0.3000 
    180 H180       -2.1965   -9.2503  -43.0645 H         1 UNK         0.0600 
    181 H181       -0.0957   -7.9687  -43.5228 H         1 UNK         0.0600 
    182 H182        0.8642   -9.3050  -42.8902 H         1 UNK         0.0600 
    183 H183       -0.2363   -8.4357  -41.8351 H         1 UNK         0.0600 
    184 H184       -2.0546  -10.0096  -45.1441 H         1 UNK         0.3000 
    185 H185       -1.6246  -11.7476  -46.6368 H         1 UNK         0.0600 
    186 H186        0.7583  -10.0969  -47.6838 H         1 UNK         0.0600 
    187 H187       -0.5116  -10.7981  -48.6859 H         1 UNK         0.0600 
    188 H188       -0.8985   -9.5188  -47.5457 H         1 UNK         0.0600 
    189 H189        1.1005  -12.6439  -46.2585 H         1 UNK         0.3000 
    190 H190        0.5191  -24.4268  -45.2651 H         1 UNK         0.3000 
    191 H191       -1.4892  -25.2997  -45.4501 H         1 UNK         0.0600 
    192 H192       -1.8928  -27.5215  -46.3879 H         1 UNK         0.0600 
    193 H193       -0.3690  -27.5533  -45.5159 H         1 UNK         0.0600 
    194 H194       -0.3802  -27.4928  -47.2787 H         1 UNK         0.0600 
    195 H195       -0.5130  -23.2307  -47.1919 H         1 UNK         0.3000 
    196 H196       -2.0273  -23.4646  -49.7234 H         1 UNK         0.0600 
    197 H197       -0.2136  -21.2476  -48.6144 H         1 UNK         0.0600 
    198 H198       -0.9236  -21.2925  -50.2207 H         1 UNK         0.0600 
    199 H199        0.2731  -22.4897  -49.7585 H         1 UNK         0.0600 
    200 H200       -1.9987  -21.7933  -46.5980 H         1 UNK         0.3000 
    201 H201       -3.3907  -20.4993  -45.4584 H         1 UNK         0.0600 
    202 H202       -5.5987  -21.8362  -47.1257 H         1 UNK         0.0600 
    203 H203       -5.8609  -20.8771  -45.6714 H         1 UNK         0.0600 
    204 H204       -4.9629  -22.3812  -45.5813 H         1 UNK         0.0600 
    205 H205       -5.7387  -20.0023  -47.9921 H         1 UNK         0.3000 
    206 H206       -4.9397  -17.1770  -48.2714 H         1 UNK         0.0600 
    207 H207       -7.3548  -17.9355  -47.8676 H         1 UNK         0.0600 
    208 H208       -7.1051  -16.8406  -49.2080 H         1 UNK         0.0600 
    209 H209       -7.3625  -18.5503  -49.5196 H         1 UNK         0.0600 
    210 H210       -4.0020  -20.0060  -49.7585 H         1 UNK         0.3000 
    211 H211       -2.8186  -20.5461  -51.5244 H         1 UNK         0.0600 
    212 H212       -2.2252  -17.5404  -51.6919 H         1 UNK         0.0600 
    213 H213       -1.3455  -18.7999  -52.5568 H         1 UNK         0.0600 
    214 H214       -1.3219  -18.7578  -50.8017 H         1 UNK         0.0600 
    215 H215       -3.2230  -17.7517  -53.4858 H         1 UNK         0.3000 
    216 H216       -4.4635  -19.1899  -55.5949 H         1 UNK         0.0600 
    217 H217       -4.1027  -16.1718  -55.1834 H         1 UNK         0.0600 
    218 H218       -2.9578  -17.2597  -55.9708 H         1 UNK         0.0600 
    219 H219       -4.5224  -16.9491  -56.7058 H         1 UNK         0.0600 
    220 H220       -5.8245  -17.1905  -52.9957 H         1 UNK         0.3000 
    221 H221       -8.4919  -17.0265  -54.1718 H         1 UNK         0.0600 
    222 H222       -9.0651  -16.0329  -51.9378 H         1 UNK         0.0600 
    223 H223       -7.4249  -16.3546  -51.3890 H         1 UNK         0.0600 
    224 H224       -7.7073  -15.2270  -52.7087 H         1 UNK         0.0600 
    225 H225       -6.7522  -19.3297  -52.1907 H         1 UNK         0.3000 
    226 H226       -9.1710  -20.8618  -51.4390 H         1 UNK         0.0600 
    227 H227       -7.3374  -20.7983  -49.7944 H         1 UNK         0.0600 
    228 H228       -7.4560  -22.4188  -50.4393 H         1 UNK         0.0600 
    229 H229       -6.1734  -21.3570  -50.9937 H         1 UNK         0.0600 
    230 H230       -7.0225  -20.5395  -54.0659 H         1 UNK         0.3000 
    231 H231       -6.4859  -21.5854  -55.9188 H         1 UNK         0.0600 
    232 H232       -8.0144  -23.1612  -57.0207 H         1 UNK         0.0600 
    233 H233       -8.9518  -21.8601  -56.3059 H         1 UNK         0.0600 
    234 H234       -8.8938  -23.4405  -55.5254 H         1 UNK         0.0600 
    235 H235       -5.3006  -22.2917  -53.4283 H         1 UNK         0.3000 
    236 H236       -4.8679  -25.1850  -53.3415 H         1 UNK         0.0600 
    237 H237       -5.0196  -23.8375  -51.2531 H         1 UNK         0.0600 
    238 H238       -3.4462  -24.6075  -51.3876 H         1 UNK         0.0600 
    239 H239       -3.6162  -22.8914  -51.7395 H         1 UNK         0.0600 
    240 H240       -3.0168  -22.2570  -54.2739 H         1 UNK         0.3000 
    241 H241       -1.3908  -23.5504  -56.1416 H         1 UNK         0.0600 
    242 H242       -0.0914  -20.2690  -56.9461 H         1 UNK         0.3800 
    243 H243        0.4023  -21.9358  -57.0009 H         1 UNK         0.3800 
    244 H244        0.8621  -23.3207  -55.0652 H         1 UNK         0.0800 
    245 H245       -0.1080  -24.5377  -54.3214 H         1 UNK         0.0800 
    246 H246        2.5171  -22.4445  -53.4257 H         1 UNK         0.0800 
    247 H247        1.5762  -21.0421  -53.8794 H         1 UNK         0.0800 
@<TRIPOS>BOND
     1    1    2 1    
     2    1  127 1    
     3    1  128 1    
     4    1  129 1    
     5    2    3 2    
     6    2    4 am   BACKBONE|DICT|INTERRES
     7    4    5 1    
     8    4  130 1    
     9    5    6 1    
    10    5   65 1    
    11    5  131 1    
    12    6    7 1    
    13    6  132 1    
    14    6  133 1    
    15    7    8 1    
    16    8    9 1    
    17    8  134 1    
    18    8  135 1    
    19    9   10 ar   
    20    9   14 ar   
    21   10   11 ar   
    22   10  136 1    
    23   11   12 ar   
    24   11  126 1    
    25   12   13 ar   
    26   12  137 1    
    27   13   14 ar   
    28   13   15 1    
    29   14  138 1    
    30   15   16 1    
    31   15  139 1    
    32   15  140 1    
    33   16   17 1    
    34   17   18 1    
    35   17  141 1    
    36   17  142 1    
    37   18   19 1    
    38   18   67 1    
    39   18  143 1    
    40   19   20 am   BACKBONE|DICT|INTERRES
    41   19  144 1    
    42   20   21 2    
    43   20   22 1    
    44   22   23 1    
    45   22   24 1    
    46   22  145 1    
    47   23  146 1    
    48   23  147 1    
    49   23  148 1    
    50   24   25 am   BACKBONE|DICT|INTERRES
    51   24  149 1    
    52   25   26 2    
    53   25   27 1    
    54   27   28 1    
    55   27   29 1    
    56   27  150 1    
    57   28  151 1    
    58   28  152 1    
    59   28  153 1    
    60   29   30 am   BACKBONE|DICT|INTERRES
    61   29  154 1    
    62   30   31 2    
    63   30   32 1    
    64   32   33 1    
    65   32   34 1    
    66   32  155 1    
    67   33  156 1    
    68   33  157 1    
    69   33  158 1    
    70   34   35 am   BACKBONE|DICT|INTERRES
    71   34  159 1    
    72   35   36 2    
    73   35   37 1    
    74   37   38 1    
    75   37   39 1    
    76   37  160 1    
    77   38  161 1    
    78   38  162 1    
    79   38  163 1    
    80   39   40 am   BACKBONE|DICT|INTERRES
    81   39  164 1    
    82   40   41 2    
    83   40   42 1    
    84   42   43 1    
    85   42   44 1    
    86   42  165 1    
    87   43  166 1    
    88   43  167 1    
    89   43  168 1    
    90   44   45 am   BACKBONE|DICT|INTERRES
    91   44  169 1    
    92   45   46 2    
    93   45   47 1    
    94   47   48 1    
    95   47   49 1    
    96   47  170 1    
    97   48  171 1    
    98   48  172 1    
    99   48  173 1    
   100   49   50 am   BACKBONE|DICT|INTERRES
   101   49  174 1    
   102   50   51 2    
   103   50   52 1    
   104   52   53 1    
   105   52   54 1    
   106   52  175 1    
   107   53  176 1    
   108   53  177 1    
   109   53  178 1    
   110   54   55 am   BACKBONE|DICT|INTERRES
   111   54  179 1    
   112   55   56 2    
   113   55   57 1    
   114   57   58 1    
   115   57   59 1    
   116   57  180 1    
   117   58  181 1    
   118   58  182 1    
   119   58  183 1    
   120   59   60 am   BACKBONE|DICT|INTERRES
   121   59  184 1    
   122   60   61 2    
   123   60   62 1    
   124   62   63 1    
   125   62   64 1    
   126   62  185 1    
   127   63  186 1    
   128   63  187 1    
   129   63  188 1    
   130   64   65 am   BACKBONE|DICT|INTERRES
   131   64  189 1    
   132   65   66 2    
   133   67   68 2    
   134   67   69 am   BACKBONE|DICT|INTERRES
   135   69   70 1    
   136   69  190 1    
   137   70   71 1    
   138   70   72 1    
   139   70  191 1    
   140   71  192 1    
   141   71  193 1    
   142   71  194 1    
   143   72   73 2    
   144   72   74 am   BACKBONE|DICT|INTERRES
   145   74   75 1    
   146   74  195 1    
   147   75   76 1    
   148   75   77 1    
   149   75  196 1    
   150   76  197 1    
   151   76  198 1    
   152   76  199 1    
   153   77   78 2    
   154   77   79 am   BACKBONE|DICT|INTERRES
   155   79   80 1    
   156   79  200 1    
   157   80   81 1    
   158   80   82 1    
   159   80  201 1    
   160   81  202 1    
   161   81  203 1    
   162   81  204 1    
   163   82   83 2    
   164   82   84 am   BACKBONE|DICT|INTERRES
   165   84   85 1    
   166   84  205 1    
   167   85   86 1    
   168   85   87 1    
   169   85  206 1    
   170   86  207 1    
   171   86  208 1    
   172   86  209 1    
   173   87   88 2    
   174   87   89 am   BACKBONE|DICT|INTERRES
   175   89   90 1    
   176   89  210 1    
   177   90   91 1    
   178   90   92 1    
   179   90  211 1    
   180   91  212 1    
   181   91  213 1    
   182   91  214 1    
   183   92   93 2    
   184   92   94 am   BACKBONE|DICT|INTERRES
   185   94   95 1    
   186   94  215 1    
   187   95   96 1    
   188   95   97 1    
   189   95  216 1    
   190   96  217 1    
   191   96  218 1    
   192   96  219 1    
   193   97   98 2    
   194   97   99 am   BACKBONE|DICT|INTERRES
   195   99  100 1    
   196   99  220 1    
   197  100  101 1    
   198  100  102 1    
   199  100  221 1    
   200  101  222 1    
   201  101  223 1    
   202  101  224 1    
   203  102  103 2    
   204  102  104 am   BACKBONE|DICT|INTERRES
   205  104  105 1    
   206  104  225 1    
   207  105  106 1    
   208  105  107 1    
   209  105  226 1    
   210  106  227 1    
   211  106  228 1    
   212  106  229 1    
   213  107  108 2    
   214  107  109 am   BACKBONE|DICT|INTERRES
   215  109  110 1    
   216  109  230 1    
   217  110  111 1    
   218  110  112 1    
   219  110  231 1    
   220  111  232 1    
   221  111  233 1    
   222  111  234 1    
   223  112  113 2    
   224  112  114 am   BACKBONE|DICT|INTERRES
   225  114  115 1    
   226  114  235 1    
   227  115  116 1    
   228  115  117 1    
   229  115  236 1    
   230  116  237 1    
   231  116  238 1    
   232  116  239 1    
   233  117  118 2    
   234  117  119 am   BACKBONE|DICT|INTERRES
   235  119  120 1    
   236  119  240 1    
   237  120  121 1    
   238  120  124 1    
   239  120  241 1    
   240  121  122 am   BACKBONE|DICT|INTERRES
   241  121  123 2    
   242  122  242 1    
   243  122  243 1    
   244  124  125 1    
   245  124  244 1    
   246  124  245 1    
   247  125  126 1    
   248  126  246 1    
   249  126  247 1    
@<TRIPOS>SUBSTRUCTURE
     1 UNK         1 GROUP             0       ****    0 ROOT    
