@<TRIPOS>MOLECULE
3R540
247   249    1
SMALL
USER_CHARGES


@<TRIPOS>ATOM
      1 CA         -0.9426  -12.2812  -53.3405 C.3       0 UNK        -0.1800 
      2 C          -0.3310  -12.2814  -51.9473 C.2       0 UNK         0.5000 
      3 O          -0.0113  -11.2205  -51.4119 O.2       0 UNK        -0.5000 
      4 N          -0.1899  -13.4679  -51.3467 N.am      1 UNK        -0.5000 
      5 CA          0.4167  -13.7016  -50.0274 C.3       1 UNK         0.1400 
      6 C6          0.9928  -15.1370  -49.9156 C.3       23 UNK        -0.0398 
      7 S7          2.2159  -15.4527  -51.2383 S.3       23 UNK        -0.2404 
      8 C8          3.4754  -16.4763  -50.4170 C.3       23 UNK        -0.0205 
      9 C9          3.3056  -17.9452  -50.7688 C.ar      23 UNK        -0.0193 
     10 C10         3.6245  -18.3916  -52.0551 C.ar      23 UNK        -0.1150 
     11 C11         3.4849  -19.7394  -52.3957 C.ar      23 UNK        -0.0193 
     12 C12         3.0399  -20.6475  -51.4327 C.ar      23 UNK        -0.1150 
     13 C13         2.7263  -20.2146  -50.1422 C.ar      23 UNK        -0.0193 
     14 C14         2.8529  -18.8608  -49.8153 C.ar      23 UNK        -0.1150 
     15 C15         2.2387  -21.2080  -49.1059 C.3       23 UNK        -0.0205 
     16 S16         3.6077  -21.7886  -48.0507 S.3       23 UNK        -0.2404 
     17 C17         2.8570  -21.6431  -46.3899 C.3       23 UNK        -0.0398 
     18 CA          2.1738  -22.9058  -45.7913 C.3       11 UNK         0.1400 
     19 N           1.3118  -22.5225  -44.6721 N.am      11 UNK        -0.5000 
     20 C           0.7416  -23.3529  -43.7909 C.2       10 UNK         0.5000 
     21 O           0.9119  -24.5715  -43.7861 O.2       10 UNK        -0.5000 
     22 CA         -0.2024  -22.7069  -42.7589 C.3       10 UNK         0.1400 
     23 CB          0.5895  -22.1131  -41.5841 C.3       10 UNK        -0.1800 
     24 N          -1.0475  -21.6686  -43.3527 N.am      10 UNK        -0.5000 
     25 C          -2.0201  -21.9124  -44.2422 C.2       9 UNK         0.5000 
     26 O          -2.3441  -23.0399  -44.6117 O.2       9 UNK        -0.5000 
     27 CA         -2.7398  -20.6948  -44.8433 C.3       9 UNK         0.1400 
     28 CB         -3.8434  -20.1994  -43.8968 C.3       9 UNK        -0.1800 
     29 N          -1.8372  -19.5917  -45.1767 N.am      9 UNK        -0.5000 
     30 C          -0.8516  -19.6517  -46.0840 C.2       8 UNK         0.5000 
     31 O          -0.6230  -20.6413  -46.7749 O.2       8 UNK        -0.5000 
     32 CA          0.0782  -18.4299  -46.1981 C.3       8 UNK         0.1400 
     33 CB         -0.5569  -17.3289  -47.0554 C.3       8 UNK        -0.1800 
     34 N           0.4475  -17.8873  -44.8921 N.am      8 UNK        -0.5000 
     35 C           1.1181  -18.5595  -43.9455 C.2       7 UNK         0.5000 
     36 O           1.5449  -19.7048  -44.0886 O.2       7 UNK        -0.5000 
     37 CA          1.2872  -17.8539  -42.5917 C.3       7 UNK         0.1400 
     38 CB          2.4700  -16.8746  -42.6242 C.3       7 UNK        -0.1800 
     39 N           0.0653  -17.1482  -42.2080 N.am      7 UNK        -0.5000 
     40 C          -1.0542  -17.7577  -41.7940 C.2       6 UNK         0.5000 
     41 O          -1.1517  -18.9761  -41.6415 O.2       6 UNK        -0.5000 
     42 CA         -2.2784  -16.8563  -41.5448 C.3       6 UNK         0.1400 
     43 CB         -2.2139  -16.2295  -40.1441 C.3       6 UNK        -0.1800 
     44 N          -2.4159  -15.7956  -42.5459 N.am      6 UNK        -0.5000 
     45 C          -2.7174  -16.0128  -43.8336 C.2       5 UNK         0.5000 
     46 O          -2.9370  -17.1277  -44.3014 O.2       5 UNK        -0.5000 
     47 CA         -2.7559  -14.7897  -44.7680 C.3       5 UNK         0.1400 
     48 CB         -4.1634  -14.1734  -44.7574 C.3       5 UNK        -0.1800 
     49 N          -1.7569  -13.7534  -44.4790 N.am      5 UNK        -0.5000 
     50 C          -0.4324  -13.9482  -44.3722 C.2       4 UNK         0.5000 
     51 O           0.0987  -15.0590  -44.4064 O.2       4 UNK        -0.5000 
     52 CA          0.4304  -12.6829  -44.2321 C.3       4 UNK         0.1400 
     53 CB          1.9420  -12.9745  -44.2408 C.3       4 UNK        -0.1800 
     54 N           0.1040  -11.7865  -45.3341 N.am      4 UNK        -0.5000 
     55 C          -0.1242  -10.4703  -45.2369 C.2       3 UNK         0.5000 
     56 O           0.0180   -9.8271  -44.1964 O.2       3 UNK        -0.5000 
     57 CA         -0.6247   -9.7500  -46.5095 C.3       3 UNK         0.1400 
     58 CB          0.5392   -9.0417  -47.2190 C.3       3 UNK        -0.1800 
     59 N          -1.2827  -10.6479  -47.4624 N.am      3 UNK        -0.5000 
     60 C          -2.4019  -11.3442  -47.2172 C.2       2 UNK         0.5000 
     61 O          -3.0932  -11.1782  -46.2125 O.2       2 UNK        -0.5000 
     62 CA         -2.7876  -12.4468  -48.2247 C.3       2 UNK         0.1400 
     63 CB         -4.0358  -12.0453  -49.0251 C.3       2 UNK        -0.1800 
     64 N          -1.7239  -12.8186  -49.1617 N.am      2 UNK        -0.5000 
     65 C          -0.5391  -13.3703  -48.8559 C.2       1 UNK         0.5000 
     66 O          -0.1754  -13.5790  -47.6985 O.2       1 UNK        -0.5000 
     67 C           1.4036  -23.7601  -46.8249 C.2       11 UNK         0.5000 
     68 O           1.8593  -24.8463  -47.1856 O.2       11 UNK        -0.5000 
     69 N           0.2427  -23.2618  -47.2700 N.am      12 UNK        -0.5000 
     70 CA         -0.5783  -23.8610  -48.3225 C.3       12 UNK         0.1400 
     71 CB         -1.4047  -22.7554  -49.0006 C.3       12 UNK        -0.1800 
     72 C          -1.4950  -24.9973  -47.8332 C.2       12 UNK         0.5000 
     73 O          -2.2894  -25.4943  -48.6312 O.2       12 UNK        -0.5000 
     74 N          -1.3921  -25.3962  -46.5575 N.am      13 UNK        -0.5000 
     75 CA         -2.2441  -26.3853  -45.8854 C.3       13 UNK         0.1400 
     76 CB         -1.7803  -26.5398  -44.4291 C.3       13 UNK        -0.1800 
     77 C          -2.3130  -27.7677  -46.5663 C.2       13 UNK         0.5000 
     78 O          -3.3264  -28.4535  -46.4316 O.2       13 UNK        -0.5000 
     79 N          -1.2547  -28.1428  -47.2987 N.am      14 UNK        -0.5000 
     80 CA         -1.1879  -29.3670  -48.0998 C.3       14 UNK         0.1400 
     81 CB          0.2643  -29.5948  -48.5463 C.3       14 UNK        -0.1800 
     82 C          -2.1312  -29.3461  -49.3203 C.2       14 UNK         0.5000 
     83 O          -2.6517  -30.3960  -49.6995 O.2       14 UNK        -0.5000 
     84 N          -2.3374  -28.1582  -49.9045 N.am      15 UNK        -0.5000 
     85 CA         -3.2673  -27.9203  -51.0104 C.3       15 UNK         0.1400 
     86 CB         -2.6632  -26.8597  -51.9454 C.3       15 UNK        -0.1800 
     87 C          -4.6454  -27.4554  -50.5054 C.2       15 UNK         0.5000 
     88 O          -5.6487  -27.6949  -51.1774 O.2       15 UNK        -0.5000 
     89 N          -4.6550  -26.7844  -49.3439 N.am      16 UNK        -0.5000 
     90 CA         -5.7871  -26.1415  -48.6712 C.3       16 UNK         0.1400 
     91 CB         -6.8750  -27.1678  -48.2931 C.3       16 UNK        -0.1800 
     92 C          -6.3354  -24.9231  -49.4452 C.2       16 UNK         0.5000 
     93 O          -7.5100  -24.5812  -49.2991 O.2       16 UNK        -0.5000 
     94 N          -5.4728  -24.2838  -50.2500 N.am      17 UNK        -0.5000 
     95 CA         -5.7905  -23.0880  -51.0319 C.3       17 UNK         0.1400 
     96 CB         -4.7128  -22.8788  -52.1093 C.3       17 UNK        -0.1800 
     97 C          -5.9334  -21.8453  -50.1356 C.2       17 UNK         0.5000 
     98 O          -6.9632  -21.1716  -50.1882 O.2       17 UNK        -0.5000 
     99 N          -4.9025  -21.6071  -49.3091 N.am      18 UNK        -0.5000 
    100 CA        -4.7764  -20.5306  -48.3199 C.3       18 UNK         0.1400 
    101 CB        -5.7713  -20.7712  -47.1625 C.3       18 UNK        -0.1800 
    102 C         -4.8732  -19.1063  -48.9143 C.2       18 UNK         0.5000 
    103 O         -4.7473  -18.9318  -50.1294 O.2       18 UNK        -0.5000 
    104 N         -5.0626  -18.1122  -48.0322 N.am      19 UNK        -0.5000 
    105 CA        -5.2443  -16.6853  -48.3143 C.3       19 UNK         0.1400 
    106 CB        -6.6482  -16.4369  -48.9089 C.3       19 UNK        -0.1800 
    107 C         -4.0973  -16.1026  -49.1631 C.2       19 UNK         0.5000 
    108 O         -3.0074  -15.8921  -48.6348 O.2       19 UNK        -0.5000 
    109 N         -4.3569  -15.8609  -50.4543 N.am      20 UNK        -0.5000 
    110 CA        -3.3853  -15.3553  -51.4209 C.3       20 UNK         0.1400 
    111 CB        -4.1324  -14.8456  -52.6618 C.3       20 UNK        -0.1800 
    112 C         -2.3060  -16.3778  -51.8241 C.2       20 UNK         0.5000 
    113 O         -1.2640  -15.9555  -52.3291 O.2       20 UNK        -0.5000 
    114 N         -2.5654  -17.6780  -51.6125 N.am      21 UNK        -0.5000 
    115 CA        -1.7228  -18.8212  -51.9767 C.3       21 UNK         0.1400 
    116 CB        -0.5152  -18.9295  -51.0223 C.3       21 UNK        -0.1800 
    117 C         -1.3499  -18.7978  -53.4749 C.2       21 UNK         0.5000 
    118 O         -2.2425  -18.9500  -54.3109 O.2       21 UNK        -0.5000 
    119 N         -0.0658  -18.5872  -53.7911 N.am      22 UNK        -0.5000 
    120 CA         0.4345  -18.4061  -55.1644 C.3       22 UNK         0.1400 
    121 C          0.1223  -17.0123  -55.7888 C.2       22 UNK         0.5000 
    122 N         -0.3851  -16.0341  -55.0488 N.am      22 UNK        -0.7600 
    123 O          0.3390  -16.8157  -56.9817 O.2       22 UNK        -0.5000 
    124 C124        1.9462  -18.7270  -55.2826 C.3       23 UNK        -0.0398 
    125 S125        2.3475  -20.4484  -54.8248 S.3       23 UNK        -0.2404 
    126 C126        3.8315  -20.2255  -53.7941 C.3       23 UNK        -0.0205 
    127 H127       -1.1384  -13.2935  -53.6948 H         1 UNK         0.0600 
    128 H128       -1.8845  -11.7328  -53.3379 H         1 UNK         0.0600 
    129 H129       -0.2667  -11.7996  -54.0470 H         1 UNK         0.0600 
    130 H130       -0.4638  -14.3147  -51.8394 H         1 UNK         0.3000 
    131 H131        1.2562  -13.0110  -49.9223 H         1 UNK         0.0600 
    132 H132        0.1982  -15.8815  -49.9788 H         1 UNK         0.0800 
    133 H133        1.4693  -15.2781  -48.9445 H         1 UNK         0.0800 
    134 H134        3.4593  -16.3246  -49.3372 H         1 UNK         0.0800 
    135 H135        4.4604  -16.1470  -50.7510 H         1 UNK         0.0800 
    136 H136        3.9806  -17.6835  -52.7901 H         1 UNK         0.1150 
    137 H137        2.9376  -21.6926  -51.6899 H         1 UNK         0.1150 
    138 H138        2.6078  -18.5247  -48.8177 H         1 UNK         0.1150 
    139 H139        1.4464  -20.7443  -48.5185 H         1 UNK         0.0800 
    140 H140        1.7819  -22.0703  -49.5935 H         1 UNK         0.0800 
    141 H141        2.1502  -20.8156  -46.4175 H         1 UNK         0.0800 
    142 H142        3.6396  -21.3119  -45.7060 H         1 UNK         0.0800 
    143 H143        2.9639  -23.5434  -45.3892 H         1 UNK         0.0600 
    144 H144        1.1580  -21.5251  -44.5514 H         1 UNK         0.3000 
    145 H145       -0.8537  -23.4909  -42.3666 H         1 UNK         0.0600 
    146 H146       -0.0788  -21.7045  -40.8258 H         1 UNK         0.0600 
    147 H147        1.2025  -22.8756  -41.1021 H         1 UNK         0.0600 
    148 H148        1.2551  -21.3124  -41.9072 H         1 UNK         0.0600 
    149 H149       -0.8667  -20.7122  -43.0734 H         1 UNK         0.3000 
    150 H150       -3.2103  -21.0297  -45.7667 H         1 UNK         0.0600 
    151 H151       -4.5441  -21.0009  -43.6597 H         1 UNK         0.0600 
    152 H152       -4.4175  -19.3892  -44.3452 H         1 UNK         0.0600 
    153 H153       -3.4321  -19.8329  -42.9560 H         1 UNK         0.0600 
    154 H154       -2.0065  -18.7118  -44.6959 H         1 UNK         0.3000 
    155 H155        0.9969  -18.7496  -46.6924 H         1 UNK         0.0600 
    156 H156       -1.5186  -17.0154  -46.6530 H         1 UNK         0.0600 
    157 H157       -0.7306  -17.6745  -48.0741 H         1 UNK         0.0600 
    158 H158        0.0827  -16.4481  -47.1138 H         1 UNK         0.0600 
    159 H159        0.1735  -16.9269  -44.6991 H         1 UNK         0.3000 
    160 H160        1.4989  -18.6155  -41.8380 H         1 UNK         0.0600 
    161 H161        2.5986  -16.3781  -41.6624 H         1 UNK         0.0600 
    162 H162        2.3401  -16.1051  -43.3853 H         1 UNK         0.0600 
    163 H163        3.4000  -17.3988  -42.8471 H         1 UNK         0.0600 
    164 H164        0.0393  -16.1557  -42.3962 H         1 UNK         0.3000 
    165 H165       -3.1687  -17.4870  -41.5941 H         1 UNK         0.0600 
    166 H166       -3.1148  -15.6550  -39.9277 H         1 UNK         0.0600 
    167 H167       -2.1284  -16.9994  -39.3761 H         1 UNK         0.0600 
    168 H168       -1.3568  -15.5633  -40.0383 H         1 UNK         0.0600 
    169 H169       -2.2494  -14.8480  -42.2410 H         1 UNK         0.3000 
    170 H170       -2.5563  -15.1473  -45.7793 H         1 UNK         0.0600 
    171 H171       -4.9255  -14.9331  -44.9371 H         1 UNK         0.0600 
    172 H172       -4.3890  -13.7029  -43.7997 H         1 UNK         0.0600 
    173 H173       -4.2780  -13.4213  -45.5356 H         1 UNK         0.0600 
    174 H174       -2.0993  -12.8026  -44.4605 H         1 UNK         0.3000 
    175 H175        0.1693  -12.2251  -43.2759 H         1 UNK         0.0600 
    176 H176        2.2487  -13.4728  -45.1615 H         1 UNK         0.0600 
    177 H177        2.5205  -12.0553  -44.1487 H         1 UNK         0.0600 
    178 H178        2.2207  -13.6182  -43.4060 H         1 UNK         0.0600 
    179 H179       -0.0490  -12.2505  -46.2258 H         1 UNK         0.3000 
    180 H180       -1.3511   -8.9965  -46.1985 H         1 UNK         0.0600 
    181 H181        1.2890   -9.7526  -47.5687 H         1 UNK         0.0600 
    182 H182        1.0382   -8.3414  -46.5477 H         1 UNK         0.0600 
    183 H183        0.1890   -8.4715  -48.0797 H         1 UNK         0.0600 
    184 H184       -0.7861  -10.8392  -48.3204 H         1 UNK         0.3000 
    185 H185       -3.0284  -13.3363  -47.6406 H         1 UNK         0.0600 
    186 H186       -4.8620  -11.7896  -48.3603 H         1 UNK         0.0600 
    187 H187       -3.8441  -11.1791  -49.6596 H         1 UNK         0.0600 
    188 H188       -4.3774  -12.8609  -49.6624 H         1 UNK         0.0600 
    189 H189       -1.9037  -12.6328  -50.1365 H         1 UNK         0.3000 
    190 H190       -0.0712  -22.3542  -46.9290 H         1 UNK         0.3000 
    191 H191        0.0831  -24.2909  -49.0775 H         1 UNK         0.0600 
    192 H192       -2.1254  -22.3236  -48.3068 H         1 UNK         0.0600 
    193 H193       -1.9563  -23.1433  -49.8575 H         1 UNK         0.0600 
    194 H194       -0.7692  -21.9490  -49.3666 H         1 UNK         0.0600 
    195 H195       -0.7252  -24.9148  -45.9710 H         1 UNK         0.3000 
    196 H196       -3.2579  -25.9802  -45.8782 H         1 UNK         0.0600 
    197 H197       -2.4017  -27.2576  -43.8920 H         1 UNK         0.0600 
    198 H198       -1.8428  -25.5946  -43.8906 H         1 UNK         0.0600 
    199 H199       -0.7486  -26.8893  -44.3723 H         1 UNK         0.0600 
    200 H200       -0.4602  -27.5212  -47.3437 H         1 UNK         0.3000 
    201 H201       -1.4852  -30.2049  -47.4657 H         1 UNK         0.0600 
    202 H202        0.9307  -29.6885  -47.6887 H         1 UNK         0.0600 
    203 H203        0.6283  -28.7753  -49.1674 H         1 UNK         0.0600 
    204 H204        0.3543  -30.5131  -49.1283 H         1 UNK         0.0600 
    205 H205       -1.9086  -27.3363  -49.4969 H         1 UNK         0.3000 
    206 H206       -3.4111  -28.8380  -51.5845 H         1 UNK         0.0600 
    207 H207       -1.7108  -27.1952  -52.3558 H         1 UNK         0.0600 
    208 H208       -3.3264  -26.6573  -52.7875 H         1 UNK         0.0600 
    209 H209       -2.4903  -25.9146  -51.4290 H         1 UNK         0.0600 
    210 H210       -3.7498  -26.5730  -48.9332 H         1 UNK         0.3000 
    211 H211       -5.3843  -25.7407  -47.7399 H         1 UNK         0.0600 
    212 H212       -7.3921  -27.5556  -49.1709 H         1 UNK         0.0600 
    213 H213       -7.6278  -26.7179  -47.6449 H         1 UNK         0.0600 
    214 H214       -6.4470  -28.0127  -47.7533 H         1 UNK         0.0600 
    215 H215       -4.5288  -24.6359  -50.3076 H         1 UNK         0.3000 
    216 H216       -6.7450  -23.2500  -51.5376 H         1 UNK         0.0600 
    217 H217       -4.9254  -21.9895  -52.7043 H         1 UNK         0.0600 
    218 H218       -4.6738  -23.7258  -52.7946 H         1 UNK         0.0600 
    219 H219       -3.7195  -22.7534  -51.6775 H         1 UNK         0.0600 
    220 H220       -4.1104  -22.2271  -49.3737 H         1 UNK         0.3000 
    221 H221       -3.7646  -20.6086  -47.9237 H         1 UNK         0.0600 
    222 H222       -6.8041  -20.6328  -47.4842 H         1 UNK         0.0600 
    223 H223       -5.6792  -21.7849  -46.7719 H         1 UNK         0.0600 
    224 H224       -5.5973  -20.0949  -46.3268 H         1 UNK         0.0600 
    225 H225       -5.1010  -18.3561  -47.0532 H         1 UNK         0.3000 
    226 H226       -5.1994  -16.1700  -47.3535 H         1 UNK         0.0600 
    227 H227       -7.4242  -16.7452  -48.2081 H         1 UNK         0.0600 
    228 H228       -6.8075  -15.3777  -49.1159 H         1 UNK         0.0600 
    229 H229       -6.8096  -16.9882  -49.8359 H         1 UNK         0.0600 
    230 H230       -5.2708  -16.0983  -50.8115 H         1 UNK         0.3000 
    231 H231       -2.8710  -14.5078  -50.9694 H         1 UNK         0.0600 
    232 H232       -4.8353  -14.0539  -52.4016 H         1 UNK         0.0600 
    233 H233       -3.4391  -14.4337  -53.3962 H         1 UNK         0.0600 
    234 H234       -4.6903  -15.6450  -53.1510 H         1 UNK         0.0600 
    235 H235       -3.4544  -17.9254  -51.1864 H         1 UNK         0.3000 
    236 H236       -2.3352  -19.7122  -51.8297 H         1 UNK         0.0600 
    237 H237        0.0948  -19.7997  -51.2657 H         1 UNK         0.0600 
    238 H238        0.1264  -18.0493  -51.0624 H         1 UNK         0.0600 
    239 H239       -0.8461  -19.0542  -49.9917 H         1 UNK         0.0600 
    240 H240        0.6059  -18.4548  -53.0492 H         1 UNK         0.3000 
    241 H241       -0.0904  -19.1252  -55.7963 H         1 UNK         0.0600 
    242 H242       -0.5896  -16.1659  -54.0618 H         1 UNK         0.3800 
    243 H243       -0.5797  -15.1472  -55.4830 H         1 UNK         0.3800 
    244 H244        2.2896  -18.5843  -56.3087 H         1 UNK         0.0800 
    245 H245        2.5231  -18.0301  -54.6745 H         1 UNK         0.0800 
    246 H246        4.3543  -21.1804  -53.7231 H         1 UNK         0.0800 
    247 H247        4.5231  -19.5389  -54.2850 H         1 UNK         0.0800 
@<TRIPOS>BOND
     1    1    2 1    
     2    1  127 1    
     3    1  128 1    
     4    1  129 1    
     5    2    3 2    
     6    2    4 am   BACKBONE|DICT|INTERRES
     7    4    5 1    
     8    4  130 1    
     9    5    6 1    
    10    5   65 1    
    11    5  131 1    
    12    6    7 1    
    13    6  132 1    
    14    6  133 1    
    15    7    8 1    
    16    8    9 1    
    17    8  134 1    
    18    8  135 1    
    19    9   10 ar   
    20    9   14 ar   
    21   10   11 ar   
    22   10  136 1    
    23   11   12 ar   
    24   11  126 1    
    25   12   13 ar   
    26   12  137 1    
    27   13   14 ar   
    28   13   15 1    
    29   14  138 1    
    30   15   16 1    
    31   15  139 1    
    32   15  140 1    
    33   16   17 1    
    34   17   18 1    
    35   17  141 1    
    36   17  142 1    
    37   18   19 1    
    38   18   67 1    
    39   18  143 1    
    40   19   20 am   BACKBONE|DICT|INTERRES
    41   19  144 1    
    42   20   21 2    
    43   20   22 1    
    44   22   23 1    
    45   22   24 1    
    46   22  145 1    
    47   23  146 1    
    48   23  147 1    
    49   23  148 1    
    50   24   25 am   BACKBONE|DICT|INTERRES
    51   24  149 1    
    52   25   26 2    
    53   25   27 1    
    54   27   28 1    
    55   27   29 1    
    56   27  150 1    
    57   28  151 1    
    58   28  152 1    
    59   28  153 1    
    60   29   30 am   BACKBONE|DICT|INTERRES
    61   29  154 1    
    62   30   31 2    
    63   30   32 1    
    64   32   33 1    
    65   32   34 1    
    66   32  155 1    
    67   33  156 1    
    68   33  157 1    
    69   33  158 1    
    70   34   35 am   BACKBONE|DICT|INTERRES
    71   34  159 1    
    72   35   36 2    
    73   35   37 1    
    74   37   38 1    
    75   37   39 1    
    76   37  160 1    
    77   38  161 1    
    78   38  162 1    
    79   38  163 1    
    80   39   40 am   BACKBONE|DICT|INTERRES
    81   39  164 1    
    82   40   41 2    
    83   40   42 1    
    84   42   43 1    
    85   42   44 1    
    86   42  165 1    
    87   43  166 1    
    88   43  167 1    
    89   43  168 1    
    90   44   45 am   BACKBONE|DICT|INTERRES
    91   44  169 1    
    92   45   46 2    
    93   45   47 1    
    94   47   48 1    
    95   47   49 1    
    96   47  170 1    
    97   48  171 1    
    98   48  172 1    
    99   48  173 1    
   100   49   50 am   BACKBONE|DICT|INTERRES
   101   49  174 1    
   102   50   51 2    
   103   50   52 1    
   104   52   53 1    
   105   52   54 1    
   106   52  175 1    
   107   53  176 1    
   108   53  177 1    
   109   53  178 1    
   110   54   55 am   BACKBONE|DICT|INTERRES
   111   54  179 1    
   112   55   56 2    
   113   55   57 1    
   114   57   58 1    
   115   57   59 1    
   116   57  180 1    
   117   58  181 1    
   118   58  182 1    
   119   58  183 1    
   120   59   60 am   BACKBONE|DICT|INTERRES
   121   59  184 1    
   122   60   61 2    
   123   60   62 1    
   124   62   63 1    
   125   62   64 1    
   126   62  185 1    
   127   63  186 1    
   128   63  187 1    
   129   63  188 1    
   130   64   65 am   BACKBONE|DICT|INTERRES
   131   64  189 1    
   132   65   66 2    
   133   67   68 2    
   134   67   69 am   BACKBONE|DICT|INTERRES
   135   69   70 1    
   136   69  190 1    
   137   70   71 1    
   138   70   72 1    
   139   70  191 1    
   140   71  192 1    
   141   71  193 1    
   142   71  194 1    
   143   72   73 2    
   144   72   74 am   BACKBONE|DICT|INTERRES
   145   74   75 1    
   146   74  195 1    
   147   75   76 1    
   148   75   77 1    
   149   75  196 1    
   150   76  197 1    
   151   76  198 1    
   152   76  199 1    
   153   77   78 2    
   154   77   79 am   BACKBONE|DICT|INTERRES
   155   79   80 1    
   156   79  200 1    
   157   80   81 1    
   158   80   82 1    
   159   80  201 1    
   160   81  202 1    
   161   81  203 1    
   162   81  204 1    
   163   82   83 2    
   164   82   84 am   BACKBONE|DICT|INTERRES
   165   84   85 1    
   166   84  205 1    
   167   85   86 1    
   168   85   87 1    
   169   85  206 1    
   170   86  207 1    
   171   86  208 1    
   172   86  209 1    
   173   87   88 2    
   174   87   89 am   BACKBONE|DICT|INTERRES
   175   89   90 1    
   176   89  210 1    
   177   90   91 1    
   178   90   92 1    
   179   90  211 1    
   180   91  212 1    
   181   91  213 1    
   182   91  214 1    
   183   92   93 2    
   184   92   94 am   BACKBONE|DICT|INTERRES
   185   94   95 1    
   186   94  215 1    
   187   95   96 1    
   188   95   97 1    
   189   95  216 1    
   190   96  217 1    
   191   96  218 1    
   192   96  219 1    
   193   97   98 2    
   194   97   99 am   BACKBONE|DICT|INTERRES
   195   99  100 1    
   196   99  220 1    
   197  100  101 1    
   198  100  102 1    
   199  100  221 1    
   200  101  222 1    
   201  101  223 1    
   202  101  224 1    
   203  102  103 2    
   204  102  104 am   BACKBONE|DICT|INTERRES
   205  104  105 1    
   206  104  225 1    
   207  105  106 1    
   208  105  107 1    
   209  105  226 1    
   210  106  227 1    
   211  106  228 1    
   212  106  229 1    
   213  107  108 2    
   214  107  109 am   BACKBONE|DICT|INTERRES
   215  109  110 1    
   216  109  230 1    
   217  110  111 1    
   218  110  112 1    
   219  110  231 1    
   220  111  232 1    
   221  111  233 1    
   222  111  234 1    
   223  112  113 2    
   224  112  114 am   BACKBONE|DICT|INTERRES
   225  114  115 1    
   226  114  235 1    
   227  115  116 1    
   228  115  117 1    
   229  115  236 1    
   230  116  237 1    
   231  116  238 1    
   232  116  239 1    
   233  117  118 2    
   234  117  119 am   BACKBONE|DICT|INTERRES
   235  119  120 1    
   236  119  240 1    
   237  120  121 1    
   238  120  124 1    
   239  120  241 1    
   240  121  122 am   BACKBONE|DICT|INTERRES
   241  121  123 2    
   242  122  242 1    
   243  122  243 1    
   244  124  125 1    
   245  124  244 1    
   246  124  245 1    
   247  125  126 1    
   248  126  246 1    
   249  126  247 1    
@<TRIPOS>SUBSTRUCTURE
     1 UNK         1 GROUP             0       ****    0 ROOT    
