@<TRIPOS>MOLECULE
3R540
247   249    1
SMALL
USER_CHARGES


@<TRIPOS>ATOM
      1 CA          1.2715  -13.4614  -55.2023 C.3       0 UNK        -0.1800 
      2 C           0.6452  -12.8499  -53.9568 C.2       0 UNK         0.5000 
      3 O          -0.4623  -12.3188  -54.0332 O.2       0 UNK        -0.5000 
      4 N           1.3548  -12.9063  -52.8208 N.am      1 UNK        -0.5000 
      5 CA          0.9175  -12.3659  -51.5271 C.3       1 UNK         0.1400 
      6 C6          2.1261  -12.1207  -50.5665 C.3       23 UNK        -0.0398 
      7 S7          1.8902  -12.3845  -48.7675 S.3       23 UNK        -0.2404 
      8 C8          3.2146  -13.5706  -48.3636 C.3       23 UNK        -0.0205 
      9 C9          2.9291  -14.9603  -48.9121 C.ar      23 UNK        -0.0193 
     10 C10         3.4944  -15.3770  -50.1194 C.ar      23 UNK        -0.1150 
     11 C11         3.2118  -16.6441  -50.6353 C.ar      23 UNK        -0.0193 
     12 C12         2.3782  -17.5107  -49.9223 C.ar      23 UNK        -0.1150 
     13 C13         1.8205  -17.1113  -48.7057 C.ar      23 UNK        -0.0193 
     14 C14         2.1005  -15.8359  -48.2075 C.ar      23 UNK        -0.1150 
     15 C15         0.9025  -18.0473  -47.9386 C.3       23 UNK        -0.0205 
     16 S16         1.8589  -19.1311  -46.8409 S.3       23 UNK        -0.2404 
     17 C17         0.6565  -19.4564  -45.5110 C.3       23 UNK        -0.0398 
     18 CA         -0.4214  -20.4984  -45.8944 C.3       11 UNK         0.1400 
     19 N           0.1506  -21.7315  -46.4415 N.am      11 UNK        -0.5000 
     20 C          -0.5377  -22.7225  -47.0211 C.2       10 UNK         0.5000 
     21 O          -1.7631  -22.7287  -47.1344 O.2       10 UNK        -0.5000 
     22 CA          0.2832  -23.9088  -47.5534 C.3       10 UNK         0.1400 
     23 CB          0.8299  -23.5921  -48.9532 C.3       10 UNK        -0.1800 
     24 N           1.3882  -24.2626  -46.6591 N.am      10 UNK        -0.5000 
     25 C           1.2219  -24.9086  -45.4965 C.2       9 UNK         0.5000 
     26 O           0.1312  -25.3078  -45.0874 O.2       9 UNK        -0.5000 
     27 CA          2.4782  -25.1138  -44.6249 C.3       9 UNK         0.1400 
     28 CB          3.2940  -26.3144  -45.1287 C.3       9 UNK        -0.1800 
     29 N           3.3592  -23.9433  -44.5055 N.am      9 UNK        -0.5000 
     30 C           2.9693  -22.7194  -44.1250 C.2       8 UNK         0.5000 
     31 O           1.7885  -22.4010  -43.9774 O.2       8 UNK        -0.5000 
     32 CA          4.0727  -21.6701  -43.8768 C.3       8 UNK         0.1400 
     33 CB          4.7002  -21.2046  -45.1990 C.3       8 UNK        -0.1800 
     34 N           3.5267  -20.5087  -43.1673 N.am      8 UNK        -0.5000 
     35 C           3.1555  -20.5250  -41.8793 C.2       7 UNK         0.5000 
     36 O           3.4385  -21.4474  -41.1121 O.2       7 UNK        -0.5000 
     37 CA          2.2761  -19.3626  -41.3669 C.3       7 UNK         0.1400 
     38 CB          2.6203  -18.9654  -39.9164 C.3       7 UNK        -0.1800 
     39 N           2.2150  -18.1696  -42.2205 N.am      7 UNK        -0.5000 
     40 C           3.2208  -17.3345  -42.5292 C.2       6 UNK         0.5000 
     41 O           4.4049  -17.5626  -42.2815 O.2       6 UNK        -0.5000 
     42 CA          2.8363  -15.9956  -43.1959 C.3       6 UNK         0.1400 
     43 CB          3.0375  -16.0654  -44.7150 C.3       6 UNK        -0.1800 
     44 N           1.4606  -15.5756  -42.9081 N.am      6 UNK        -0.5000 
     45 C           1.0101  -15.2412  -41.6872 C.2       5 UNK         0.5000 
     46 O           1.7418  -15.1491  -40.7007 O.2       5 UNK        -0.5000 
     47 CA         -0.5023  -14.9833  -41.5118 C.3       5 UNK         0.1400 
     48 CB         -0.7693  -13.4830  -41.3123 C.3       5 UNK        -0.1800 
     49 N          -1.3449  -15.4614  -42.6091 N.am      5 UNK        -0.5000 
     50 C          -1.4801  -16.7286  -43.0254 C.2       4 UNK         0.5000 
     51 O          -0.9013  -17.6885  -42.5139 O.2       4 UNK        -0.5000 
     52 CA         -2.3569  -16.9370  -44.2786 C.3       4 UNK         0.1400 
     53 CB         -3.8009  -17.2783  -43.8838 C.3       4 UNK        -0.1800 
     54 N          -2.3590  -15.7983  -45.2073 N.am      4 UNK        -0.5000 
     55 C          -1.2639  -15.2875  -45.7870 C.2       3 UNK         0.5000 
     56 O          -0.1238  -15.6901  -45.5523 O.2       3 UNK        -0.5000 
     57 CA         -1.4629  -14.1120  -46.7566 C.3       3 UNK         0.1400 
     58 CB         -0.7133  -12.8685  -46.2541 C.3       3 UNK        -0.1800 
     59 N          -0.9892  -14.4533  -48.0970 N.am      3 UNK        -0.5000 
     60 C          -1.6403  -15.2568  -48.9494 C.2       2 UNK         0.5000 
     61 O          -2.7168  -15.7869  -48.6739 O.2       2 UNK        -0.5000 
     62 CA         -0.9913  -15.5228  -50.3308 C.3       2 UNK         0.1400 
     63 CB         -2.0391  -15.7802  -51.4350 C.3       2 UNK        -0.1800 
     64 N          -0.0248  -14.5072  -50.7746 N.am      2 UNK        -0.5000 
     65 C          -0.2559  -13.1971  -50.9591 C.2       1 UNK         0.5000 
     66 O          -1.3351  -12.6472  -50.7338 O.2       1 UNK        -0.5000 
     67 C          -1.3424  -20.7931  -44.6969 C.2       11 UNK         0.5000 
     68 O          -2.4812  -20.3274  -44.6756 O.2       11 UNK        -0.5000 
     69 N          -0.8512  -21.6217  -43.7658 N.am      12 UNK        -0.5000 
     70 CA         -1.5626  -22.1070  -42.5823 C.3       12 UNK         0.1400 
     71 CB         -0.5757  -22.8797  -41.6944 C.3       12 UNK        -0.1800 
     72 C          -2.7876  -22.9800  -42.9183 C.2       12 UNK         0.5000 
     73 O          -3.7206  -23.0474  -42.1186 O.2       12 UNK        -0.5000 
     74 N          -2.7899  -23.5849  -44.1137 N.am      13 UNK        -0.5000 
     75 CA         -3.9177  -24.3030  -44.7067 C.3       13 UNK         0.1400 
     76 CB         -3.3745  -25.4378  -45.5940 C.3       13 UNK        -0.1800 
     77 C          -4.8660  -23.3631  -45.4853 C.2       13 UNK         0.5000 
     78 O          -5.5523  -23.8225  -46.3973 O.2       13 UNK        -0.5000 
     79 N          -4.8837  -22.0685  -45.1321 N.am      14 UNK        -0.5000 
     80 CA         -5.6849  -20.9875  -45.7148 C.3       14 UNK         0.1400 
     81 CB         -7.1908  -21.2234  -45.4717 C.3       14 UNK        -0.1800 
     82 C          -5.3426  -20.7409  -47.1959 C.2       14 UNK         0.5000 
     83 O          -6.2421  -20.6503  -48.0319 O.2       14 UNK        -0.5000 
     84 N          -4.0362  -20.6717  -47.4897 N.am      15 UNK        -0.5000 
     85 CA         -3.4406  -20.5258  -48.8244 C.3       15 UNK         0.1400 
     86 CB         -3.7252  -19.1258  -49.3998 C.3       15 UNK        -0.1800 
     87 C          -3.8605  -21.6697  -49.7704 C.2       15 UNK         0.5000 
     88 O          -4.2957  -21.4192  -50.8978 O.2       15 UNK        -0.5000 
     89 N          -3.7256  -22.9000  -49.2556 N.am      16 UNK        -0.5000 
     90 CA         -4.1379  -24.1768  -49.8411 C.3       16 UNK         0.1400 
     91 CB         -3.2973  -24.5077  -51.0910 C.3       16 UNK        -0.1800 
     92 C          -5.6578  -24.2384  -50.0932 C.2       16 UNK         0.5000 
     93 O          -6.0917  -24.4485  -51.2251 O.2       16 UNK        -0.5000 
     94 N          -6.4379  -24.0435  -49.0211 N.am      17 UNK        -0.5000 
     95 CA         -7.9028  -24.0853  -48.9672 C.3       17 UNK         0.1400 
     96 CB         -8.4108  -25.5254  -49.1878 C.3       17 UNK        -0.1800 
     97 C          -8.5675  -23.0557  -49.9035 C.2       17 UNK         0.5000 
     98 O          -9.4812  -23.3959  -50.6575 O.2       17 UNK        -0.5000 
     99 N          -8.0742  -21.8114  -49.8375 N.am      18 UNK        -0.5000 
    100 CA        -8.4965  -20.6380  -50.6064 C.3       18 UNK         0.1400 
    101 CB        -9.9592  -20.2618  -50.2891 C.3       18 UNK        -0.1800 
    102 C         -8.2167  -20.7364  -52.1212 C.2       18 UNK         0.5000 
    103 O         -8.8149  -19.9891  -52.8972 O.2       18 UNK        -0.5000 
    104 N         -7.2888  -21.6174  -52.5246 N.am      19 UNK        -0.5000 
    105 CA        -6.8097  -21.7325  -53.9052 C.3       19 UNK         0.1400 
    106 CB        -6.1066  -23.0843  -54.0921 C.3       19 UNK        -0.1800 
    107 C         -5.8645  -20.5843  -54.3088 C.2       19 UNK         0.5000 
    108 O         -5.6665  -20.3696  -55.5050 O.2       19 UNK        -0.5000 
    109 N         -5.3046  -19.8847  -53.3088 N.am      20 UNK        -0.5000 
    110 CA        -4.3106  -18.8156  -53.4075 C.3       20 UNK         0.1400 
    111 CB        -4.8346  -17.6109  -54.2169 C.3       20 UNK        -0.1800 
    112 C         -2.9763  -19.3763  -53.9262 C.2       20 UNK         0.5000 
    113 O         -2.5423  -19.0408  -55.0292 O.2       20 UNK        -0.5000 
    114 N         -2.3699  -20.2456  -53.1036 N.am      21 UNK        -0.5000 
    115 CA        -1.1506  -21.0267  -53.3582 C.3       21 UNK         0.1400 
    116 CB        -0.7246  -21.6992  -52.0431 C.3       21 UNK        -0.1800 
    117 C          0.0503  -20.2629  -53.9572 C.2       21 UNK         0.5000 
    118 O          0.8502  -20.8680  -54.6720 O.2       21 UNK        -0.5000 
    119 N          0.1555  -18.9614  -53.6619 N.am      22 UNK        -0.5000 
    120 CA         1.1572  -18.0506  -54.2378 C.3       22 UNK         0.1400 
    121 C          0.9103  -17.6651  -55.7297 C.2       22 UNK         0.5000 
    122 N         -0.2631  -17.9094  -56.3003 N.am      22 UNK        -0.7600 
    123 O          1.8050  -17.1454  -56.3899 O.2       22 UNK        -0.5000 
    124 C124        1.3372  -16.7991  -53.3405 C.3       23 UNK        -0.0398 
    125 S125        3.0438  -16.1523  -53.3539 S.3       23 UNK        -0.2404 
    126 C126        3.7987  -17.0657  -51.9718 C.3       23 UNK        -0.0205 
    127 H127        2.3075  -13.7553  -55.0342 H         1 UNK         0.0600 
    128 H128        1.2564  -12.7425  -56.0213 H         1 UNK         0.0600 
    129 H129        0.7114  -14.3431  -55.5134 H         1 UNK         0.0600 
    130 H130        2.2533  -13.3677  -52.8314 H         1 UNK         0.3000 
    131 H131        0.4953  -11.3785  -51.7289 H         1 UNK         0.0600 
    132 H132        2.9758  -12.7238  -50.8819 H         1 UNK         0.0800 
    133 H133        2.4698  -11.0934  -50.6948 H         1 UNK         0.0800 
    134 H134        3.3154  -13.6245  -47.2787 H         1 UNK         0.0800 
    135 H135        4.1696  -13.1969  -48.7364 H         1 UNK         0.0800 
    136 H136        4.1475  -14.7141  -50.6689 H         1 UNK         0.1150 
    137 H137        2.1596  -18.4944  -50.3140 H         1 UNK         0.1150 
    138 H138        1.6701  -15.5190  -47.2702 H         1 UNK         0.1150 
    139 H139        0.1797  -17.4691  -47.3657 H         1 UNK         0.0800 
    140 H140        0.3219  -18.6601  -48.6295 H         1 UNK         0.0800 
    141 H141        0.2029  -18.5108  -45.2140 H         1 UNK         0.0800 
    142 H142        1.2206  -19.7971  -44.6429 H         1 UNK         0.0800 
    143 H143       -1.0410  -20.0562  -46.6765 H         1 UNK         0.0600 
    144 H144        1.1501  -21.8315  -46.3478 H         1 UNK         0.3000 
    145 H145       -0.3878  -24.7663  -47.6393 H         1 UNK         0.0600 
    146 H146        1.5108  -22.7400  -48.9407 H         1 UNK         0.0600 
    147 H147        1.3663  -24.4451  -49.3690 H         1 UNK         0.0600 
    148 H148        0.0178  -23.3542  -49.6414 H         1 UNK         0.0600 
    149 H149        2.3163  -23.9675  -46.9245 H         1 UNK         0.3000 
    150 H150        2.1283  -25.3471  -43.6172 H         1 UNK         0.0600 
    151 H151        2.6693  -27.2049  -45.2126 H         1 UNK         0.0600 
    152 H152        4.1073  -26.5547  -44.4438 H         1 UNK         0.0600 
    153 H153        3.7271  -26.1234  -46.1113 H         1 UNK         0.0600 
    154 H154        4.3461  -24.1191  -44.6272 H         1 UNK         0.3000 
    155 H155        4.8508  -22.1247  -43.2604 H         1 UNK         0.0600 
    156 H156        5.2142  -22.0256  -45.6998 H         1 UNK         0.0600 
    157 H157        5.4361  -20.4177  -45.0320 H         1 UNK         0.0600 
    158 H158        3.9516  -20.8218  -45.8903 H         1 UNK         0.0600 
    159 H159        3.2623  -19.7148  -43.7295 H         1 UNK         0.3000 
    160 H160        1.2591  -19.7579  -41.3584 H         1 UNK         0.0600 
    161 H161        1.9628  -18.1726  -39.5589 H         1 UNK         0.0600 
    162 H162        3.6484  -18.6134  -39.8277 H         1 UNK         0.0600 
    163 H163        2.5041  -19.8104  -39.2368 H         1 UNK         0.0600 
    164 H164        1.2765  -17.8786  -42.4707 H         1 UNK         0.3000 
    165 H165        3.5093  -15.2318  -42.8010 H         1 UNK         0.0600 
    166 H166        2.3565  -16.7808  -45.1736 H         1 UNK         0.0600 
    167 H167        2.8635  -15.0941  -45.1777 H         1 UNK         0.0600 
    168 H168        4.0540  -16.3697  -44.9673 H         1 UNK         0.0600 
    169 H169        0.8080  -15.6095  -43.6842 H         1 UNK         0.3000 
    170 H170       -0.8126  -15.5109  -40.6077 H         1 UNK         0.0600 
    171 H171       -0.5010  -12.9068  -42.1987 H         1 UNK         0.0600 
    172 H172       -1.8203  -13.2939  -41.0926 H         1 UNK         0.0600 
    173 H173       -0.1898  -13.0884  -40.4765 H         1 UNK         0.0600 
    174 H174       -1.8499  -14.7516  -43.1184 H         1 UNK         0.3000 
    175 H175       -1.9488  -17.7860  -44.8245 H         1 UNK         0.0600 
    176 H176       -4.2854  -16.4488  -43.3676 H         1 UNK         0.0600 
    177 H177       -4.3997  -17.5287  -44.7598 H         1 UNK         0.0600 
    178 H178       -3.8280  -18.1429  -43.2189 H         1 UNK         0.0600 
    179 H179       -3.2629  -15.4208  -45.4531 H         1 UNK         0.3000 
    180 H180       -2.5254  -13.8662  -46.8134 H         1 UNK         0.0600 
    181 H181        0.3591  -13.0498  -46.1686 H         1 UNK         0.0600 
    182 H182       -1.0729  -12.5668  -45.2696 H         1 UNK         0.0600 
    183 H183       -0.8569  -12.0227  -46.9268 H         1 UNK         0.0600 
    184 H184       -0.1010  -14.0632  -48.3786 H         1 UNK         0.3000 
    185 H185       -0.4254  -16.4460  -50.2139 H         1 UNK         0.0600 
    186 H186       -2.6876  -14.9161  -51.5824 H         1 UNK         0.0600 
    187 H187       -1.5644  -16.0065  -52.3893 H         1 UNK         0.0600 
    188 H188       -2.6781  -16.6271  -51.1844 H         1 UNK         0.0600 
    189 H189        0.9101  -14.8464  -50.9516 H         1 UNK         0.3000 
    190 H190        0.1024  -21.9670  -43.8829 H         1 UNK         0.3000 
    191 H191       -1.9192  -21.2363  -42.0281 H         1 UNK         0.0600 
    192 H192       -0.1676  -23.7484  -42.2133 H         1 UNK         0.0600 
    193 H193        0.2611  -22.2494  -41.3924 H         1 UNK         0.0600 
    194 H194       -1.0608  -23.2355  -40.7847 H         1 UNK         0.0600 
    195 H195       -1.9837  -23.4617  -44.7107 H         1 UNK         0.3000 
    196 H196       -4.5092  -24.7602  -43.9112 H         1 UNK         0.0600 
    197 H197       -2.7026  -26.0881  -45.0336 H         1 UNK         0.0600 
    198 H198       -2.8254  -25.0536  -46.4532 H         1 UNK         0.0600 
    199 H199       -4.1835  -26.0623  -45.9747 H         1 UNK         0.0600 
    200 H200       -4.2284  -21.7727  -44.4208 H         1 UNK         0.3000 
    201 H201       -5.4044  -20.0776  -45.1823 H         1 UNK         0.0600 
    202 H202       -7.7769  -20.3632  -45.7971 H         1 UNK         0.0600 
    203 H203       -7.3995  -21.3759  -44.4129 H         1 UNK         0.0600 
    204 H204       -7.5613  -22.0929  -46.0152 H         1 UNK         0.0600 
    205 H205       -3.3853  -20.8131  -46.7275 H         1 UNK         0.3000 
    206 H206       -2.3610  -20.6105  -48.6985 H         1 UNK         0.0600 
    207 H207       -4.7755  -18.9966  -49.6633 H         1 UNK         0.0600 
    208 H208       -3.1316  -18.9497  -50.2962 H         1 UNK         0.0600 
    209 H209       -3.4636  -18.3493  -48.6819 H         1 UNK         0.0600 
    210 H210       -3.3098  -22.9589  -48.3307 H         1 UNK         0.3000 
    211 H211       -3.9216  -24.9403  -49.0922 H         1 UNK         0.0600 
    212 H212       -2.2336  -24.5261  -50.8545 H         1 UNK         0.0600 
    213 H213       -3.5572  -25.4908  -51.4851 H         1 UNK         0.0600 
    214 H214       -3.4542  -23.7853  -51.8918 H         1 UNK         0.0600 
    215 H215       -5.9899  -23.8784  -48.1199 H         1 UNK         0.3000 
    216 H216       -8.1767  -23.7938  -47.9522 H         1 UNK         0.0600 
    217 H217       -9.4891  -25.5866  -49.0367 H         1 UNK         0.0600 
    218 H218       -8.2012  -25.8795  -50.1976 H         1 UNK         0.0600 
    219 H219       -7.9459  -26.2179  -48.4861 H         1 UNK         0.0600 
    220 H220       -7.3217  -21.6228  -49.1770 H         1 UNK         0.3000 
    221 H221       -7.8699  -19.8195  -50.2492 H         1 UNK         0.0600 
    222 H222      -10.6628  -20.9934  -50.6872 H         1 UNK         0.0600 
    223 H223      -10.1225  -20.1878  -49.2140 H         1 UNK         0.0600 
    224 H224      -10.2174  -19.2944  -50.7212 H         1 UNK         0.0600 
    225 H225       -6.8469  -22.2164  -51.8386 H         1 UNK         0.3000 
    226 H226       -7.6712  -21.7037  -54.5756 H         1 UNK         0.0600 
    227 H227       -6.7712  -23.9128  -53.8470 H         1 UNK         0.0600 
    228 H228       -5.7864  -23.2200  -55.1258 H         1 UNK         0.0600 
    229 H229       -5.2203  -23.1631  -53.4620 H         1 UNK         0.0600 
    230 H230       -5.4763  -20.2275  -52.3714 H         1 UNK         0.3000 
    231 H231       -4.1355  -18.4626  -52.3913 H         1 UNK         0.0600 
    232 H232       -4.1242  -16.7843  -54.1789 H         1 UNK         0.0600 
    233 H233       -5.7792  -17.2470  -53.8129 H         1 UNK         0.0600 
    234 H234       -4.9911  -17.8532  -55.2681 H         1 UNK         0.0600 
    235 H235       -2.8748  -20.5035  -52.2644 H         1 UNK         0.3000 
    236 H236       -1.4209  -21.8076  -54.0713 H         1 UNK         0.0600 
    237 H237       -1.5142  -22.3372  -51.6518 H         1 UNK         0.0600 
    238 H238        0.1547  -22.3283  -52.1886 H         1 UNK         0.0600 
    239 H239       -0.4791  -20.9635  -51.2760 H         1 UNK         0.0600 
    240 H240       -0.5634  -18.5449  -53.0915 H         1 UNK         0.3000 
    241 H241        2.1005  -18.6006  -54.2304 H         1 UNK         0.0600 
    242 H242       -0.4005  -17.6611  -57.2667 H         1 UNK         0.3800 
    243 H243       -1.0262  -18.3453  -55.7855 H         1 UNK         0.3800 
    244 H244        0.6531  -16.0025  -53.6358 H         1 UNK         0.0800 
    245 H245        1.0697  -17.0295  -52.3107 H         1 UNK         0.0800 
    246 H246        4.8731  -16.8771  -51.9670 H         1 UNK         0.0800 
    247 H247        3.6760  -18.1378  -52.1336 H         1 UNK         0.0800 
@<TRIPOS>BOND
     1    1    2 1    
     2    1  127 1    
     3    1  128 1    
     4    1  129 1    
     5    2    3 2    
     6    2    4 am   BACKBONE|DICT|INTERRES
     7    4    5 1    
     8    4  130 1    
     9    5    6 1    
    10    5   65 1    
    11    5  131 1    
    12    6    7 1    
    13    6  132 1    
    14    6  133 1    
    15    7    8 1    
    16    8    9 1    
    17    8  134 1    
    18    8  135 1    
    19    9   10 ar   
    20    9   14 ar   
    21   10   11 ar   
    22   10  136 1    
    23   11   12 ar   
    24   11  126 1    
    25   12   13 ar   
    26   12  137 1    
    27   13   14 ar   
    28   13   15 1    
    29   14  138 1    
    30   15   16 1    
    31   15  139 1    
    32   15  140 1    
    33   16   17 1    
    34   17   18 1    
    35   17  141 1    
    36   17  142 1    
    37   18   19 1    
    38   18   67 1    
    39   18  143 1    
    40   19   20 am   BACKBONE|DICT|INTERRES
    41   19  144 1    
    42   20   21 2    
    43   20   22 1    
    44   22   23 1    
    45   22   24 1    
    46   22  145 1    
    47   23  146 1    
    48   23  147 1    
    49   23  148 1    
    50   24   25 am   BACKBONE|DICT|INTERRES
    51   24  149 1    
    52   25   26 2    
    53   25   27 1    
    54   27   28 1    
    55   27   29 1    
    56   27  150 1    
    57   28  151 1    
    58   28  152 1    
    59   28  153 1    
    60   29   30 am   BACKBONE|DICT|INTERRES
    61   29  154 1    
    62   30   31 2    
    63   30   32 1    
    64   32   33 1    
    65   32   34 1    
    66   32  155 1    
    67   33  156 1    
    68   33  157 1    
    69   33  158 1    
    70   34   35 am   BACKBONE|DICT|INTERRES
    71   34  159 1    
    72   35   36 2    
    73   35   37 1    
    74   37   38 1    
    75   37   39 1    
    76   37  160 1    
    77   38  161 1    
    78   38  162 1    
    79   38  163 1    
    80   39   40 am   BACKBONE|DICT|INTERRES
    81   39  164 1    
    82   40   41 2    
    83   40   42 1    
    84   42   43 1    
    85   42   44 1    
    86   42  165 1    
    87   43  166 1    
    88   43  167 1    
    89   43  168 1    
    90   44   45 am   BACKBONE|DICT|INTERRES
    91   44  169 1    
    92   45   46 2    
    93   45   47 1    
    94   47   48 1    
    95   47   49 1    
    96   47  170 1    
    97   48  171 1    
    98   48  172 1    
    99   48  173 1    
   100   49   50 am   BACKBONE|DICT|INTERRES
   101   49  174 1    
   102   50   51 2    
   103   50   52 1    
   104   52   53 1    
   105   52   54 1    
   106   52  175 1    
   107   53  176 1    
   108   53  177 1    
   109   53  178 1    
   110   54   55 am   BACKBONE|DICT|INTERRES
   111   54  179 1    
   112   55   56 2    
   113   55   57 1    
   114   57   58 1    
   115   57   59 1    
   116   57  180 1    
   117   58  181 1    
   118   58  182 1    
   119   58  183 1    
   120   59   60 am   BACKBONE|DICT|INTERRES
   121   59  184 1    
   122   60   61 2    
   123   60   62 1    
   124   62   63 1    
   125   62   64 1    
   126   62  185 1    
   127   63  186 1    
   128   63  187 1    
   129   63  188 1    
   130   64   65 am   BACKBONE|DICT|INTERRES
   131   64  189 1    
   132   65   66 2    
   133   67   68 2    
   134   67   69 am   BACKBONE|DICT|INTERRES
   135   69   70 1    
   136   69  190 1    
   137   70   71 1    
   138   70   72 1    
   139   70  191 1    
   140   71  192 1    
   141   71  193 1    
   142   71  194 1    
   143   72   73 2    
   144   72   74 am   BACKBONE|DICT|INTERRES
   145   74   75 1    
   146   74  195 1    
   147   75   76 1    
   148   75   77 1    
   149   75  196 1    
   150   76  197 1    
   151   76  198 1    
   152   76  199 1    
   153   77   78 2    
   154   77   79 am   BACKBONE|DICT|INTERRES
   155   79   80 1    
   156   79  200 1    
   157   80   81 1    
   158   80   82 1    
   159   80  201 1    
   160   81  202 1    
   161   81  203 1    
   162   81  204 1    
   163   82   83 2    
   164   82   84 am   BACKBONE|DICT|INTERRES
   165   84   85 1    
   166   84  205 1    
   167   85   86 1    
   168   85   87 1    
   169   85  206 1    
   170   86  207 1    
   171   86  208 1    
   172   86  209 1    
   173   87   88 2    
   174   87   89 am   BACKBONE|DICT|INTERRES
   175   89   90 1    
   176   89  210 1    
   177   90   91 1    
   178   90   92 1    
   179   90  211 1    
   180   91  212 1    
   181   91  213 1    
   182   91  214 1    
   183   92   93 2    
   184   92   94 am   BACKBONE|DICT|INTERRES
   185   94   95 1    
   186   94  215 1    
   187   95   96 1    
   188   95   97 1    
   189   95  216 1    
   190   96  217 1    
   191   96  218 1    
   192   96  219 1    
   193   97   98 2    
   194   97   99 am   BACKBONE|DICT|INTERRES
   195   99  100 1    
   196   99  220 1    
   197  100  101 1    
   198  100  102 1    
   199  100  221 1    
   200  101  222 1    
   201  101  223 1    
   202  101  224 1    
   203  102  103 2    
   204  102  104 am   BACKBONE|DICT|INTERRES
   205  104  105 1    
   206  104  225 1    
   207  105  106 1    
   208  105  107 1    
   209  105  226 1    
   210  106  227 1    
   211  106  228 1    
   212  106  229 1    
   213  107  108 2    
   214  107  109 am   BACKBONE|DICT|INTERRES
   215  109  110 1    
   216  109  230 1    
   217  110  111 1    
   218  110  112 1    
   219  110  231 1    
   220  111  232 1    
   221  111  233 1    
   222  111  234 1    
   223  112  113 2    
   224  112  114 am   BACKBONE|DICT|INTERRES
   225  114  115 1    
   226  114  235 1    
   227  115  116 1    
   228  115  117 1    
   229  115  236 1    
   230  116  237 1    
   231  116  238 1    
   232  116  239 1    
   233  117  118 2    
   234  117  119 am   BACKBONE|DICT|INTERRES
   235  119  120 1    
   236  119  240 1    
   237  120  121 1    
   238  120  124 1    
   239  120  241 1    
   240  121  122 am   BACKBONE|DICT|INTERRES
   241  121  123 2    
   242  122  242 1    
   243  122  243 1    
   244  124  125 1    
   245  124  244 1    
   246  124  245 1    
   247  125  126 1    
   248  126  246 1    
   249  126  247 1    
@<TRIPOS>SUBSTRUCTURE
     1 UNK         1 GROUP             0       ****    0 ROOT    
