@<TRIPOS>MOLECULE
3R540
247   249    1
SMALL
USER_CHARGES


@<TRIPOS>ATOM
      1 CA          5.7521  -14.5763  -45.8773 C.3       0 UNK        -0.1800 
      2 C           4.5803  -13.6577  -45.5675 C.2       0 UNK         0.5000 
      3 O           4.4894  -13.1336  -44.4578 O.2       0 UNK        -0.5000 
      4 N           3.6909  -13.4455  -46.5471 N.am      1 UNK        -0.5000 
      5 CA          2.4495  -12.6662  -46.4159 C.3       1 UNK         0.1400 
      6 C6          1.5492  -12.7838  -47.6663 C.3       23 UNK        -0.0398 
      7 S7          1.0231  -14.5036  -47.9727 S.3       23 UNK        -0.2404 
      8 C8          1.6149  -14.7645  -49.6687 C.3       23 UNK        -0.0205 
      9 C9          1.0702  -16.0544  -50.2637 C.ar      23 UNK        -0.0193 
     10 C10        -0.1700  -16.0575  -50.9083 C.ar      23 UNK        -0.1150 
     11 C11        -0.6480  -17.2108  -51.5377 C.ar      23 UNK        -0.0193 
     12 C12         0.1374  -18.3701  -51.5151 C.ar      23 UNK        -0.1150 
     13 C13         1.3668  -18.3932  -50.8470 C.ar      23 UNK        -0.0193 
     14 C14         1.8246  -17.2301  -50.2196 C.ar      23 UNK        -0.1150 
     15 C15         2.2341  -19.6500  -50.8450 C.3       23 UNK        -0.0205 
     16 S16         1.3205  -21.1748  -50.4335 S.3       23 UNK        -0.2404 
     17 C17         0.6838  -20.7592  -48.7772 C.3       23 UNK        -0.0398 
     18 CA          0.4124  -21.9929  -47.8834 C.3       11 UNK         0.1400 
     19 N           0.1820  -21.6065  -46.4901 N.am      11 UNK        -0.5000 
     20 C           0.0330  -22.4531  -45.4611 C.2       10 UNK         0.5000 
     21 O           0.1515  -23.6742  -45.5554 O.2       10 UNK        -0.5000 
     22 CA         -0.3781  -21.8352  -44.1115 C.3       10 UNK         0.1400 
     23 CB          0.8404  -21.2578  -43.3778 C.3       10 UNK        -0.1800 
     24 N          -1.4027  -20.8003  -44.2648 N.am      10 UNK        -0.5000 
     25 C          -2.6378  -21.0242  -44.7375 C.2       9 UNK         0.5000 
     26 O          -3.0656  -22.1417  -45.0236 O.2       9 UNK        -0.5000 
     27 CA         -3.5248  -19.7916  -44.9825 C.3       9 UNK         0.1400 
     28 CB         -4.2266  -19.3475  -43.6905 C.3       9 UNK        -0.1800 
     29 N          -2.7662  -18.6745  -45.5423 N.am      9 UNK        -0.5000 
     30 C          -2.2504  -18.6544  -46.7798 C.2       8 UNK         0.5000 
     31 O          -2.3851  -19.5703  -47.5919 O.2       8 UNK        -0.5000 
     32 CA         -1.3909  -17.4284  -47.1398 C.3       8 UNK         0.1400 
     33 CB         -2.2807  -16.2362  -47.5248 C.3       8 UNK        -0.1800 
     34 N          -0.5102  -17.0444  -46.0344 N.am      8 UNK        -0.5000 
     35 C           0.5277  -17.7823  -45.6104 C.2       7 UNK         0.5000 
     36 O           0.8603  -18.8441  -46.1328 O.2       7 UNK        -0.5000 
     37 CA          1.2976  -17.2946  -44.3666 C.3       7 UNK         0.1400 
     38 CB          2.4866  -16.4220  -44.7847 C.3       7 UNK        -0.1800 
     39 N           0.4651  -16.5572  -43.4172 N.am      7 UNK        -0.5000 
     40 C          -0.6227  -17.0544  -42.8083 C.2       6 UNK         0.5000 
     41 O          -0.9749  -18.2297  -42.9104 O.2       6 UNK        -0.5000 
     42 CA         -1.4981  -16.0766  -41.9963 C.3       6 UNK         0.1400 
     43 CB         -1.2336  -16.2457  -40.4930 C.3       6 UNK        -0.1800 
     44 N          -1.3128  -14.6677  -42.3540 N.am      6 UNK        -0.5000 
     45 C          -1.4912  -14.1307  -43.5704 C.2       5 UNK         0.5000 
     46 O          -1.9260  -14.7603  -44.5347 O.2       5 UNK        -0.5000 
     47 CA         -1.0494  -12.6646  -43.7577 C.3       5 UNK         0.1400 
     48 CB         -2.2689  -11.7313  -43.7507 C.3       5 UNK        -0.1800 
     49 N          -0.0763  -12.1889  -42.7648 N.am      5 UNK        -0.5000 
     50 C           1.1469  -12.7009  -42.5709 C.2       4 UNK         0.5000 
     51 O           1.5762  -13.6906  -43.1648 O.2       4 UNK        -0.5000 
     52 CA          2.0159  -12.0298  -41.5039 C.3       4 UNK         0.1400 
     53 CB          2.2313  -12.9679  -40.3022 C.3       4 UNK        -0.1800 
     54 N           3.2955  -11.6622  -42.0994 N.am      4 UNK        -0.5000 
     55 C           4.1008  -10.6983  -41.6352 C.2       3 UNK         0.5000 
     56 O           3.8641  -10.0368  -40.6232 O.2       3 UNK        -0.5000 
     57 CA          5.3690  -10.3986  -42.4497 C.3       3 UNK         0.1400 
     58 CB          6.4500  -11.4636  -42.2038 C.3       3 UNK        -0.1800 
     59 N           5.0646  -10.3192  -43.8774 N.am      3 UNK        -0.5000 
     60 C           4.6679   -9.2020  -44.5044 C.2       2 UNK         0.5000 
     61 O           4.5774   -8.1054  -43.9507 O.2       2 UNK        -0.5000 
     62 CA          4.3148   -9.3146  -46.0018 C.3       2 UNK         0.1400 
     63 CB          5.5233   -8.9289  -46.8685 C.3       2 UNK        -0.1800 
     64 N           3.8630  -10.6512  -46.3869 N.am      2 UNK        -0.5000 
     65 C           2.6810  -11.1845  -46.0480 C.2       1 UNK         0.5000 
     66 O           1.8018  -10.5662  -45.4473 O.2       1 UNK        -0.5000 
     67 C          -0.7436  -22.8600  -48.4232 C.2       11 UNK         0.5000 
     68 O          -0.4863  -23.9319  -48.9695 O.2       11 UNK        -0.5000 
     69 N          -1.9927  -22.4194  -48.2088 N.am      12 UNK        -0.5000 
     70 CA         -3.1976  -23.1604  -48.5832 C.3       12 UNK         0.1400 
     71 CB         -4.4432  -22.2987  -48.3448 C.3       12 UNK        -0.1800 
     72 C          -3.3293  -24.5200  -47.8771 C.2       12 UNK         0.5000 
     73 O          -3.7173  -25.4932  -48.5232 O.2       12 UNK        -0.5000 
     74 N          -2.9797  -24.5757  -46.5859 N.am      13 UNK        -0.5000 
     75 CA         -2.9424  -25.8056  -45.7960 C.3       13 UNK         0.1400 
     76 CB         -2.7361  -25.4633  -44.3127 C.3       13 UNK        -0.1800 
     77 C          -1.8675  -26.7903  -46.2921 C.2       13 UNK         0.5000 
     78 O          -2.1575  -27.9783  -46.4352 O.2       13 UNK        -0.5000 
     79 N          -0.6617  -26.2772  -46.5747 N.am      14 UNK        -0.5000 
     80 CA          0.4718  -27.0449  -47.0938 C.3       14 UNK         0.1400 
     81 CB          1.7410  -26.1806  -47.0427 C.3       14 UNK        -0.1800 
     82 C           0.2363  -27.5802  -48.5182 C.2       14 UNK         0.5000 
     83 O           0.5761  -28.7300  -48.7999 O.2       14 UNK        -0.5000 
     84 N          -0.3534  -26.7454  -49.3837 N.am      15 UNK        -0.5000 
     85 CA         -0.6933  -27.0802  -50.7679 C.3       15 UNK         0.1400 
     86 CB         -0.9399  -25.7782  -51.5439 C.3       15 UNK        -0.1800 
     87 C          -1.9209  -28.0015  -50.8985 C.2       15 UNK         0.5000 
     88 O          -2.1062  -28.5925  -51.9626 O.2       15 UNK        -0.5000 
     89 N          -2.7377  -28.0835  -49.8366 N.am      16 UNK        -0.5000 
     90 CA         -4.0469  -28.7383  -49.7659 C.3       16 UNK         0.1400 
     91 CB         -3.9273  -30.2640  -49.9653 C.3       16 UNK        -0.1800 
     92 C          -5.0442  -28.0610  -50.7275 C.2       16 UNK         0.5000 
     93 O          -5.5323  -28.6912  -51.6670 O.2       16 UNK        -0.5000 
     94 N          -5.2840  -26.7696  -50.4590 N.am      17 UNK        -0.5000 
     95 CA         -6.0108  -25.7761  -51.2511 C.3       17 UNK         0.1400 
     96 CB         -7.4060  -26.2589  -51.7000 C.3       17 UNK        -0.1800 
     97 C          -5.1331  -25.2822  -52.4136 C.2       17 UNK         0.5000 
     98 O          -5.1261  -25.8780  -53.4925 O.2       17 UNK        -0.5000 
     99 N          -4.3845  -24.2035  -52.1480 N.am      18 UNK        -0.5000 
    100 CA        -3.5414  -23.5021  -53.1173 C.3       18 UNK         0.1400 
    101 CB        -2.6771  -22.4690  -52.3735 C.3       18 UNK        -0.1800 
    102 C         -4.3699  -22.8073  -54.2145 C.2       18 UNK         0.5000 
    103 O         -5.5273  -22.4446  -53.9802 O.2       18 UNK        -0.5000 
    104 N         -3.7440  -22.6087  -55.3822 N.am      19 UNK        -0.5000 
    105 CA        -4.3145  -21.9164  -56.5390 C.3       19 UNK         0.1400 
    106 CB        -3.2947  -21.9278  -57.6879 C.3       19 UNK        -0.1800 
    107 C         -4.7379  -20.4743  -56.2022 C.2       19 UNK         0.5000 
    108 O         -3.9965  -19.7664  -55.5199 O.2       19 UNK        -0.5000 
    109 N         -5.9301  -20.0901  -56.6760 N.am      20 UNK        -0.5000 
    110 CA        -6.6355  -18.8309  -56.4011 C.3       20 UNK         0.1400 
    111 CB        -5.8003  -17.6002  -56.8162 C.3       20 UNK        -0.1800 
    112 C         -7.1925  -18.7159  -54.9628 C.2       20 UNK         0.5000 
    113 O         -7.6514  -17.6354  -54.5899 O.2       20 UNK        -0.5000 
    114 N         -7.1983  -19.8296  -54.2099 N.am      21 UNK        -0.5000 
    115 CA        -7.7771  -20.0086  -52.8741 C.3       21 UNK         0.1400 
    116 CB        -9.3168  -19.9281  -52.9387 C.3       21 UNK        -0.1800 
    117 C         -7.1690  -19.0540  -51.8275 C.2       21 UNK         0.5000 
    118 O         -7.8485  -18.1496  -51.3374 O.2       21 UNK        -0.5000 
    119 N         -5.8853  -19.2735  -51.5177 N.am      22 UNK        -0.5000 
    120 CA        -5.0922  -18.4678  -50.5685 C.3       22 UNK         0.1400 
    121 C         -5.5854  -18.4968  -49.0890 C.2       22 UNK         0.5000 
    122 N         -6.4126  -19.4502  -48.6769 N.am      22 UNK        -0.7600 
    123 O         -5.2293  -17.6225  -48.3062 O.2       22 UNK        -0.5000 
    124 C124       -3.5786  -18.8038  -50.6435 C.3       23 UNK        -0.0398 
    125 S125       -2.9118  -18.7126  -52.3383 S.3       23 UNK        -0.2404 
    126 C126       -1.9745  -17.1478  -52.2951 C.3       23 UNK        -0.0205 
    127 H127        5.7449  -15.4296  -45.1992 H         1 UNK         0.0600 
    128 H128        6.6926  -14.0417  -45.7453 H         1 UNK         0.0600 
    129 H129        5.7130  -14.9533  -46.8995 H         1 UNK         0.0600 
    130 H130        3.8195  -13.9070  -47.4357 H         1 UNK         0.3000 
    131 H131        1.8953  -13.0987  -45.5843 H         1 UNK         0.0600 
    132 H132        0.6421  -12.1888  -47.5429 H         1 UNK         0.0800 
    133 H133        2.0597  -12.3823  -48.5433 H         1 UNK         0.0800 
    134 H134        1.3111  -13.9228  -50.2933 H         1 UNK         0.0800 
    135 H135        2.7059  -14.7746  -49.6747 H         1 UNK         0.0800 
    136 H136       -0.7515  -15.1467  -50.9437 H         1 UNK         0.1150 
    137 H137       -0.2004  -19.2602  -52.0259 H         1 UNK         0.1150 
    138 H138        2.7839  -17.2288  -49.7212 H         1 UNK         0.1150 
    139 H139        2.6784  -19.7657  -51.8342 H         1 UNK         0.0800 
    140 H140        3.0649  -19.5438  -50.1456 H         1 UNK         0.0800 
    141 H141       -0.2098  -20.1452  -48.8914 H         1 UNK         0.0800 
    142 H142        1.4272  -20.1241  -48.2951 H         1 UNK         0.0800 
    143 H143        1.3118  -22.6122  -47.8878 H         1 UNK         0.0600 
    144 H144        0.1354  -20.6081  -46.3079 H         1 UNK         0.3000 
    145 H145       -0.8006  -22.6303  -43.4938 H         1 UNK         0.0600 
    146 H146        0.5550  -20.8108  -42.4252 H         1 UNK         0.0600 
    147 H147        1.5712  -22.0393  -43.1666 H         1 UNK         0.0600 
    148 H148        1.3427  -20.4944  -43.9706 H         1 UNK         0.0600 
    149 H149       -1.1510  -19.8552  -43.9908 H         1 UNK         0.3000 
    150 H150       -4.2937  -20.0715  -45.7058 H         1 UNK         0.0600 
    151 H151       -4.8327  -20.1567  -43.2813 H         1 UNK         0.0600 
    152 H152       -4.8923  -18.5040  -43.8739 H         1 UNK         0.0600 
    153 H153       -3.5142  -19.0518  -42.9203 H         1 UNK         0.0600 
    154 H154       -2.5676  -17.9018  -44.9244 H         1 UNK         0.3000 
    155 H155       -0.7677  -17.6831  -48.0001 H         1 UNK         0.0600 
    156 H156       -3.0089  -16.0058  -46.7464 H         1 UNK         0.0600 
    157 H157       -1.6960  -15.3364  -47.7053 H         1 UNK         0.0600 
    158 H158       -2.8346  -16.4418  -48.4392 H         1 UNK         0.0600 
    159 H159       -0.7505  -16.1933  -45.5389 H         1 UNK         0.3000 
    160 H160        1.6873  -18.1723  -43.8491 H         1 UNK         0.0600 
    161 H161        3.1445  -16.9538  -45.4731 H         1 UNK         0.0600 
    162 H162        3.0842  -16.1238  -43.9230 H         1 UNK         0.0600 
    163 H163        2.1489  -15.5159  -45.2860 H         1 UNK         0.0600 
    164 H164        0.7031  -15.5804  -43.2788 H         1 UNK         0.3000 
    165 H165       -2.5402  -16.3341  -42.1955 H         1 UNK         0.0600 
    166 H166       -1.9081  -15.6272  -39.9007 H         1 UNK         0.0600 
    167 H167       -1.3875  -17.2802  -40.1828 H         1 UNK         0.0600 
    168 H168       -0.2099  -15.9734  -40.2324 H         1 UNK         0.0600 
    169 H169       -0.9455  -14.0684  -41.6303 H         1 UNK         0.3000 
    170 H170       -0.5747  -12.5976  -44.7389 H         1 UNK         0.0600 
    171 H171       -3.0017  -12.0394  -44.4979 H         1 UNK         0.0600 
    172 H172       -2.7687  -11.7298  -42.7813 H         1 UNK         0.0600 
    173 H173       -1.9821  -10.7057  -43.9843 H         1 UNK         0.0600 
    174 H174       -0.3559  -11.3825  -42.2248 H         1 UNK         0.3000 
    175 H175        1.5093  -11.1254  -41.1599 H         1 UNK         0.0600 
    176 H176        2.7695  -13.8716  -40.5913 H         1 UNK         0.0600 
    177 H177        2.8011  -12.4782  -39.5126 H         1 UNK         0.0600 
    178 H178        1.2784  -13.2762  -39.8704 H         1 UNK         0.0600 
    179 H179        3.5576  -12.1821  -42.9337 H         1 UNK         0.3000 
    180 H180        5.7695   -9.4409  -42.1101 H         1 UNK         0.0600 
    181 H181        6.1160  -12.4612  -42.4894 H         1 UNK         0.0600 
    182 H182        6.7227  -11.5017  -41.1485 H         1 UNK         0.0600 
    183 H183        7.3568  -11.2407  -42.7661 H         1 UNK         0.0600 
    184 H184        5.0424  -11.2014  -44.3764 H         1 UNK         0.3000 
    185 H185        3.5087   -8.6065  -46.2058 H         1 UNK         0.0600 
    186 H186        5.8715   -7.9235  -46.6277 H         1 UNK         0.0600 
    187 H187        6.3610   -9.6111  -46.7181 H         1 UNK         0.0600 
    188 H188        5.2679   -8.9376  -47.9283 H         1 UNK         0.0600 
    189 H189        4.5264  -11.2323  -46.8785 H         1 UNK         0.3000 
    190 H190       -2.1282  -21.5087  -47.7789 H         1 UNK         0.3000 
    191 H191       -3.1303  -23.3642  -49.6513 H         1 UNK         0.0600 
    192 H192       -4.5522  -22.0263  -47.2953 H         1 UNK         0.0600 
    193 H193       -5.3502  -22.8255  -48.6435 H         1 UNK         0.0600 
    194 H194       -4.3958  -21.3789  -48.9233 H         1 UNK         0.0600 
    195 H195       -2.7391  -23.7129  -46.1059 H         1 UNK         0.3000 
    196 H196       -3.9132  -26.2956  -45.8960 H         1 UNK         0.0600 
    197 H197       -2.7351  -26.3658  -43.7004 H         1 UNK         0.0600 
    198 H198       -3.5343  -24.8194  -43.9430 H         1 UNK         0.0600 
    199 H199       -1.7894  -24.9504  -44.1433 H         1 UNK         0.0600 
    200 H200       -0.4945  -25.2908  -46.3932 H         1 UNK         0.3000 
    201 H201        0.6216  -27.9047  -46.4375 H         1 UNK         0.0600 
    202 H202        1.9650  -25.8708  -46.0218 H         1 UNK         0.0600 
    203 H203        1.6392  -25.2800  -47.6494 H         1 UNK         0.0600 
    204 H204        2.6061  -26.7320  -47.4131 H         1 UNK         0.0600 
    205 H205       -0.5393  -25.7874  -49.0930 H         1 UNK         0.3000 
    206 H206        0.1577  -27.5938  -51.2200 H         1 UNK         0.0600 
    207 H207       -0.0692  -25.1230  -51.5101 H         1 UNK         0.0600 
    208 H208       -1.1572  -25.9788  -52.5937 H         1 UNK         0.0600 
    209 H209       -1.7883  -25.2328  -51.1302 H         1 UNK         0.0600 
    210 H210       -2.4934  -27.5265  -49.0284 H         1 UNK         0.3000 
    211 H211       -4.4197  -28.5707  -48.7541 H         1 UNK         0.0600 
    212 H212       -3.5962  -30.5250  -50.9706 H         1 UNK         0.0600 
    213 H213       -4.8901  -30.7503  -49.8051 H         1 UNK         0.0600 
    214 H214       -3.2215  -30.6979  -49.2570 H         1 UNK         0.0600 
    215 H215       -4.7638  -26.3705  -49.6778 H         1 UNK         0.3000 
    216 H216       -6.1776  -24.9321  -50.5797 H         1 UNK         0.0600 
    217 H217       -7.3529  -27.0504  -52.4474 H         1 UNK         0.0600 
    218 H218       -7.9684  -25.4378  -52.1455 H         1 UNK         0.0600 
    219 H219       -7.9859  -26.6310  -50.8555 H         1 UNK         0.0600 
    220 H220       -4.4799  -23.7641  -51.2471 H         1 UNK         0.3000 
    221 H221       -2.8847  -24.2343  -53.5917 H         1 UNK         0.0600 
    222 H222       -1.9777  -22.9456  -51.6878 H         1 UNK         0.0600 
    223 H223       -3.2897  -21.7737  -51.7997 H         1 UNK         0.0600 
    224 H224       -2.0811  -21.8768  -53.0694 H         1 UNK         0.0600 
    225 H225       -2.7831  -22.9031  -55.4744 H         1 UNK         0.3000 
    226 H226       -5.1954  -22.4796  -56.8541 H         1 UNK         0.0600 
    227 H227       -3.0301  -22.9464  -57.9726 H         1 UNK         0.0600 
    228 H228       -3.7000  -21.4384  -58.5745 H         1 UNK         0.0600 
    229 H229       -2.3769  -21.4048  -57.4155 H         1 UNK         0.0600 
    230 H230       -6.4542  -20.7536  -57.2304 H         1 UNK         0.3000 
    231 H231       -7.5138  -18.8488  -57.0478 H         1 UNK         0.0600 
    232 H232       -4.9627  -17.4279  -56.1400 H         1 UNK         0.0600 
    233 H233       -6.4098  -16.6960  -56.8088 H         1 UNK         0.0600 
    234 H234       -5.4027  -17.7129  -57.8247 H         1 UNK         0.0600 
    235 H235       -6.7444  -20.6536  -54.5847 H         1 UNK         0.3000 
    236 H236       -7.5205  -21.0215  -52.5596 H         1 UNK         0.0600 
    237 H237       -9.7580  -20.1313  -51.9623 H         1 UNK         0.0600 
    238 H238       -9.6625  -18.9431  -53.2540 H         1 UNK         0.0600 
    239 H239       -9.7199  -20.6627  -53.6358 H         1 UNK         0.0600 
    240 H240       -5.3849  -20.0022  -52.0053 H         1 UNK         0.3000 
    241 H241       -5.2023  -17.4300  -50.8888 H         1 UNK         0.0600 
    242 H242       -6.7439  -20.1562  -49.3122 H         1 UNK         0.3800 
    243 H243       -6.7369  -19.4397  -47.7237 H         1 UNK         0.3800 
    244 H244       -3.0016  -18.1383  -50.0014 H         1 UNK         0.0800 
    245 H245       -3.3896  -19.8092  -50.2680 H         1 UNK         0.0800 
    246 H246       -2.6158  -16.3702  -51.8772 H         1 UNK         0.0800 
    247 H247       -1.7616  -16.8512  -53.3227 H         1 UNK         0.0800 
@<TRIPOS>BOND
     1    1    2 1    
     2    1  127 1    
     3    1  128 1    
     4    1  129 1    
     5    2    3 2    
     6    2    4 am   BACKBONE|DICT|INTERRES
     7    4    5 1    
     8    4  130 1    
     9    5    6 1    
    10    5   65 1    
    11    5  131 1    
    12    6    7 1    
    13    6  132 1    
    14    6  133 1    
    15    7    8 1    
    16    8    9 1    
    17    8  134 1    
    18    8  135 1    
    19    9   10 ar   
    20    9   14 ar   
    21   10   11 ar   
    22   10  136 1    
    23   11   12 ar   
    24   11  126 1    
    25   12   13 ar   
    26   12  137 1    
    27   13   14 ar   
    28   13   15 1    
    29   14  138 1    
    30   15   16 1    
    31   15  139 1    
    32   15  140 1    
    33   16   17 1    
    34   17   18 1    
    35   17  141 1    
    36   17  142 1    
    37   18   19 1    
    38   18   67 1    
    39   18  143 1    
    40   19   20 am   BACKBONE|DICT|INTERRES
    41   19  144 1    
    42   20   21 2    
    43   20   22 1    
    44   22   23 1    
    45   22   24 1    
    46   22  145 1    
    47   23  146 1    
    48   23  147 1    
    49   23  148 1    
    50   24   25 am   BACKBONE|DICT|INTERRES
    51   24  149 1    
    52   25   26 2    
    53   25   27 1    
    54   27   28 1    
    55   27   29 1    
    56   27  150 1    
    57   28  151 1    
    58   28  152 1    
    59   28  153 1    
    60   29   30 am   BACKBONE|DICT|INTERRES
    61   29  154 1    
    62   30   31 2    
    63   30   32 1    
    64   32   33 1    
    65   32   34 1    
    66   32  155 1    
    67   33  156 1    
    68   33  157 1    
    69   33  158 1    
    70   34   35 am   BACKBONE|DICT|INTERRES
    71   34  159 1    
    72   35   36 2    
    73   35   37 1    
    74   37   38 1    
    75   37   39 1    
    76   37  160 1    
    77   38  161 1    
    78   38  162 1    
    79   38  163 1    
    80   39   40 am   BACKBONE|DICT|INTERRES
    81   39  164 1    
    82   40   41 2    
    83   40   42 1    
    84   42   43 1    
    85   42   44 1    
    86   42  165 1    
    87   43  166 1    
    88   43  167 1    
    89   43  168 1    
    90   44   45 am   BACKBONE|DICT|INTERRES
    91   44  169 1    
    92   45   46 2    
    93   45   47 1    
    94   47   48 1    
    95   47   49 1    
    96   47  170 1    
    97   48  171 1    
    98   48  172 1    
    99   48  173 1    
   100   49   50 am   BACKBONE|DICT|INTERRES
   101   49  174 1    
   102   50   51 2    
   103   50   52 1    
   104   52   53 1    
   105   52   54 1    
   106   52  175 1    
   107   53  176 1    
   108   53  177 1    
   109   53  178 1    
   110   54   55 am   BACKBONE|DICT|INTERRES
   111   54  179 1    
   112   55   56 2    
   113   55   57 1    
   114   57   58 1    
   115   57   59 1    
   116   57  180 1    
   117   58  181 1    
   118   58  182 1    
   119   58  183 1    
   120   59   60 am   BACKBONE|DICT|INTERRES
   121   59  184 1    
   122   60   61 2    
   123   60   62 1    
   124   62   63 1    
   125   62   64 1    
   126   62  185 1    
   127   63  186 1    
   128   63  187 1    
   129   63  188 1    
   130   64   65 am   BACKBONE|DICT|INTERRES
   131   64  189 1    
   132   65   66 2    
   133   67   68 2    
   134   67   69 am   BACKBONE|DICT|INTERRES
   135   69   70 1    
   136   69  190 1    
   137   70   71 1    
   138   70   72 1    
   139   70  191 1    
   140   71  192 1    
   141   71  193 1    
   142   71  194 1    
   143   72   73 2    
   144   72   74 am   BACKBONE|DICT|INTERRES
   145   74   75 1    
   146   74  195 1    
   147   75   76 1    
   148   75   77 1    
   149   75  196 1    
   150   76  197 1    
   151   76  198 1    
   152   76  199 1    
   153   77   78 2    
   154   77   79 am   BACKBONE|DICT|INTERRES
   155   79   80 1    
   156   79  200 1    
   157   80   81 1    
   158   80   82 1    
   159   80  201 1    
   160   81  202 1    
   161   81  203 1    
   162   81  204 1    
   163   82   83 2    
   164   82   84 am   BACKBONE|DICT|INTERRES
   165   84   85 1    
   166   84  205 1    
   167   85   86 1    
   168   85   87 1    
   169   85  206 1    
   170   86  207 1    
   171   86  208 1    
   172   86  209 1    
   173   87   88 2    
   174   87   89 am   BACKBONE|DICT|INTERRES
   175   89   90 1    
   176   89  210 1    
   177   90   91 1    
   178   90   92 1    
   179   90  211 1    
   180   91  212 1    
   181   91  213 1    
   182   91  214 1    
   183   92   93 2    
   184   92   94 am   BACKBONE|DICT|INTERRES
   185   94   95 1    
   186   94  215 1    
   187   95   96 1    
   188   95   97 1    
   189   95  216 1    
   190   96  217 1    
   191   96  218 1    
   192   96  219 1    
   193   97   98 2    
   194   97   99 am   BACKBONE|DICT|INTERRES
   195   99  100 1    
   196   99  220 1    
   197  100  101 1    
   198  100  102 1    
   199  100  221 1    
   200  101  222 1    
   201  101  223 1    
   202  101  224 1    
   203  102  103 2    
   204  102  104 am   BACKBONE|DICT|INTERRES
   205  104  105 1    
   206  104  225 1    
   207  105  106 1    
   208  105  107 1    
   209  105  226 1    
   210  106  227 1    
   211  106  228 1    
   212  106  229 1    
   213  107  108 2    
   214  107  109 am   BACKBONE|DICT|INTERRES
   215  109  110 1    
   216  109  230 1    
   217  110  111 1    
   218  110  112 1    
   219  110  231 1    
   220  111  232 1    
   221  111  233 1    
   222  111  234 1    
   223  112  113 2    
   224  112  114 am   BACKBONE|DICT|INTERRES
   225  114  115 1    
   226  114  235 1    
   227  115  116 1    
   228  115  117 1    
   229  115  236 1    
   230  116  237 1    
   231  116  238 1    
   232  116  239 1    
   233  117  118 2    
   234  117  119 am   BACKBONE|DICT|INTERRES
   235  119  120 1    
   236  119  240 1    
   237  120  121 1    
   238  120  124 1    
   239  120  241 1    
   240  121  122 am   BACKBONE|DICT|INTERRES
   241  121  123 2    
   242  122  242 1    
   243  122  243 1    
   244  124  125 1    
   245  124  244 1    
   246  124  245 1    
   247  125  126 1    
   248  126  246 1    
   249  126  247 1    
@<TRIPOS>SUBSTRUCTURE
     1 UNK         1 GROUP             0       ****    0 ROOT    
