@<TRIPOS>MOLECULE
3R540
247   249    1
SMALL
USER_CHARGES


@<TRIPOS>ATOM
      1 CA          7.9308  -15.3680  -44.4164 C.3       0 UNK        -0.1800 
      2 C           6.4337  -15.2414  -44.6552 C.2       0 UNK         0.5000 
      3 O           5.7261  -14.6712  -43.8272 O.2       0 UNK        -0.5000 
      4 N           5.9458  -15.7510  -45.7930 N.am      1 UNK        -0.5000 
      5 CA          4.5310  -15.7376  -46.1921 C.3       1 UNK         0.1400 
      6 C6          4.2792  -16.6207  -47.4363 C.3       23 UNK        -0.0398 
      7 S7          5.2535  -16.1320  -48.9076 S.3       23 UNK        -0.2404 
      8 C8          3.9318  -15.6856  -50.0906 C.3       23 UNK        -0.0205 
      9 C9          2.9782  -16.8229  -50.4651 C.ar      23 UNK        -0.0193 
     10 C10         1.7139  -16.5083  -50.9724 C.ar      23 UNK        -0.1150 
     11 C11         0.8096  -17.5168  -51.3197 C.ar      23 UNK        -0.0193 
     12 C12         1.1622  -18.8551  -51.1245 C.ar      23 UNK        -0.1150 
     13 C13         2.4243  -19.1888  -50.6254 C.ar      23 UNK        -0.0193 
     14 C14         3.3332  -18.1701  -50.3286 C.ar      23 UNK        -0.1150 
     15 C15         2.8051  -20.6498  -50.4129 C.3       23 UNK        -0.0205 
     16 S16         3.5901  -20.9705  -48.7925 S.3       23 UNK        -0.2404 
     17 C17         2.3240  -20.3715  -47.6203 C.3       23 UNK        -0.0398 
     18 CA          1.4500  -21.5105  -47.0481 C.3       11 UNK         0.1400 
     19 N           0.7661  -21.1008  -45.8221 N.am      11 UNK        -0.5000 
     20 C           0.2053  -21.9484  -44.9493 C.2       10 UNK         0.5000 
     21 O           0.3009  -23.1732  -45.0264 O.2       10 UNK        -0.5000 
     22 CA         -0.6290  -21.3253  -43.8150 C.3       10 UNK         0.1400 
     23 CB          0.2646  -20.9787  -42.6149 C.3       10 UNK        -0.1800 
     24 N          -1.3703  -20.1348  -44.2374 N.am      10 UNK        -0.5000 
     25 C          -2.3383  -20.1333  -45.1656 C.2       9 UNK         0.5000 
     26 O          -2.7385  -21.1492  -45.7348 O.2       9 UNK        -0.5000 
     27 CA         -2.9319  -18.7656  -45.5523 C.3       9 UNK         0.1400 
     28 CB         -3.9984  -18.3315  -44.5366 C.3       9 UNK        -0.1800 
     29 N          -1.9232  -17.7129  -45.6918 N.am      9 UNK        -0.5000 
     30 C          -0.9140  -17.7276  -46.5756 C.2       8 UNK         0.5000 
     31 O          -0.7158  -18.6427  -47.3715 O.2       8 UNK        -0.5000 
     32 CA          0.0874  -16.5614  -46.5110 C.3       8 UNK         0.1400 
     33 CB         -0.5032  -15.2829  -47.1239 C.3       8 UNK        -0.1800 
     34 N           0.5337  -16.3057  -45.1418 N.am      8 UNK        -0.5000 
     35 C           1.2186  -17.1831  -44.3941 C.2       7 UNK         0.5000 
     36 O           1.6316  -18.2652  -44.8134 O.2       7 UNK        -0.5000 
     37 CA          1.4261  -16.8140  -42.9148 C.3       7 UNK         0.1400 
     38 CB          2.6582  -15.9149  -42.7271 C.3       7 UNK        -0.1800 
     39 N           0.2438  -16.1609  -42.3508 N.am      7 UNK        -0.5000 
     40 C          -0.9084  -16.7936  -42.0837 C.2       6 UNK         0.5000 
     41 O          -1.0796  -17.9989  -42.2591 O.2       6 UNK        -0.5000 
     42 CA         -2.0771  -15.9327  -41.5687 C.3       6 UNK         0.1400 
     43 CB         -1.9835  -15.7514  -40.0465 C.3       6 UNK        -0.1800 
     44 N          -2.1356  -14.6189  -42.2086 N.am      6 UNK        -0.5000 
     45 C          -2.3920  -14.4149  -43.5087 C.2       5 UNK         0.5000 
     46 O          -2.6755  -15.3152  -44.2967 O.2       5 UNK        -0.5000 
     47 CA         -2.2526  -12.9692  -44.0243 C.3       5 UNK         0.1400 
     48 CB         -3.5983  -12.2342  -43.9400 C.3       5 UNK        -0.1800 
     49 N          -1.2316  -12.2003  -43.3051 N.am      5 UNK        -0.5000 
     50 C           0.0711  -12.5099  -43.2838 C.2       4 UNK         0.5000 
     51 O           0.5572  -13.4667  -43.8908 O.2       4 UNK        -0.5000 
     52 CA          0.9565  -11.6629  -42.3653 C.3       4 UNK         0.1400 
     53 CB          0.8645  -12.1823  -40.9166 C.3       4 UNK        -0.1800 
     54 N           2.3358  -11.7284  -42.8348 N.am      4 UNK        -0.5000 
     55 C           3.3087  -10.8801  -42.4827 C.2       3 UNK         0.5000 
     56 O           3.1404   -9.9304  -41.7159 O.2       3 UNK        -0.5000 
     57 CA          4.7089  -11.1229  -43.0759 C.3       3 UNK         0.1400 
     58 CB          5.5594  -11.9532  -42.1028 C.3       3 UNK        -0.1800 
     59 N           4.6968  -11.7707  -44.3909 N.am      3 UNK        -0.5000 
     60 C           4.2866  -11.1715  -45.5206 C.2       2 UNK         0.5000 
     61 O           3.8175  -10.0328  -45.5469 O.2       2 UNK        -0.5000 
     62 CA          4.4495  -11.9353  -46.8515 C.3       2 UNK         0.1400 
     63 CB          5.5199  -11.2675  -47.7297 C.3       2 UNK        -0.1800 
     64 N           4.8088  -13.3412  -46.6800 N.am      2 UNK        -0.5000 
     65 C           3.9465  -14.3187  -46.3750 C.2       1 UNK         0.5000 
     66 O           2.7415  -14.1347  -46.2234 O.2       1 UNK        -0.5000 
     67 C           0.4402  -22.0383  -48.0880 C.2       11 UNK         0.5000 
     68 O           0.6325  -23.1297  -48.6248 O.2       11 UNK        -0.5000 
     69 N          -0.6297  -21.2665  -48.3317 N.am      12 UNK        -0.5000 
     70 CA         -1.6948  -21.5530  -49.2945 C.3       12 UNK         0.1400 
     71 CB         -2.7242  -20.4168  -49.2675 C.3       12 UNK        -0.1800 
     72 C          -2.3968  -22.9006  -49.0701 C.2       12 UNK         0.5000 
     73 O          -2.7525  -23.5626  -50.0440 O.2       12 UNK        -0.5000 
     74 N          -2.5327  -23.3092  -47.8009 N.am      13 UNK        -0.5000 
     75 CA         -3.0882  -24.5921  -47.3623 C.3       13 UNK         0.1400 
     76 CB         -3.0349  -24.6605  -45.8293 C.3       13 UNK        -0.1800 
     77 C          -2.4198  -25.8385  -47.9825 C.2       13 UNK         0.5000 
     78 O          -3.0660  -26.8839  -48.0592 O.2       13 UNK        -0.5000 
     79 N          -1.1758  -25.7082  -48.4711 N.am      14 UNK        -0.5000 
     80 CA         -0.4660  -26.7337  -49.2417 C.3       14 UNK         0.1400 
     81 CB          0.9824  -26.2795  -49.4745 C.3       14 UNK        -0.1800 
     82 C          -1.1416  -27.0846  -50.5861 C.2       14 UNK         0.5000 
     83 O          -0.9206  -28.1826  -51.0978 O.2       14 UNK        -0.5000 
     84 N          -1.9735  -26.1765  -51.1206 N.am      15 UNK        -0.5000 
     85 CA         -2.8032  -26.3987  -52.3080 C.3       15 UNK         0.1400 
     86 CB         -3.1620  -25.0379  -52.9313 C.3       15 UNK        -0.1800 
     87 C          -4.0830  -27.2108  -52.0121 C.2       15 UNK         0.5000 
     88 O          -4.8357  -27.4937  -52.9449 O.2       15 UNK        -0.5000 
     89 N          -4.3372  -27.5355  -50.7335 N.am      16 UNK        -0.5000 
     90 CA         -5.4753  -28.2709  -50.1632 C.3       16 UNK         0.1400 
     91 CB         -5.6155  -29.6780  -50.7744 C.3       16 UNK        -0.1800 
     92 C          -6.8058  -27.4968  -50.2117 C.2       16 UNK         0.5000 
     93 O          -7.4943  -27.4105  -49.1947 O.2       16 UNK        -0.5000 
     94 N          -7.1285  -26.9182  -51.3744 N.am      17 UNK        -0.5000 
     95 CA         -8.2748  -26.0331  -51.5877 C.3       17 UNK         0.1400 
     96 CB         -8.5243  -25.9032  -53.0983 C.3       17 UNK        -0.1800 
     97 C          -8.0747  -24.6391  -50.9622 C.2       17 UNK         0.5000 
     98 O          -9.0593  -23.9512  -50.6909 O.2       17 UNK        -0.5000 
     99 N          -6.8055  -24.2446  -50.7739 N.am      18 UNK        -0.5000 
    100 CA        -6.2863  -22.9832  -50.2305 C.3       18 UNK         0.1400 
    101 CB        -6.7349  -22.7558  -48.7764 C.3       18 UNK        -0.1800 
    102 C         -6.5669  -21.7518  -51.1084 C.2       18 UNK         0.5000 
    103 O         -5.6361  -21.0099  -51.4281 O.2       18 UNK        -0.5000 
    104 N         -7.8257  -21.5672  -51.5213 N.am      19 UNK        -0.5000 
    105 CA        -8.2981  -20.4863  -52.3925 C.3       19 UNK         0.1400 
    106 CB        -9.8306  -20.5480  -52.4708 C.3       19 UNK        -0.1800 
    107 C         -7.6829  -20.5178  -53.8060 C.2       19 UNK         0.5000 
    108 O         -7.6298  -19.4823  -54.4696 O.2       19 UNK        -0.5000 
    109 N         -7.2045  -21.6981  -54.2249 N.am      20 UNK        -0.5000 
    110 CA        -6.4461  -21.9187  -55.4562 C.3       20 UNK         0.1400 
    111 CB        -6.3056  -23.4325  -55.6816 C.3       20 UNK        -0.1800 
    112 C         -5.0579  -21.2449  -55.4466 C.2       20 UNK         0.5000 
    113 O         -4.5320  -20.9422  -56.5184 O.2       20 UNK        -0.5000 
    114 N         -4.4968  -21.0228  -54.2499 N.am      21 UNK        -0.5000 
    115 CA        -3.2512  -20.2969  -54.0327 C.3       21 UNK         0.1400 
    116 CB        -2.4123  -21.0258  -52.9679 C.3       21 UNK        -0.1800 
    117 C         -3.5772  -18.8436  -53.6527 C.2       21 UNK         0.5000 
    118 O         -3.4530  -17.9581  -54.4995 O.2       21 UNK        -0.5000 
    119 N         -4.0047  -18.6254  -52.4036 N.am      22 UNK        -0.5000 
    120 CA        -4.3836  -17.3100  -51.8576 C.3       22 UNK         0.1400 
    121 C         -5.2510  -17.3748  -50.5657 C.2       22 UNK         0.5000 
    122 N         -5.7478  -18.5296  -50.1407 N.am      22 UNK        -0.7600 
    123 O         -5.5115  -16.3487  -49.9434 O.2       22 UNK        -0.5000 
    124 C124       -3.1935  -16.3113  -51.7428 C.3       23 UNK        -0.0398 
    125 S125       -1.8129  -16.8778  -50.6868 S.3       23 UNK        -0.2404 
    126 C126       -0.5299  -17.1579  -51.9422 C.3       23 UNK        -0.0205 
    127 H127        8.1172  -15.9338  -43.5037 H         1 UNK         0.0600 
    128 H128        8.4315  -15.8757  -45.2410 H         1 UNK         0.0600 
    129 H129        8.3765  -14.3797  -44.3031 H         1 UNK         0.0600 
    130 H130        6.5754  -16.1899  -46.4505 H         1 UNK         0.3000 
    131 H131        3.9735  -16.1873  -45.3696 H         1 UNK         0.0600 
    132 H132        3.2162  -16.6339  -47.6790 H         1 UNK         0.0800 
    133 H133        4.5306  -17.6561  -47.2026 H         1 UNK         0.0800 
    134 H134        3.3645  -14.8536  -49.6699 H         1 UNK         0.0800 
    135 H135        4.3976  -15.3128  -51.0035 H         1 UNK         0.0800 
    136 H136        1.4337  -15.4729  -51.1085 H         1 UNK         0.1150 
    137 H137        0.4573  -19.6354  -51.3737 H         1 UNK         0.1150 
    138 H138        4.3136  -18.4409  -49.9659 H         1 UNK         0.1150 
    139 H139        1.9319  -21.2950  -50.5175 H         1 UNK         0.0800 
    140 H140        3.4988  -20.9453  -51.2008 H         1 UNK         0.0800 
    141 H141        1.7152  -19.5851  -48.0676 H         1 UNK         0.0800 
    142 H142        2.8653  -19.8873  -46.8062 H         1 UNK         0.0800 
    143 H143        2.1122  -22.3383  -46.7841 H         1 UNK         0.0600 
    144 H144        0.6637  -20.1049  -45.6675 H         1 UNK         0.3000 
    145 H145       -1.3568  -22.0729  -43.4930 H         1 UNK         0.0600 
    146 H146       -0.3286  -20.6282  -41.7703 H         1 UNK         0.0600 
    147 H147        0.8240  -21.8523  -42.2780 H         1 UNK         0.0600 
    148 H148        0.9871  -20.2008  -42.8632 H         1 UNK         0.0600 
    149 H149       -1.1419  -19.2659  -43.7637 H         1 UNK         0.3000 
    150 H150       -3.4214  -18.8754  -46.5208 H         1 UNK         0.0600 
    151 H151       -4.7737  -19.0918  -44.4351 H         1 UNK         0.0600 
    152 H152       -4.4874  -17.4086  -44.8490 H         1 UNK         0.0600 
    153 H153       -3.5693  -18.1652  -43.5485 H         1 UNK         0.0600 
    154 H154       -2.0377  -16.8978  -45.0945 H         1 UNK         0.3000 
    155 H155        0.9613  -16.8425  -47.1005 H         1 UNK         0.0600 
    156 H156       -1.4069  -14.9621  -46.6074 H         1 UNK         0.0600 
    157 H157       -0.7642  -15.4422  -48.1705 H         1 UNK         0.0600 
    158 H158        0.2107  -14.4603  -47.0897 H         1 UNK         0.0600 
    159 H159        0.2944  -15.4070  -44.7385 H         1 UNK         0.3000 
    160 H160        1.5992  -17.7384  -42.3598 H         1 UNK         0.0600 
    161 H161        2.7732  -15.6100  -41.6870 H         1 UNK         0.0600 
    162 H162        2.6060  -15.0127  -43.3365 H         1 UNK         0.0600 
    163 H163        3.5684  -16.4450  -43.0085 H         1 UNK         0.0600 
    164 H164        0.2857  -15.1572  -42.2530 H         1 UNK         0.3000 
    165 H165       -3.0057  -16.4610  -41.7938 H         1 UNK         0.0600 
    166 H166       -2.8467  -15.2089  -39.6603 H         1 UNK         0.0600 
    167 H167       -1.9549  -16.7171  -39.5401 H         1 UNK         0.0600 
    168 H168       -1.0854  -15.2030  -39.7592 H         1 UNK         0.0600 
    169 H169       -1.9233  -13.8199  -41.6305 H         1 UNK         0.3000 
    170 H170       -1.9553  -13.0211  -45.0737 H         1 UNK         0.0600 
    171 H171       -4.3726  -12.7749  -44.4861 H         1 UNK         0.0600 
    172 H172       -3.9368  -12.1288  -42.9085 H         1 UNK         0.0600 
    173 H173       -3.5314  -11.2373  -44.3760 H         1 UNK         0.0600 
    174 H174       -1.5582  -11.4062  -42.7732 H         1 UNK         0.3000 
    175 H175        0.6120  -10.6275  -42.4108 H         1 UNK         0.0600 
    176 H176        1.2298  -13.2069  -40.8345 H         1 UNK         0.0600 
    177 H177        1.4487  -11.5660  -40.2333 H         1 UNK         0.0600 
    178 H178       -0.1646  -12.1691  -40.5560 H         1 UNK         0.0600 
    179 H179        2.5223  -12.4654  -43.5041 H         1 UNK         0.3000 
    180 H180        5.1887  -10.1484  -43.1899 H         1 UNK         0.0600 
    181 H181        5.1067  -12.9253  -41.9036 H         1 UNK         0.0600 
    182 H182        5.6667  -11.4418  -41.1454 H         1 UNK         0.0600 
    183 H183        6.5623  -12.1225  -42.4956 H         1 UNK         0.0600 
    184 H184        5.0493  -12.7201  -44.4301 H         1 UNK         0.3000 
    185 H185        3.4945  -11.8776  -47.3784 H         1 UNK         0.0600 
    186 H186        5.2722  -10.2233  -47.9253 H         1 UNK         0.0600 
    187 H187        6.5011  -11.2886  -47.2538 H         1 UNK         0.0600 
    188 H188        5.6038  -11.7654  -48.6960 H         1 UNK         0.0600 
    189 H189        5.7840  -13.5796  -46.7865 H         1 UNK         0.3000 
    190 H190       -0.6926  -20.3627  -47.8644 H         1 UNK         0.3000 
    191 H191       -1.2349  -21.5824  -50.2836 H         1 UNK         0.0600 
    192 H192       -3.1908  -20.3229  -48.2887 H         1 UNK         0.0600 
    193 H193       -3.5238  -20.5900  -49.9835 H         1 UNK         0.0600 
    194 H194       -2.2639  -19.4623  -49.5142 H         1 UNK         0.0600 
    195 H195       -2.2644  -22.6616  -47.0670 H         1 UNK         0.3000 
    196 H196       -4.1357  -24.6078  -47.6684 H         1 UNK         0.0600 
    197 H197       -2.0089  -24.6161  -45.4628 H         1 UNK         0.0600 
    198 H198       -3.4760  -25.5879  -45.4620 H         1 UNK         0.0600 
    199 H199       -3.5882  -23.8370  -45.3775 H         1 UNK         0.0600 
    200 H200       -0.7132  -24.8091  -48.3914 H         1 UNK         0.3000 
    201 H201       -0.4453  -27.6439  -48.6392 H         1 UNK         0.0600 
    202 H202        1.0264  -25.3857  -50.0980 H         1 UNK         0.0600 
    203 H203        1.5602  -27.0571  -49.9757 H         1 UNK         0.0600 
    204 H204        1.4844  -26.0567  -48.5327 H         1 UNK         0.0600 
    205 H205       -2.1095  -25.2883  -50.6446 H         1 UNK         0.3000 
    206 H206       -2.2225  -26.9622  -53.0410 H         1 UNK         0.0600 
    207 H207       -2.2686  -24.4438  -53.1231 H         1 UNK         0.0600 
    208 H208       -3.6743  -25.1673  -53.8853 H         1 UNK         0.0600 
    209 H209       -3.8195  -24.4549  -52.2860 H         1 UNK         0.0600 
    210 H210       -3.6680  -27.2252  -50.0379 H         1 UNK         0.3000 
    211 H211       -5.2323  -28.4027  -49.1075 H         1 UNK         0.0600 
    212 H212       -5.8946  -29.6442  -51.8277 H         1 UNK         0.0600 
    213 H213       -6.3849  -30.2501  -50.2547 H         1 UNK         0.0600 
    214 H214       -4.6834  -30.2371  -50.6919 H         1 UNK         0.0600 
    215 H215       -6.4976  -27.0659  -52.1583 H         1 UNK         0.3000 
    216 H216       -9.1568  -26.4828  -51.1271 H         1 UNK         0.0600 
    217 H217       -9.3784  -25.2556  -53.3014 H         1 UNK         0.0600 
    218 H218       -8.7401  -26.8735  -53.5459 H         1 UNK         0.0600 
    219 H219       -7.6609  -25.4817  -53.6145 H         1 UNK         0.0600 
    220 H220       -6.0946  -24.9036  -51.0544 H         1 UNK         0.3000 
    221 H221       -5.2056  -23.1013  -50.2166 H         1 UNK         0.0600 
    222 H222       -7.8118  -22.6042  -48.6984 H         1 UNK         0.0600 
    223 H223       -6.4702  -23.6051  -48.1466 H         1 UNK         0.0600 
    224 H224       -6.2492  -21.8750  -48.3542 H         1 UNK         0.0600 
    225 H225       -8.5150  -22.2530  -51.2217 H         1 UNK         0.3000 
    226 H226       -8.0134  -19.5371  -51.9339 H         1 UNK         0.0600 
    227 H227      -10.2798  -20.4436  -51.4830 H         1 UNK         0.0600 
    228 H228      -10.2245  -19.7433  -53.0930 H         1 UNK         0.0600 
    229 H229      -10.1727  -21.4921  -52.8968 H         1 UNK         0.0600 
    230 H230       -7.3142  -22.4924  -53.6134 H         1 UNK         0.3000 
    231 H231       -7.0146  -21.4958  -56.2871 H         1 UNK         0.0600 
    232 H232       -7.2812  -23.9115  -55.7664 H         1 UNK         0.0600 
    233 H233       -5.7643  -23.9129  -54.8656 H         1 UNK         0.0600 
    234 H234       -5.7616  -23.6415  -56.6038 H         1 UNK         0.0600 
    235 H235       -5.0270  -21.2466  -53.4167 H         1 UNK         0.3000 
    236 H236       -2.6581  -20.2672  -54.9492 H         1 UNK         0.0600 
    237 H237       -3.0063  -21.3055  -52.0999 H         1 UNK         0.0600 
    238 H238       -1.9880  -21.9433  -53.3752 H         1 UNK         0.0600 
    239 H239       -1.5807  -20.4097  -52.6249 H         1 UNK         0.0600 
    240 H240       -4.1177  -19.4112  -51.7793 H         1 UNK         0.3000 
    241 H241       -5.0717  -16.8802  -52.5877 H         1 UNK         0.0600 
    242 H242       -6.3091  -18.5237  -49.3049 H         1 UNK         0.3800 
    243 H243       -5.6366  -19.3958  -50.6581 H         1 UNK         0.3800 
    244 H244       -2.8139  -16.0818  -52.7383 H         1 UNK         0.0800 
    245 H245       -3.5377  -15.3511  -51.3557 H         1 UNK         0.0800 
    246 H246       -0.8525  -17.9498  -52.6188 H         1 UNK         0.0800 
    247 H247       -0.4177  -16.2606  -52.5527 H         1 UNK         0.0800 
@<TRIPOS>BOND
     1    1    2 1    
     2    1  127 1    
     3    1  128 1    
     4    1  129 1    
     5    2    3 2    
     6    2    4 am   BACKBONE|DICT|INTERRES
     7    4    5 1    
     8    4  130 1    
     9    5    6 1    
    10    5   65 1    
    11    5  131 1    
    12    6    7 1    
    13    6  132 1    
    14    6  133 1    
    15    7    8 1    
    16    8    9 1    
    17    8  134 1    
    18    8  135 1    
    19    9   10 ar   
    20    9   14 ar   
    21   10   11 ar   
    22   10  136 1    
    23   11   12 ar   
    24   11  126 1    
    25   12   13 ar   
    26   12  137 1    
    27   13   14 ar   
    28   13   15 1    
    29   14  138 1    
    30   15   16 1    
    31   15  139 1    
    32   15  140 1    
    33   16   17 1    
    34   17   18 1    
    35   17  141 1    
    36   17  142 1    
    37   18   19 1    
    38   18   67 1    
    39   18  143 1    
    40   19   20 am   BACKBONE|DICT|INTERRES
    41   19  144 1    
    42   20   21 2    
    43   20   22 1    
    44   22   23 1    
    45   22   24 1    
    46   22  145 1    
    47   23  146 1    
    48   23  147 1    
    49   23  148 1    
    50   24   25 am   BACKBONE|DICT|INTERRES
    51   24  149 1    
    52   25   26 2    
    53   25   27 1    
    54   27   28 1    
    55   27   29 1    
    56   27  150 1    
    57   28  151 1    
    58   28  152 1    
    59   28  153 1    
    60   29   30 am   BACKBONE|DICT|INTERRES
    61   29  154 1    
    62   30   31 2    
    63   30   32 1    
    64   32   33 1    
    65   32   34 1    
    66   32  155 1    
    67   33  156 1    
    68   33  157 1    
    69   33  158 1    
    70   34   35 am   BACKBONE|DICT|INTERRES
    71   34  159 1    
    72   35   36 2    
    73   35   37 1    
    74   37   38 1    
    75   37   39 1    
    76   37  160 1    
    77   38  161 1    
    78   38  162 1    
    79   38  163 1    
    80   39   40 am   BACKBONE|DICT|INTERRES
    81   39  164 1    
    82   40   41 2    
    83   40   42 1    
    84   42   43 1    
    85   42   44 1    
    86   42  165 1    
    87   43  166 1    
    88   43  167 1    
    89   43  168 1    
    90   44   45 am   BACKBONE|DICT|INTERRES
    91   44  169 1    
    92   45   46 2    
    93   45   47 1    
    94   47   48 1    
    95   47   49 1    
    96   47  170 1    
    97   48  171 1    
    98   48  172 1    
    99   48  173 1    
   100   49   50 am   BACKBONE|DICT|INTERRES
   101   49  174 1    
   102   50   51 2    
   103   50   52 1    
   104   52   53 1    
   105   52   54 1    
   106   52  175 1    
   107   53  176 1    
   108   53  177 1    
   109   53  178 1    
   110   54   55 am   BACKBONE|DICT|INTERRES
   111   54  179 1    
   112   55   56 2    
   113   55   57 1    
   114   57   58 1    
   115   57   59 1    
   116   57  180 1    
   117   58  181 1    
   118   58  182 1    
   119   58  183 1    
   120   59   60 am   BACKBONE|DICT|INTERRES
   121   59  184 1    
   122   60   61 2    
   123   60   62 1    
   124   62   63 1    
   125   62   64 1    
   126   62  185 1    
   127   63  186 1    
   128   63  187 1    
   129   63  188 1    
   130   64   65 am   BACKBONE|DICT|INTERRES
   131   64  189 1    
   132   65   66 2    
   133   67   68 2    
   134   67   69 am   BACKBONE|DICT|INTERRES
   135   69   70 1    
   136   69  190 1    
   137   70   71 1    
   138   70   72 1    
   139   70  191 1    
   140   71  192 1    
   141   71  193 1    
   142   71  194 1    
   143   72   73 2    
   144   72   74 am   BACKBONE|DICT|INTERRES
   145   74   75 1    
   146   74  195 1    
   147   75   76 1    
   148   75   77 1    
   149   75  196 1    
   150   76  197 1    
   151   76  198 1    
   152   76  199 1    
   153   77   78 2    
   154   77   79 am   BACKBONE|DICT|INTERRES
   155   79   80 1    
   156   79  200 1    
   157   80   81 1    
   158   80   82 1    
   159   80  201 1    
   160   81  202 1    
   161   81  203 1    
   162   81  204 1    
   163   82   83 2    
   164   82   84 am   BACKBONE|DICT|INTERRES
   165   84   85 1    
   166   84  205 1    
   167   85   86 1    
   168   85   87 1    
   169   85  206 1    
   170   86  207 1    
   171   86  208 1    
   172   86  209 1    
   173   87   88 2    
   174   87   89 am   BACKBONE|DICT|INTERRES
   175   89   90 1    
   176   89  210 1    
   177   90   91 1    
   178   90   92 1    
   179   90  211 1    
   180   91  212 1    
   181   91  213 1    
   182   91  214 1    
   183   92   93 2    
   184   92   94 am   BACKBONE|DICT|INTERRES
   185   94   95 1    
   186   94  215 1    
   187   95   96 1    
   188   95   97 1    
   189   95  216 1    
   190   96  217 1    
   191   96  218 1    
   192   96  219 1    
   193   97   98 2    
   194   97   99 am   BACKBONE|DICT|INTERRES
   195   99  100 1    
   196   99  220 1    
   197  100  101 1    
   198  100  102 1    
   199  100  221 1    
   200  101  222 1    
   201  101  223 1    
   202  101  224 1    
   203  102  103 2    
   204  102  104 am   BACKBONE|DICT|INTERRES
   205  104  105 1    
   206  104  225 1    
   207  105  106 1    
   208  105  107 1    
   209  105  226 1    
   210  106  227 1    
   211  106  228 1    
   212  106  229 1    
   213  107  108 2    
   214  107  109 am   BACKBONE|DICT|INTERRES
   215  109  110 1    
   216  109  230 1    
   217  110  111 1    
   218  110  112 1    
   219  110  231 1    
   220  111  232 1    
   221  111  233 1    
   222  111  234 1    
   223  112  113 2    
   224  112  114 am   BACKBONE|DICT|INTERRES
   225  114  115 1    
   226  114  235 1    
   227  115  116 1    
   228  115  117 1    
   229  115  236 1    
   230  116  237 1    
   231  116  238 1    
   232  116  239 1    
   233  117  118 2    
   234  117  119 am   BACKBONE|DICT|INTERRES
   235  119  120 1    
   236  119  240 1    
   237  120  121 1    
   238  120  124 1    
   239  120  241 1    
   240  121  122 am   BACKBONE|DICT|INTERRES
   241  121  123 2    
   242  122  242 1    
   243  122  243 1    
   244  124  125 1    
   245  124  244 1    
   246  124  245 1    
   247  125  126 1    
   248  126  246 1    
   249  126  247 1    
@<TRIPOS>SUBSTRUCTURE
     1 UNK         1 GROUP             0       ****    0 ROOT    
