@<TRIPOS>MOLECULE
3R540
247   249    1
SMALL
USER_CHARGES


@<TRIPOS>ATOM
      1 CA          2.2338  -11.1306  -54.1471 C.3       0 UNK        -0.1800 
      2 C           3.3225  -11.5926  -53.1885 C.2       0 UNK         0.5000 
      3 O           4.4521  -11.1081  -53.2626 O.2       0 UNK        -0.5000 
      4 N           2.9882  -12.5212  -52.2898 N.am      1 UNK        -0.5000 
      5 CA          3.8747  -13.0927  -51.2785 C.3       1 UNK         0.1400 
      6 C6          4.9131  -14.0903  -51.8687 C.3       23 UNK        -0.0398 
      7 S7          4.1791  -15.5166  -52.7467 S.3       23 UNK        -0.2404 
      8 C8          4.4562  -16.8601  -51.5373 C.3       23 UNK        -0.0205 
      9 C9          3.6003  -18.1163  -51.7211 C.ar      23 UNK        -0.0193 
     10 C10         2.6906  -18.2763  -52.7739 C.ar      23 UNK        -0.1150 
     11 C11         1.9069  -19.4283  -52.8797 C.ar      23 UNK        -0.0193 
     12 C12         2.0518  -20.4491  -51.9349 C.ar      23 UNK        -0.1150 
     13 C13         2.9630  -20.3128  -50.8829 C.ar      23 UNK        -0.0193 
     14 C14         3.7285  -19.1464  -50.7844 C.ar      23 UNK        -0.1150 
     15 C15         3.1529  -21.4275  -49.8631 C.3       23 UNK        -0.0205 
     16 S16         2.4096  -21.0151  -48.2512 S.3       23 UNK        -0.2404 
     17 C17         0.6725  -21.5194  -48.4827 C.3       23 UNK        -0.0398 
     18 CA          0.2582  -22.6217  -47.4763 C.3       11 UNK         0.1400 
     19 N           0.1801  -22.1324  -46.0938 N.am      11 UNK        -0.5000 
     20 C          -0.0299  -22.9090  -45.0195 C.2       10 UNK         0.5000 
     21 O          -0.1009  -24.1360  -45.0697 O.2       10 UNK        -0.5000 
     22 CA         -0.2786  -22.1978  -43.6759 C.3       10 UNK         0.1400 
     23 CB          1.0407  -21.7703  -43.0170 C.3       10 UNK        -0.1800 
     24 N          -1.1722  -21.0467  -43.8213 N.am      10 UNK        -0.5000 
     25 C          -2.4594  -21.1370  -44.1873 C.2       9 UNK         0.5000 
     26 O          -3.0400  -22.2072  -44.3581 O.2       9 UNK        -0.5000 
     27 CA         -3.2148  -19.8249  -44.4563 C.3       9 UNK         0.1400 
     28 CB         -3.8960  -19.3063  -43.1813 C.3       9 UNK        -0.1800 
     29 N          -2.3293  -18.7970  -44.9952 N.am      9 UNK        -0.5000 
     30 C          -1.9000  -18.7535  -46.2642 C.2       8 UNK         0.5000 
     31 O          -2.2599  -19.5414  -47.1421 O.2       8 UNK        -0.5000 
     32 CA         -0.8682  -17.6595  -46.5936 C.3       8 UNK         0.1400 
     33 CB         -1.5829  -16.3511  -46.9503 C.3       8 UNK        -0.1800 
     34 N           0.0717  -17.4139  -45.4982 N.am      8 UNK        -0.5000 
     35 C           0.9709  -18.3132  -45.0781 C.2       7 UNK         0.5000 
     36 O           1.0908  -19.4317  -45.5736 O.2       7 UNK        -0.5000 
     37 CA          1.8508  -17.9309  -43.8735 C.3       7 UNK         0.1400 
     38 CB          3.1343  -17.2288  -44.3381 C.3       7 UNK        -0.1800 
     39 N           1.1873  -17.1078  -42.8592 N.am      7 UNK        -0.5000 
     40 C           0.0526  -17.4219  -42.2201 C.2       6 UNK         0.5000 
     41 O          -0.6376  -18.4033  -42.4957 O.2       6 UNK        -0.5000 
     42 CA         -0.3775  -16.4996  -41.0729 C.3       6 UNK         0.1400 
     43 CB          0.8043  -15.8638  -40.3125 C.3       6 UNK        -0.1800 
     44 N          -1.2637  -15.4496  -41.5688 N.am      6 UNK        -0.5000 
     45 C          -2.3202  -14.9834  -40.8876 C.2       5 UNK         0.5000 
     46 O          -2.6955  -15.4614  -39.8155 O.2       5 UNK        -0.5000 
     47 CA         -3.0767  -13.7632  -41.4505 C.3       5 UNK         0.1400 
     48 CB         -2.9969  -12.5817  -40.4687 C.3       5 UNK        -0.1800 
     49 N          -2.5747  -13.3091  -42.7462 N.am      5 UNK        -0.5000 
     50 C          -3.0345  -13.7192  -43.9337 C.2       4 UNK         0.5000 
     51 O          -3.9161  -14.5664  -44.0753 O.2       4 UNK        -0.5000 
     52 CA         -2.3931  -13.0681  -45.1749 C.3       4 UNK         0.1400 
     53 CB         -3.1771  -11.8098  -45.5778 C.3       4 UNK        -0.1800 
     54 N          -0.9777  -12.7158  -45.0165 N.am      4 UNK        -0.5000 
     55 C           0.0092  -13.5681  -44.7127 C.2       3 UNK         0.5000 
     56 O          -0.1635  -14.7562  -44.4282 O.2       3 UNK        -0.5000 
     57 CA          1.4352  -12.9973  -44.7086 C.3       3 UNK         0.1400 
     58 CB          2.0537  -13.0935  -43.3055 C.3       3 UNK        -0.1800 
     59 N           2.2706  -13.7355  -45.6520 N.am      3 UNK        -0.5000 
     60 C           2.2263  -13.5944  -46.9823 C.2       2 UNK         0.5000 
     61 O           1.5388  -12.7434  -47.5498 O.2       2 UNK        -0.5000 
     62 CA          3.1059  -14.5765  -47.7834 C.3       2 UNK         0.1400 
     63 CB          2.3733  -15.9113  -48.0329 C.3       2 UNK        -0.1800 
     64 N           3.6482  -14.0072  -49.0242 N.am      2 UNK        -0.5000 
     65 C           3.0066  -13.7123  -50.1652 C.2       1 UNK         0.5000 
     66 O           1.8063  -13.9143  -50.3739 O.2       1 UNK        -0.5000 
     67 C          -1.0570  -23.2966  -47.9151 C.2       11 UNK         0.5000 
     68 O          -1.0097  -24.3468  -48.5564 O.2       11 UNK        -0.5000 
     69 N          -2.2033  -22.7139  -47.5342 N.am      12 UNK        -0.5000 
     70 CA         -3.5284  -23.2778  -47.7896 C.3       12 UNK         0.1400 
     71 CB         -4.6119  -22.2461  -47.4508 C.3       12 UNK        -0.1800 
     72 C          -3.7614  -24.6062  -47.0474 C.2       12 UNK         0.5000 
     73 O          -4.2214  -25.5686  -47.6610 O.2       12 UNK        -0.5000 
     74 N          -3.3913  -24.6550  -45.7601 N.am      13 UNK        -0.5000 
     75 CA         -3.4546  -25.8481  -44.9108 C.3       13 UNK         0.1400 
     76 CB         -3.1207  -25.4613  -43.4624 C.3       13 UNK        -0.1800 
     77 C          -2.5369  -26.9877  -45.3955 C.2       13 UNK         0.5000 
     78 O          -2.9142  -28.1558  -45.2997 O.2       13 UNK        -0.5000 
     79 N          -1.3692  -26.6258  -45.9432 N.am      14 UNK        -0.5000 
     80 CA         -0.4142  -27.5357  -46.5790 C.3       14 UNK         0.1400 
     81 CB          0.9514  -26.8338  -46.6618 C.3       14 UNK        -0.1800 
     82 C          -0.8523  -28.0207  -47.9780 C.2       14 UNK         0.5000 
     83 O          -0.1895  -28.8956  -48.5369 O.2       14 UNK        -0.5000 
     84 N          -1.9311  -27.4393  -48.5265 N.am      15 UNK        -0.5000 
     85 CA         -2.4817  -27.6560  -49.8694 C.3       15 UNK         0.1400 
     86 CB         -2.9727  -29.1079  -50.0479 C.3       15 UNK        -0.1800 
     87 C          -1.5347  -27.1914  -50.9973 C.2       15 UNK         0.5000 
     88 O          -1.6075  -27.7007  -52.1169 O.2       15 UNK        -0.5000 
     89 N          -0.6813  -26.2076  -50.6877 N.am      16 UNK        -0.5000 
     90 CA          0.2099  -25.5244  -51.6254 C.3       16 UNK         0.1400 
     91 CB          1.5093  -25.1677  -50.8836 C.3       16 UNK        -0.1800 
     92 C          -0.4432  -24.2564  -52.2118 C.2       16 UNK         0.5000 
     93 O           0.1424  -23.6246  -53.0916 O.2       16 UNK        -0.5000 
     94 N          -1.6281  -23.8978  -51.7067 N.am      17 UNK        -0.5000 
     95 CA         -2.3987  -22.7140  -52.0535 C.3       17 UNK         0.1400 
     96 CB         -1.8532  -21.5143  -51.2604 C.3       17 UNK        -0.1800 
     97 C          -3.8794  -22.9547  -51.7214 C.2       17 UNK         0.5000 
     98 O          -4.2516  -24.0509  -51.2935 O.2       17 UNK        -0.5000 
     99 N          -4.6801  -21.8976  -51.8743 N.am      18 UNK        -0.5000 
    100 CA        -6.0095  -21.7484  -51.2974 C.3       18 UNK         0.1400 
    101 CB        -7.0466  -21.6291  -52.4245 C.3       18 UNK        -0.1800 
    102 C         -5.9818  -20.4676  -50.4523 C.2       18 UNK         0.5000 
    103 O         -5.2569  -19.5289  -50.7974 O.2       18 UNK        -0.5000 
    104 N         -6.7761  -20.4303  -49.3756 N.am      19 UNK        -0.5000 
    105 CA        -6.8207  -19.3139  -48.4217 C.3       19 UNK         0.1400 
    106 CB        -7.6114  -19.7460  -47.1776 C.3       19 UNK        -0.1800 
    107 C         -7.4013  -18.0144  -49.0148 C.2       19 UNK         0.5000 
    108 O         -7.0774  -16.9279  -48.5358 O.2       19 UNK        -0.5000 
    109 N         -8.2259  -18.1511  -50.0616 N.am      20 UNK        -0.5000 
    110 CA        -8.7548  -17.0476  -50.8649 C.3       20 UNK         0.1400 
    111 CB       -10.0406  -17.5248  -51.5594 C.3       20 UNK        -0.1800 
    112 C         -7.7433  -16.5196  -51.9056 C.2       20 UNK         0.5000 
    113 O         -7.9925  -15.4710  -52.5025 O.2       20 UNK        -0.5000 
    114 N         -6.6441  -17.2537  -52.1207 N.am      21 UNK        -0.5000 
    115 CA        -5.5653  -16.9320  -53.0463 C.3       21 UNK         0.1400 
    116 CB        -5.4144  -18.0944  -54.0508 C.3       21 UNK        -0.1800 
    117 C         -4.2916  -16.6275  -52.2341 C.2       21 UNK         0.5000 
    118 O         -4.3271  -15.7604  -51.3591 O.2       21 UNK        -0.5000 
    119 N         -3.1897  -17.3188  -52.5448 N.am      22 UNK        -0.5000 
    120 CA        -1.8663  -17.1469  -51.9278 C.3       22 UNK         0.1400 
    121 C         -1.6725  -17.8226  -50.5353 C.2       22 UNK         0.5000 
    122 N         -2.6672  -18.4814  -49.9492 N.am      22 UNK        -0.7600 
    123 O         -0.5924  -17.7283  -49.9636 O.2       22 UNK        -0.5000 
    124 C124       -0.7336  -17.4923  -52.9323 C.3       23 UNK        -0.0398 
    125 S125       -0.8009  -19.2102  -53.5601 S.3       23 UNK        -0.2404 
    126 C126        0.9233  -19.5655  -54.0347 C.3       23 UNK        -0.0205 
    127 H127        2.5333  -11.3257  -55.1768 H         1 UNK         0.0600 
    128 H128        2.0657  -10.0593  -54.0365 H         1 UNK         0.0600 
    129 H129        1.2893  -11.6440  -53.9648 H         1 UNK         0.0600 
    130 H130        2.0403  -12.8743  -52.2303 H         1 UNK         0.3000 
    131 H131        4.4206  -12.2659  -50.8188 H         1 UNK         0.0600 
    132 H132        5.5541  -13.5659  -52.5781 H         1 UNK         0.0800 
    133 H133        5.5891  -14.4465  -51.0902 H         1 UNK         0.0800 
    134 H134        5.5095  -17.1422  -51.5708 H         1 UNK         0.0800 
    135 H135        4.2714  -16.4717  -50.5364 H         1 UNK         0.0800 
    136 H136        2.5678  -17.5030  -53.5169 H         1 UNK         0.1150 
    137 H137        1.4607  -21.3492  -52.0255 H         1 UNK         0.1150 
    138 H138        4.4282  -19.0407  -49.9669 H         1 UNK         0.1150 
    139 H139        2.7521  -22.3718  -50.2335 H         1 UNK         0.0800 
    140 H140        4.2214  -21.5930  -49.7181 H         1 UNK         0.0800 
    141 H141        0.5476  -21.8677  -49.5087 H         1 UNK         0.0800 
    142 H142        0.0354  -20.6385  -48.3826 H         1 UNK         0.0800 
    143 H143        1.0241  -23.3999  -47.4979 H         1 UNK         0.0600 
    144 H144        0.3108  -21.1328  -45.9578 H         1 UNK         0.3000 
    145 H145       -0.7683  -22.9090  -43.0075 H         1 UNK         0.0600 
    146 H146        0.8642  -21.2083  -42.0996 H         1 UNK         0.0600 
    147 H147        1.6391  -22.6436  -42.7553 H         1 UNK         0.0600 
    148 H148        1.6460  -21.1544  -43.6802 H         1 UNK         0.0600 
    149 H149       -0.7821  -20.1277  -43.6469 H         1 UNK         0.3000 
    150 H150       -3.9945  -20.0304  -45.1926 H         1 UNK         0.0600 
    151 H151       -4.4490  -18.3872  -43.3760 H         1 UNK         0.0600 
    152 H152       -3.1768  -19.1026  -42.3880 H         1 UNK         0.0600 
    153 H153       -4.6068  -20.0388  -42.7970 H         1 UNK         0.0600 
    154 H154       -1.9243  -18.1566  -44.3249 H         1 UNK         0.3000 
    155 H155       -0.2885  -17.9928  -47.4550 H         1 UNK         0.0600 
    156 H156       -2.2417  -16.4841  -47.8088 H         1 UNK         0.0600 
    157 H157       -2.1960  -16.0063  -46.1183 H         1 UNK         0.0600 
    158 H158       -0.8712  -15.5648  -47.2031 H         1 UNK         0.0600 
    159 H159        0.0159  -16.5099  -45.0342 H         1 UNK         0.3000 
    160 H160        2.1420  -18.8608  -43.3827 H         1 UNK         0.0600 
    161 H161        3.8303  -17.0904  -43.5106 H         1 UNK         0.0600 
    162 H162        2.9214  -16.2510  -44.7647 H         1 UNK         0.0600 
    163 H163        3.6490  -17.8163  -45.0999 H         1 UNK         0.0600 
    164 H164        1.6742  -16.2723  -42.5745 H         1 UNK         0.3000 
    165 H165       -0.9138  -17.1422  -40.3713 H         1 UNK         0.0600 
    166 H166        0.4588  -15.3737  -39.4021 H         1 UNK         0.0600 
    167 H167        1.5336  -16.6180  -40.0134 H         1 UNK         0.0600 
    168 H168        1.3223  -15.1134  -40.9094 H         1 UNK         0.0600 
    169 H169       -1.0420  -15.0623  -42.4792 H         1 UNK         0.3000 
    170 H170       -4.1260  -14.0504  -41.5457 H         1 UNK         0.0600 
    171 H171       -1.9670  -12.2600  -40.3091 H         1 UNK         0.0600 
    172 H172       -3.5635  -11.7254  -40.8353 H         1 UNK         0.0600 
    173 H173       -3.4119  -12.8484  -39.4958 H         1 UNK         0.0600 
    174 H174       -1.8408  -12.6162  -42.7301 H         1 UNK         0.3000 
    175 H175       -2.4654  -13.7774  -45.9988 H         1 UNK         0.0600 
    176 H176       -2.8006  -11.3918  -46.5117 H         1 UNK         0.0600 
    177 H177       -3.1158  -11.0346  -44.8129 H         1 UNK         0.0600 
    178 H178       -4.2330  -12.0385  -45.7295 H         1 UNK         0.0600 
    179 H179       -0.7360  -11.7602  -45.2363 H         1 UNK         0.3000 
    180 H180        1.4084  -11.9452  -45.0004 H         1 UNK         0.0600 
    181 H181        2.1656  -14.1284  -42.9830 H         1 UNK         0.0600 
    182 H182        1.4338  -12.5831  -42.5672 H         1 UNK         0.0600 
    183 H183        3.0393  -12.6283  -43.2787 H         1 UNK         0.0600 
    184 H184        2.8545  -14.4551  -45.2550 H         1 UNK         0.3000 
    185 H185        3.9801  -14.7983  -47.1691 H         1 UNK         0.0600 
    186 H186        2.0975  -16.3817  -47.0914 H         1 UNK         0.0600 
    187 H187        1.4528  -15.7799  -48.6023 H         1 UNK         0.0600 
    188 H188        3.0016  -16.6211  -48.5692 H         1 UNK         0.0600 
    189 H189        4.6263  -13.7603  -48.9669 H         1 UNK         0.3000 
    190 H190       -2.1669  -21.8363  -47.0319 H         1 UNK         0.3000 
    191 H191       -3.5896  -23.4854  -48.8567 H         1 UNK         0.0600 
    192 H192       -4.4162  -21.2953  -47.9460 H         1 UNK         0.0600 
    193 H193       -5.5910  -22.5957  -47.7788 H         1 UNK         0.0600 
    194 H194       -4.6789  -22.0570  -46.3807 H         1 UNK         0.0600 
    195 H195       -3.0698  -23.7988  -45.3137 H         1 UNK         0.3000 
    196 H196       -4.4815  -26.2181  -44.9363 H         1 UNK         0.0600 
    197 H197       -3.1922  -26.3251  -42.8003 H         1 UNK         0.0600 
    198 H198       -3.8107  -24.7052  -43.0872 H         1 UNK         0.0600 
    199 H199       -2.1095  -25.0631  -43.3757 H         1 UNK         0.0600 
    200 H200       -1.1021  -25.6466  -45.9074 H         1 UNK         0.3000 
    201 H201       -0.3057  -28.4195  -45.9473 H         1 UNK         0.0600 
    202 H202        1.3007  -26.5321  -45.6742 H         1 UNK         0.0600 
    203 H203        0.9067  -25.9423  -47.2881 H         1 UNK         0.0600 
    204 H204        1.7092  -27.4940  -47.0852 H         1 UNK         0.0600 
    205 H205       -2.4072  -26.7285  -47.9840 H         1 UNK         0.3000 
    206 H206       -3.3571  -27.0084  -49.9365 H         1 UNK         0.0600 
    207 H207       -3.6343  -29.4027  -49.2334 H         1 UNK         0.0600 
    208 H208       -3.5343  -29.2182  -50.9762 H         1 UNK         0.0600 
    209 H209       -2.1453  -29.8167  -50.0831 H         1 UNK         0.0600 
    210 H210       -0.7317  -25.7989  -49.7576 H         1 UNK         0.3000 
    211 H211        0.4576  -26.1874  -52.4567 H         1 UNK         0.0600 
    212 H212        1.3247  -24.4863  -50.0527 H         1 UNK         0.0600 
    213 H213        2.2234  -24.6856  -51.5523 H         1 UNK         0.0600 
    214 H214        1.9907  -26.0599  -50.4828 H         1 UNK         0.0600 
    215 H215       -2.0688  -24.4981  -51.0223 H         1 UNK         0.3000 
    216 H216       -2.3143  -22.5221  -53.1250 H         1 UNK         0.0600 
    217 H217       -2.3525  -20.5957  -51.5604 H         1 UNK         0.0600 
    218 H218       -0.7893  -21.3672  -51.4349 H         1 UNK         0.0600 
    219 H219       -2.0066  -21.6294  -50.1881 H         1 UNK         0.0600 
    220 H220       -4.2677  -21.0216  -52.1656 H         1 UNK         0.3000 
    221 H221       -6.2570  -22.5962  -50.6550 H         1 UNK         0.0600 
    222 H222       -7.0413  -22.5177  -53.0559 H         1 UNK         0.0600 
    223 H223       -8.0540  -21.5236  -52.0203 H         1 UNK         0.0600 
    224 H224       -6.8560  -20.7656  -53.0628 H         1 UNK         0.0600 
    225 H225       -7.3626  -21.2249  -49.1642 H         1 UNK         0.3000 
    226 H226       -5.7957  -19.0962  -48.1123 H         1 UNK         0.0600 
    227 H227       -7.1525  -20.6109  -46.6984 H         1 UNK         0.0600 
    228 H228       -7.6420  -18.9457  -46.4369 H         1 UNK         0.0600 
    229 H229       -8.6416  -20.0043  -47.4252 H         1 UNK         0.0600 
    230 H230       -8.4474  -19.0845  -50.3749 H         1 UNK         0.3000 
    231 H231       -9.0110  -16.2169  -50.2039 H         1 UNK         0.0600 
    232 H232       -9.8457  -18.3535  -52.2414 H         1 UNK         0.0600 
    233 H233      -10.4935  -16.7208  -52.1409 H         1 UNK         0.0600 
    234 H234      -10.7828  -17.8547  -50.8322 H         1 UNK         0.0600 
    235 H235       -6.4701  -18.0557  -51.5268 H         1 UNK         0.3000 
    236 H236       -5.7992  -16.0282  -53.6120 H         1 UNK         0.0600 
    237 H237       -6.3505  -18.2720  -54.5807 H         1 UNK         0.0600 
    238 H238       -4.6603  -17.8710  -54.8065 H         1 UNK         0.0600 
    239 H239       -5.1348  -19.0268  -53.5594 H         1 UNK         0.0600 
    240 H240       -3.2446  -18.0307  -53.2578 H         1 UNK         0.3000 
    241 H241       -1.7571  -16.0814  -51.7168 H         1 UNK         0.0600 
    242 H242       -2.5074  -18.9004  -49.0415 H         1 UNK         0.3800 
    243 H243       -3.5679  -18.5977  -50.3988 H         1 UNK         0.3800 
    244 H244       -0.7898  -16.8219  -53.7906 H         1 UNK         0.0800 
    245 H245        0.2326  -17.2928  -52.4717 H         1 UNK         0.0800 
    246 H246        1.2063  -18.9094  -54.8592 H         1 UNK         0.0800 
    247 H247        0.9721  -20.5823  -54.4273 H         1 UNK         0.0800 
@<TRIPOS>BOND
     1    1    2 1    
     2    1  127 1    
     3    1  128 1    
     4    1  129 1    
     5    2    3 2    
     6    2    4 am   BACKBONE|DICT|INTERRES
     7    4    5 1    
     8    4  130 1    
     9    5    6 1    
    10    5   65 1    
    11    5  131 1    
    12    6    7 1    
    13    6  132 1    
    14    6  133 1    
    15    7    8 1    
    16    8    9 1    
    17    8  134 1    
    18    8  135 1    
    19    9   10 ar   
    20    9   14 ar   
    21   10   11 ar   
    22   10  136 1    
    23   11   12 ar   
    24   11  126 1    
    25   12   13 ar   
    26   12  137 1    
    27   13   14 ar   
    28   13   15 1    
    29   14  138 1    
    30   15   16 1    
    31   15  139 1    
    32   15  140 1    
    33   16   17 1    
    34   17   18 1    
    35   17  141 1    
    36   17  142 1    
    37   18   19 1    
    38   18   67 1    
    39   18  143 1    
    40   19   20 am   BACKBONE|DICT|INTERRES
    41   19  144 1    
    42   20   21 2    
    43   20   22 1    
    44   22   23 1    
    45   22   24 1    
    46   22  145 1    
    47   23  146 1    
    48   23  147 1    
    49   23  148 1    
    50   24   25 am   BACKBONE|DICT|INTERRES
    51   24  149 1    
    52   25   26 2    
    53   25   27 1    
    54   27   28 1    
    55   27   29 1    
    56   27  150 1    
    57   28  151 1    
    58   28  152 1    
    59   28  153 1    
    60   29   30 am   BACKBONE|DICT|INTERRES
    61   29  154 1    
    62   30   31 2    
    63   30   32 1    
    64   32   33 1    
    65   32   34 1    
    66   32  155 1    
    67   33  156 1    
    68   33  157 1    
    69   33  158 1    
    70   34   35 am   BACKBONE|DICT|INTERRES
    71   34  159 1    
    72   35   36 2    
    73   35   37 1    
    74   37   38 1    
    75   37   39 1    
    76   37  160 1    
    77   38  161 1    
    78   38  162 1    
    79   38  163 1    
    80   39   40 am   BACKBONE|DICT|INTERRES
    81   39  164 1    
    82   40   41 2    
    83   40   42 1    
    84   42   43 1    
    85   42   44 1    
    86   42  165 1    
    87   43  166 1    
    88   43  167 1    
    89   43  168 1    
    90   44   45 am   BACKBONE|DICT|INTERRES
    91   44  169 1    
    92   45   46 2    
    93   45   47 1    
    94   47   48 1    
    95   47   49 1    
    96   47  170 1    
    97   48  171 1    
    98   48  172 1    
    99   48  173 1    
   100   49   50 am   BACKBONE|DICT|INTERRES
   101   49  174 1    
   102   50   51 2    
   103   50   52 1    
   104   52   53 1    
   105   52   54 1    
   106   52  175 1    
   107   53  176 1    
   108   53  177 1    
   109   53  178 1    
   110   54   55 am   BACKBONE|DICT|INTERRES
   111   54  179 1    
   112   55   56 2    
   113   55   57 1    
   114   57   58 1    
   115   57   59 1    
   116   57  180 1    
   117   58  181 1    
   118   58  182 1    
   119   58  183 1    
   120   59   60 am   BACKBONE|DICT|INTERRES
   121   59  184 1    
   122   60   61 2    
   123   60   62 1    
   124   62   63 1    
   125   62   64 1    
   126   62  185 1    
   127   63  186 1    
   128   63  187 1    
   129   63  188 1    
   130   64   65 am   BACKBONE|DICT|INTERRES
   131   64  189 1    
   132   65   66 2    
   133   67   68 2    
   134   67   69 am   BACKBONE|DICT|INTERRES
   135   69   70 1    
   136   69  190 1    
   137   70   71 1    
   138   70   72 1    
   139   70  191 1    
   140   71  192 1    
   141   71  193 1    
   142   71  194 1    
   143   72   73 2    
   144   72   74 am   BACKBONE|DICT|INTERRES
   145   74   75 1    
   146   74  195 1    
   147   75   76 1    
   148   75   77 1    
   149   75  196 1    
   150   76  197 1    
   151   76  198 1    
   152   76  199 1    
   153   77   78 2    
   154   77   79 am   BACKBONE|DICT|INTERRES
   155   79   80 1    
   156   79  200 1    
   157   80   81 1    
   158   80   82 1    
   159   80  201 1    
   160   81  202 1    
   161   81  203 1    
   162   81  204 1    
   163   82   83 2    
   164   82   84 am   BACKBONE|DICT|INTERRES
   165   84   85 1    
   166   84  205 1    
   167   85   86 1    
   168   85   87 1    
   169   85  206 1    
   170   86  207 1    
   171   86  208 1    
   172   86  209 1    
   173   87   88 2    
   174   87   89 am   BACKBONE|DICT|INTERRES
   175   89   90 1    
   176   89  210 1    
   177   90   91 1    
   178   90   92 1    
   179   90  211 1    
   180   91  212 1    
   181   91  213 1    
   182   91  214 1    
   183   92   93 2    
   184   92   94 am   BACKBONE|DICT|INTERRES
   185   94   95 1    
   186   94  215 1    
   187   95   96 1    
   188   95   97 1    
   189   95  216 1    
   190   96  217 1    
   191   96  218 1    
   192   96  219 1    
   193   97   98 2    
   194   97   99 am   BACKBONE|DICT|INTERRES
   195   99  100 1    
   196   99  220 1    
   197  100  101 1    
   198  100  102 1    
   199  100  221 1    
   200  101  222 1    
   201  101  223 1    
   202  101  224 1    
   203  102  103 2    
   204  102  104 am   BACKBONE|DICT|INTERRES
   205  104  105 1    
   206  104  225 1    
   207  105  106 1    
   208  105  107 1    
   209  105  226 1    
   210  106  227 1    
   211  106  228 1    
   212  106  229 1    
   213  107  108 2    
   214  107  109 am   BACKBONE|DICT|INTERRES
   215  109  110 1    
   216  109  230 1    
   217  110  111 1    
   218  110  112 1    
   219  110  231 1    
   220  111  232 1    
   221  111  233 1    
   222  111  234 1    
   223  112  113 2    
   224  112  114 am   BACKBONE|DICT|INTERRES
   225  114  115 1    
   226  114  235 1    
   227  115  116 1    
   228  115  117 1    
   229  115  236 1    
   230  116  237 1    
   231  116  238 1    
   232  116  239 1    
   233  117  118 2    
   234  117  119 am   BACKBONE|DICT|INTERRES
   235  119  120 1    
   236  119  240 1    
   237  120  121 1    
   238  120  124 1    
   239  120  241 1    
   240  121  122 am   BACKBONE|DICT|INTERRES
   241  121  123 2    
   242  122  242 1    
   243  122  243 1    
   244  124  125 1    
   245  124  244 1    
   246  124  245 1    
   247  125  126 1    
   248  126  246 1    
   249  126  247 1    
@<TRIPOS>SUBSTRUCTURE
     1 UNK         1 GROUP             0       ****    0 ROOT    
