@<TRIPOS>MOLECULE
3R540
247   249    1
SMALL
USER_CHARGES


@<TRIPOS>ATOM
      1 CA         -0.3734  -12.5074  -46.1070 C.3       0 UNK        -0.1800 
      2 C           0.6938  -12.7975  -47.1524 C.2       0 UNK         0.5000 
      3 O           1.3960  -13.8047  -47.0607 O.2       0 UNK        -0.5000 
      4 N           0.8132  -11.9120  -48.1496 N.am      1 UNK        -0.5000 
      5 CA          1.8372  -11.9289  -49.2002 C.3       1 UNK         0.1400 
      6 C6          1.7784  -13.1790  -50.1268 C.3       23 UNK        -0.0398 
      7 S7          0.1417  -13.4451  -50.8959 S.3       23 UNK        -0.2404 
      8 C8         -0.3987  -15.0085  -50.1254 C.3       23 UNK        -0.0205 
      9 C9          0.4648  -16.1864  -50.5550 C.ar      23 UNK        -0.0193 
     10 C10         0.2987  -16.7553  -51.8216 C.ar      23 UNK        -0.1150 
     11 C11         1.1069  -17.8191  -52.2342 C.ar      23 UNK        -0.0193 
     12 C12         2.0926  -18.3062  -51.3706 C.ar      23 UNK        -0.1150 
     13 C13         2.2575  -17.7572  -50.0953 C.ar      23 UNK        -0.0193 
     14 C14         1.4339  -16.7034  -49.6896 C.ar      23 UNK        -0.1150 
     15 C15         3.3511  -18.2770  -49.1735 C.3       23 UNK        -0.0205 
     16 S16         2.9976  -19.9418  -48.5248 S.3       23 UNK        -0.2404 
     17 C17         1.6226  -19.6306  -47.3668 C.3       23 UNK        -0.0398 
     18 CA          0.3611  -20.4636  -47.7093 C.3       11 UNK         0.1400 
     19 N          -0.4071  -20.8257  -46.5111 N.am      11 UNK        -0.5000 
     20 C          -1.4055  -21.7221  -46.4666 C.2       10 UNK         0.5000 
     21 O          -1.8834  -22.2716  -47.4584 O.2       10 UNK        -0.5000 
     22 CA         -1.9701  -22.0761  -45.0819 C.3       10 UNK         0.1400 
     23 CB         -1.0389  -23.0568  -44.3539 C.3       10 UNK        -0.1800 
     24 N          -2.1544  -20.8777  -44.2686 N.am      10 UNK        -0.5000 
     25 C          -3.3149  -20.2170  -44.1514 C.2       9 UNK         0.5000 
     26 O          -4.3813  -20.6169  -44.6197 O.2       9 UNK        -0.5000 
     27 CA         -3.2803  -18.8633  -43.4100 C.3       9 UNK         0.1400 
     28 CB         -3.5724  -19.0622  -41.9152 C.3       9 UNK        -0.1800 
     29 N          -2.0161  -18.1384  -43.5527 N.am      9 UNK        -0.5000 
     30 C          -1.4508  -17.7857  -44.7159 C.2       8 UNK         0.5000 
     31 O          -1.9595  -17.9849  -45.8166 O.2       8 UNK        -0.5000 
     32 CA         -0.0470  -17.1674  -44.6474 C.3       8 UNK         0.1400 
     33 CB         -0.1546  -15.6444  -44.5365 C.3       8 UNK        -0.1800 
     34 N           0.7720  -17.6855  -43.5517 N.am      8 UNK        -0.5000 
     35 C           1.0924  -18.9703  -43.3423 C.2       7 UNK         0.5000 
     36 O           0.7018  -19.8973  -44.0534 O.2       7 UNK        -0.5000 
     37 CA          1.9591  -19.2680  -42.1100 C.3       7 UNK         0.1400 
     38 CB          3.4410  -18.9879  -42.4025 C.3       7 UNK        -0.1800 
     39 N           1.5295  -18.4674  -40.9647 N.am      7 UNK        -0.5000 
     40 C           0.5667  -18.8290  -40.1069 C.2       6 UNK         0.5000 
     41 O          -0.0187  -19.9113  -40.1522 O.2       6 UNK        -0.5000 
     42 CA          0.1838  -17.8084  -39.0170 C.3       6 UNK         0.1400 
     43 CB          1.0380  -18.0214  -37.7581 C.3       6 UNK        -0.1800 
     44 N           0.3085  -16.4143  -39.4483 N.am      6 UNK        -0.5000 
     45 C          -0.4623  -15.8348  -40.3785 C.2       5 UNK         0.5000 
     46 O          -1.3599  -16.4197  -40.9864 O.2       5 UNK        -0.5000 
     47 CA         -0.1525  -14.3607  -40.7120 C.3       5 UNK         0.1400 
     48 CB         -0.8476  -13.4305  -39.7063 C.3       5 UNK        -0.1800 
     49 N           1.2730  -14.0079  -40.7882 N.am      5 UNK        -0.5000 
     50 C           2.2104  -14.6615  -41.4876 C.2       4 UNK         0.5000 
     51 O           2.0294  -15.7578  -42.0197 O.2       4 UNK        -0.5000 
     52 CA          3.5967  -14.0026  -41.5937 C.3       4 UNK         0.1400 
     53 CB          4.4721  -14.4092  -40.3988 C.3       4 UNK        -0.1800 
     54 N           4.2562  -14.4254  -42.8303 N.am      4 UNK        -0.5000 
     55 C           3.9159  -13.9986  -44.0532 C.2       3 UNK         0.5000 
     56 O           3.1517  -13.0531  -44.2618 O.2       3 UNK        -0.5000 
     57 CA          4.5005  -14.8052  -45.2258 C.3       3 UNK         0.1400 
     58 CB          3.6635  -16.0690  -45.4902 C.3       3 UNK        -0.1800 
     59 N           4.5585  -14.0172  -46.4552 N.am      3 UNK        -0.5000 
     60 C           5.5878  -13.2331  -46.8041 C.2       2 UNK         0.5000 
     61 O           6.5891  -13.0801  -46.1024 O.2       2 UNK        -0.5000 
     62 CA          5.5236  -12.5262  -48.1745 C.3       2 UNK         0.1400 
     63 CB          6.5249  -13.1652  -49.1509 C.3       2 UNK        -0.1800 
     64 N           4.1935  -12.5734  -48.7838 N.am      2 UNK        -0.5000 
     65 C           3.2235  -11.6775  -48.5579 C.2       1 UNK         0.5000 
     66 O           3.3813  -10.6743  -47.8574 O.2       1 UNK        -0.5000 
     67 C          -0.4852  -19.7940  -48.8114 C.2       11 UNK         0.5000 
     68 O          -0.3006  -20.1113  -49.9844 O.2       11 UNK        -0.5000 
     69 N          -1.4550  -18.9461  -48.4344 N.am      12 UNK        -0.5000 
     70 CA         -2.4056  -18.3197  -49.3642 C.3       12 UNK         0.1400 
     71 CB         -3.1914  -17.2222  -48.6323 C.3       12 UNK        -0.1800 
     72 C          -3.3663  -19.3246  -50.0333 C.2       12 UNK         0.5000 
     73 O          -3.9956  -18.9919  -51.0359 O.2       12 UNK        -0.5000 
     74 N          -3.4302  -20.5402  -49.4831 N.am      13 UNK        -0.5000 
     75 CA         -4.1285  -21.7011  -50.0128 C.3       13 UNK         0.1400 
     76 CB         -5.1481  -22.1465  -48.9518 C.3       13 UNK        -0.1800 
     77 C          -3.1224  -22.8113  -50.3829 C.2       13 UNK         0.5000 
     78 O          -3.4672  -23.9922  -50.3263 O.2       13 UNK        -0.5000 
     79 N          -1.8825  -22.4196  -50.7151 N.am      14 UNK        -0.5000 
     80 CA         -0.6985  -23.2193  -51.0481 C.3       14 UNK         0.1400 
     81 CB         -0.9332  -24.1036  -52.2863 C.3       14 UNK        -0.1800 
     82 C          -0.1530  -24.0283  -49.8581 C.2       14 UNK         0.5000 
     83 O           1.0048  -23.8532  -49.4773 O.2       14 UNK        -0.5000 
     84 N          -1.0031  -24.8834  -49.2887 N.am      15 UNK        -0.5000 
     85 CA         -0.7526  -25.7030  -48.1098 C.3       15 UNK         0.1400 
     86 CB          0.1220  -26.9187  -48.4785 C.3       15 UNK        -0.1800 
     87 C          -2.1042  -26.0912  -47.4876 C.2       15 UNK         0.5000 
     88 O          -2.3371  -27.2675  -47.2054 O.2       15 UNK        -0.5000 
     89 N          -2.9864  -25.0914  -47.3255 N.am      16 UNK        -0.5000 
     90 CA         -4.3735  -25.2155  -46.8549 C.3       16 UNK         0.1400 
     91 CB         -4.4141  -25.6555  -45.3762 C.3       16 UNK        -0.1800 
     92 C          -5.2489  -26.0950  -47.7803 C.2       16 UNK         0.5000 
     93 O          -6.0698  -26.8781  -47.3002 O.2       16 UNK        -0.5000 
     94 N          -5.0571  -25.9435  -49.0970 N.am      17 UNK        -0.5000 
     95 CA         -5.6934  -26.7188  -50.1634 C.3       17 UNK         0.1400 
     96 CB         -4.5833  -27.2980  -51.0606 C.3       17 UNK        -0.1800 
     97 C          -6.6978  -25.8581  -50.9590 C.2       17 UNK         0.5000 
     98 O          -6.8153  -26.0227  -52.1744 O.2       17 UNK        -0.5000 
     99 N          -7.4031  -24.9668  -50.2446 N.am      18 UNK        -0.5000 
    100 CA        -8.3229  -23.9198  -50.7120 C.3       18 UNK         0.1400 
    101 CB        -9.4316  -24.4782  -51.6258 C.3       18 UNK        -0.1800 
    102 C         -7.5918  -22.7365  -51.3756 C.2       18 UNK         0.5000 
    103 O         -6.5469  -22.9118  -52.0036 O.2       18 UNK        -0.5000 
    104 N         -8.1596  -21.5320  -51.2179 N.am      19 UNK        -0.5000 
    105 CA        -7.5777  -20.2513  -51.6448 C.3       19 UNK         0.1400 
    106 CB        -8.5171  -19.1091  -51.2321 C.3       19 UNK        -0.1800 
    107 C         -7.2502  -20.1612  -53.1475 C.2       19 UNK         0.5000 
    108 O         -6.3087  -19.4649  -53.5256 O.2       19 UNK        -0.5000 
    109 N         -7.9906  -20.9101  -53.9752 N.am      20 UNK        -0.5000 
    110 CA        -7.7748  -21.0476  -55.4173 C.3       20 UNK         0.1400 
    111 CB        -8.9016  -21.9134  -56.0018 C.3       20 UNK        -0.1800 
    112 C         -6.3956  -21.6253  -55.8045 C.2       20 UNK         0.5000 
    113 O         -5.9647  -21.4311  -56.9418 O.2       20 UNK        -0.5000 
    114 N         -5.7240  -22.3119  -54.8681 N.am      21 UNK        -0.5000 
    115 CA        -4.3954  -22.8887  -55.0603 C.3       21 UNK         0.1400 
    116 CB        -4.1675  -23.9803  -54.0046 C.3       21 UNK        -0.1800 
    117 C         -3.2495  -21.8541  -55.0399 C.2       21 UNK         0.5000 
    118 O         -2.1606  -22.1885  -55.5078 O.2       21 UNK        -0.5000 
    119 N         -3.4866  -20.6372  -54.5241 N.am      22 UNK        -0.5000 
    120 CA        -2.4739  -19.5646  -54.4671 C.3       22 UNK         0.1400 
    121 C         -3.0252  -18.1245  -54.6668 C.2       22 UNK         0.5000 
    122 N         -4.3245  -17.8682  -54.5994 N.am      22 UNK        -0.7600 
    123 O         -2.2494  -17.2074  -54.9201 O.2       22 UNK        -0.5000 
    124 C124       -1.5644  -19.6706  -53.2066 C.3       23 UNK        -0.0398 
    125 S125        0.1718  -20.0676  -53.6005 S.3       23 UNK        -0.2404 
    126 C126        0.9452  -18.4172  -53.6255 C.3       23 UNK        -0.0205 
    127 H127       -1.2474  -13.1354  -46.2767 H         1 UNK         0.0600 
    128 H128       -0.6923  -11.4655  -46.1377 H         1 UNK         0.0600 
    129 H129        0.0137  -12.7100  -45.1082 H         1 UNK         0.0600 
    130 H130        0.2115  -11.1010  -48.1560 H         1 UNK         0.3000 
    131 H131        1.6392  -11.0563  -49.8243 H         1 UNK         0.0600 
    132 H132        2.4955  -13.0734  -50.9425 H         1 UNK         0.0800 
    133 H133        2.0712  -14.0741  -49.5816 H         1 UNK         0.0800 
    134 H134       -1.4347  -15.1995  -50.4086 H         1 UNK         0.0800 
    135 H135       -0.3955  -14.9027  -49.0397 H         1 UNK         0.0800 
    136 H136       -0.4530  -16.3597  -52.4908 H         1 UNK         0.1150 
    137 H137        2.7265  -19.1221  -51.6882 H         1 UNK         0.1150 
    138 H138        1.5603  -16.2695  -48.7071 H         1 UNK         0.1150 
    139 H139        4.2902  -18.3121  -49.7273 H         1 UNK         0.0800 
    140 H140        3.5174  -17.5914  -48.3422 H         1 UNK         0.0800 
    141 H141        1.3995  -18.5647  -47.3167 H         1 UNK         0.0800 
    142 H142        1.9974  -19.9020  -46.3796 H         1 UNK         0.0800 
    143 H143        0.6976  -21.4174  -48.1216 H         1 UNK         0.0600 
    144 H144       -0.0635  -20.4469  -45.6322 H         1 UNK         0.3000 
    145 H145       -2.9270  -22.5805  -45.2323 H         1 UNK         0.0600 
    146 H146       -1.4594  -23.3563  -43.3939 H         1 UNK         0.0600 
    147 H147       -0.8926  -23.9643  -44.9412 H         1 UNK         0.0600 
    148 H148       -0.0560  -22.6224  -44.1672 H         1 UNK         0.0600 
    149 H149       -1.3159  -20.4610  -43.8818 H         1 UNK         0.3000 
    150 H150       -4.0668  -18.2370  -43.8353 H         1 UNK         0.0600 
    151 H151       -4.5152  -19.5903  -41.7662 H         1 UNK         0.0600 
    152 H152       -3.6511  -18.1055  -41.3982 H         1 UNK         0.0600 
    153 H153       -2.7880  -19.6423  -41.4270 H         1 UNK         0.0600 
    154 H154       -1.5418  -17.8835  -42.6948 H         1 UNK         0.3000 
    155 H155        0.4677  -17.4020  -45.5788 H         1 UNK         0.0600 
    156 H156        0.8258  -15.1696  -44.5064 H         1 UNK         0.0600 
    157 H157       -0.6862  -15.2433  -45.3985 H         1 UNK         0.0600 
    158 H158       -0.7032  -15.3458  -43.6447 H         1 UNK         0.0600 
    159 H159        1.1663  -16.9858  -42.9245 H         1 UNK         0.3000 
    160 H160        1.8572  -20.3302  -41.8778 H         1 UNK         0.0600 
    161 H161        3.6275  -17.9286  -42.5785 H         1 UNK         0.0600 
    162 H162        3.7769  -19.5342  -43.2848 H         1 UNK         0.0600 
    163 H163        4.0689  -19.3001  -41.5680 H         1 UNK         0.0600 
    164 H164        1.9005  -17.5266  -40.9094 H         1 UNK         0.3000 
    165 H165       -0.8610  -17.9866  -38.7538 H         1 UNK         0.0600 
    166 H166        0.7205  -17.3629  -36.9494 H         1 UNK         0.0600 
    167 H167        0.9493  -19.0461  -37.3947 H         1 UNK         0.0600 
    168 H168        2.0946  -17.8320  -37.9516 H         1 UNK         0.0600 
    169 H169        1.0333  -15.8629  -39.0131 H         1 UNK         0.3000 
    170 H170       -0.5790  -14.1572  -41.6947 H         1 UNK         0.0600 
    171 H171       -1.9136  -13.6526  -39.6389 H         1 UNK         0.0600 
    172 H172       -0.4267  -13.5334  -38.7054 H         1 UNK         0.0600 
    173 H173       -0.7547  -12.3860  -40.0042 H         1 UNK         0.0600 
    174 H174        1.5273  -13.1309  -40.3571 H         1 UNK         0.3000 
    175 H175        3.4802  -12.9170  -41.6011 H         1 UNK         0.0600 
    176 H176        4.0253  -14.0861  -39.4577 H         1 UNK         0.0600 
    177 H177        4.6046  -15.4908  -40.3449 H         1 UNK         0.0600 
    178 H178        5.4602  -13.9531  -40.4612 H         1 UNK         0.0600 
    179 H179        4.8624  -15.2283  -42.7507 H         1 UNK         0.3000 
    180 H180        5.5088  -15.1222  -44.9505 H         1 UNK         0.0600 
    181 H181        2.6766  -15.8279  -45.8839 H         1 UNK         0.0600 
    182 H182        3.5166  -16.6476  -44.5784 H         1 UNK         0.0600 
    183 H183        4.1594  -16.7211  -46.2082 H         1 UNK         0.0600 
    184 H184        3.7142  -14.0034  -47.0127 H         1 UNK         0.3000 
    185 H185        5.8204  -11.4864  -48.0211 H         1 UNK         0.0600 
    186 H186        6.2917  -14.2141  -49.3384 H         1 UNK         0.0600 
    187 H187        6.5285  -12.6450  -50.1089 H         1 UNK         0.0600 
    188 H188        7.5407  -13.1205  -48.7558 H         1 UNK         0.0600 
    189 H189        4.0017  -13.3761  -49.3651 H         1 UNK         0.3000 
    190 H190       -1.5848  -18.7287  -47.4477 H         1 UNK         0.3000 
    191 H191       -1.8315  -17.8504  -50.1638 H         1 UNK         0.0600 
    192 H192       -3.8038  -17.6358  -47.8302 H         1 UNK         0.0600 
    193 H193       -3.8575  -16.6955  -49.3168 H         1 UNK         0.0600 
    194 H194       -2.5215  -16.4812  -48.1957 H         1 UNK         0.0600 
    195 H195       -2.8484  -20.7281  -48.6752 H         1 UNK         0.3000 
    196 H196       -4.6559  -21.4479  -50.9329 H         1 UNK         0.0600 
    197 H197       -5.6184  -23.0927  -49.2105 H         1 UNK         0.0600 
    198 H198       -5.9431  -21.4085  -48.8456 H         1 UNK         0.0600 
    199 H199       -4.6763  -22.2608  -47.9767 H         1 UNK         0.0600 
    200 H200       -1.6710  -21.4315  -50.6230 H         1 UNK         0.3000 
    201 H201        0.0754  -22.4973  -51.3135 H         1 UNK         0.0600 
    202 H202       -1.2090  -23.4966  -53.1483 H         1 UNK         0.0600 
    203 H203       -1.7194  -24.8415  -52.1264 H         1 UNK         0.0600 
    204 H204       -0.0261  -24.6475  -52.5515 H         1 UNK         0.0600 
    205 H205       -1.9512  -24.9009  -49.6554 H         1 UNK         0.3000 
    206 H206       -0.2231  -25.1013  -47.3683 H         1 UNK         0.0600 
    207 H207        1.0877  -26.6089  -48.8777 H         1 UNK         0.0600 
    208 H208        0.3207  -27.5386  -47.6035 H         1 UNK         0.0600 
    209 H209       -0.3632  -27.5468  -49.2265 H         1 UNK         0.0600 
    210 H210       -2.6879  -24.1552  -47.5820 H         1 UNK         0.3000 
    211 H211       -4.8050  -24.2171  -46.8946 H         1 UNK         0.0600 
    212 H212       -4.0642  -26.6798  -45.2457 H         1 UNK         0.0600 
    213 H213       -5.4299  -25.6064  -44.9826 H         1 UNK         0.0600 
    214 H214       -3.7954  -25.0083  -44.7547 H         1 UNK         0.0600 
    215 H215       -4.4050  -25.2328  -49.4247 H         1 UNK         0.3000 
    216 H216       -6.2552  -27.5545  -49.7423 H         1 UNK         0.0600 
    217 H217       -4.0247  -26.5083  -51.5654 H         1 UNK         0.0600 
    218 H218       -4.9973  -27.9526  -51.8283 H         1 UNK         0.0600 
    219 H219       -3.8753  -27.8887  -50.4790 H         1 UNK         0.0600 
    220 H220       -7.2084  -24.9444  -49.2544 H         1 UNK         0.3000 
    221 H221       -8.8023  -23.5395  -49.8087 H         1 UNK         0.0600 
    222 H222       -9.9174  -25.3437  -51.1754 H         1 UNK         0.0600 
    223 H223       -9.0477  -24.7764  -52.6017 H         1 UNK         0.0600 
    224 H224      -10.2032  -23.7280  -51.8017 H         1 UNK         0.0600 
    225 H225       -9.0283  -21.4703  -50.7065 H         1 UNK         0.3000 
    226 H226       -6.6379  -20.1228  -51.1054 H         1 UNK         0.0600 
    227 H227       -8.6697  -19.0934  -50.1528 H         1 UNK         0.0600 
    228 H228       -8.1007  -18.1406  -51.5129 H         1 UNK         0.0600 
    229 H229       -9.4934  -19.1985  -51.7100 H         1 UNK         0.0600 
    230 H230       -8.7308  -21.4666  -53.5745 H         1 UNK         0.3000 
    231 H231       -7.8426  -20.0509  -55.8580 H         1 UNK         0.0600 
    232 H232       -8.8986  -22.9170  -55.5744 H         1 UNK         0.0600 
    233 H233       -8.7964  -22.0164  -57.0827 H         1 UNK         0.0600 
    234 H234       -9.8795  -21.4699  -55.8136 H         1 UNK         0.0600 
    235 H235       -6.1390  -22.4392  -53.9500 H         1 UNK         0.3000 
    236 H236       -4.3757  -23.3704  -56.0401 H         1 UNK         0.0600 
    237 H237       -4.9691  -24.7191  -54.0161 H         1 UNK         0.0600 
    238 H238       -3.2342  -24.5130  -54.1876 H         1 UNK         0.0600 
    239 H239       -4.1180  -23.5612  -53.0009 H         1 UNK         0.0600 
    240 H240       -4.4083  -20.4131  -54.1722 H         1 UNK         0.3000 
    241 H241       -1.8472  -19.6897  -55.3524 H         1 UNK         0.0600 
    242 H242       -4.6306  -16.9214  -54.7533 H         1 UNK         0.3800 
    243 H243       -5.0078  -18.5527  -54.2812 H         1 UNK         0.3800 
    244 H244       -1.5922  -18.7672  -52.5961 H         1 UNK         0.0800 
    245 H245       -1.9281  -20.4559  -52.5471 H         1 UNK         0.0800 
    246 H246        1.9288  -18.5019  -54.0893 H         1 UNK         0.0800 
    247 H247        0.3652  -17.7542  -54.2688 H         1 UNK         0.0800 
@<TRIPOS>BOND
     1    1    2 1    
     2    1  127 1    
     3    1  128 1    
     4    1  129 1    
     5    2    3 2    
     6    2    4 am   BACKBONE|DICT|INTERRES
     7    4    5 1    
     8    4  130 1    
     9    5    6 1    
    10    5   65 1    
    11    5  131 1    
    12    6    7 1    
    13    6  132 1    
    14    6  133 1    
    15    7    8 1    
    16    8    9 1    
    17    8  134 1    
    18    8  135 1    
    19    9   10 ar   
    20    9   14 ar   
    21   10   11 ar   
    22   10  136 1    
    23   11   12 ar   
    24   11  126 1    
    25   12   13 ar   
    26   12  137 1    
    27   13   14 ar   
    28   13   15 1    
    29   14  138 1    
    30   15   16 1    
    31   15  139 1    
    32   15  140 1    
    33   16   17 1    
    34   17   18 1    
    35   17  141 1    
    36   17  142 1    
    37   18   19 1    
    38   18   67 1    
    39   18  143 1    
    40   19   20 am   BACKBONE|DICT|INTERRES
    41   19  144 1    
    42   20   21 2    
    43   20   22 1    
    44   22   23 1    
    45   22   24 1    
    46   22  145 1    
    47   23  146 1    
    48   23  147 1    
    49   23  148 1    
    50   24   25 am   BACKBONE|DICT|INTERRES
    51   24  149 1    
    52   25   26 2    
    53   25   27 1    
    54   27   28 1    
    55   27   29 1    
    56   27  150 1    
    57   28  151 1    
    58   28  152 1    
    59   28  153 1    
    60   29   30 am   BACKBONE|DICT|INTERRES
    61   29  154 1    
    62   30   31 2    
    63   30   32 1    
    64   32   33 1    
    65   32   34 1    
    66   32  155 1    
    67   33  156 1    
    68   33  157 1    
    69   33  158 1    
    70   34   35 am   BACKBONE|DICT|INTERRES
    71   34  159 1    
    72   35   36 2    
    73   35   37 1    
    74   37   38 1    
    75   37   39 1    
    76   37  160 1    
    77   38  161 1    
    78   38  162 1    
    79   38  163 1    
    80   39   40 am   BACKBONE|DICT|INTERRES
    81   39  164 1    
    82   40   41 2    
    83   40   42 1    
    84   42   43 1    
    85   42   44 1    
    86   42  165 1    
    87   43  166 1    
    88   43  167 1    
    89   43  168 1    
    90   44   45 am   BACKBONE|DICT|INTERRES
    91   44  169 1    
    92   45   46 2    
    93   45   47 1    
    94   47   48 1    
    95   47   49 1    
    96   47  170 1    
    97   48  171 1    
    98   48  172 1    
    99   48  173 1    
   100   49   50 am   BACKBONE|DICT|INTERRES
   101   49  174 1    
   102   50   51 2    
   103   50   52 1    
   104   52   53 1    
   105   52   54 1    
   106   52  175 1    
   107   53  176 1    
   108   53  177 1    
   109   53  178 1    
   110   54   55 am   BACKBONE|DICT|INTERRES
   111   54  179 1    
   112   55   56 2    
   113   55   57 1    
   114   57   58 1    
   115   57   59 1    
   116   57  180 1    
   117   58  181 1    
   118   58  182 1    
   119   58  183 1    
   120   59   60 am   BACKBONE|DICT|INTERRES
   121   59  184 1    
   122   60   61 2    
   123   60   62 1    
   124   62   63 1    
   125   62   64 1    
   126   62  185 1    
   127   63  186 1    
   128   63  187 1    
   129   63  188 1    
   130   64   65 am   BACKBONE|DICT|INTERRES
   131   64  189 1    
   132   65   66 2    
   133   67   68 2    
   134   67   69 am   BACKBONE|DICT|INTERRES
   135   69   70 1    
   136   69  190 1    
   137   70   71 1    
   138   70   72 1    
   139   70  191 1    
   140   71  192 1    
   141   71  193 1    
   142   71  194 1    
   143   72   73 2    
   144   72   74 am   BACKBONE|DICT|INTERRES
   145   74   75 1    
   146   74  195 1    
   147   75   76 1    
   148   75   77 1    
   149   75  196 1    
   150   76  197 1    
   151   76  198 1    
   152   76  199 1    
   153   77   78 2    
   154   77   79 am   BACKBONE|DICT|INTERRES
   155   79   80 1    
   156   79  200 1    
   157   80   81 1    
   158   80   82 1    
   159   80  201 1    
   160   81  202 1    
   161   81  203 1    
   162   81  204 1    
   163   82   83 2    
   164   82   84 am   BACKBONE|DICT|INTERRES
   165   84   85 1    
   166   84  205 1    
   167   85   86 1    
   168   85   87 1    
   169   85  206 1    
   170   86  207 1    
   171   86  208 1    
   172   86  209 1    
   173   87   88 2    
   174   87   89 am   BACKBONE|DICT|INTERRES
   175   89   90 1    
   176   89  210 1    
   177   90   91 1    
   178   90   92 1    
   179   90  211 1    
   180   91  212 1    
   181   91  213 1    
   182   91  214 1    
   183   92   93 2    
   184   92   94 am   BACKBONE|DICT|INTERRES
   185   94   95 1    
   186   94  215 1    
   187   95   96 1    
   188   95   97 1    
   189   95  216 1    
   190   96  217 1    
   191   96  218 1    
   192   96  219 1    
   193   97   98 2    
   194   97   99 am   BACKBONE|DICT|INTERRES
   195   99  100 1    
   196   99  220 1    
   197  100  101 1    
   198  100  102 1    
   199  100  221 1    
   200  101  222 1    
   201  101  223 1    
   202  101  224 1    
   203  102  103 2    
   204  102  104 am   BACKBONE|DICT|INTERRES
   205  104  105 1    
   206  104  225 1    
   207  105  106 1    
   208  105  107 1    
   209  105  226 1    
   210  106  227 1    
   211  106  228 1    
   212  106  229 1    
   213  107  108 2    
   214  107  109 am   BACKBONE|DICT|INTERRES
   215  109  110 1    
   216  109  230 1    
   217  110  111 1    
   218  110  112 1    
   219  110  231 1    
   220  111  232 1    
   221  111  233 1    
   222  111  234 1    
   223  112  113 2    
   224  112  114 am   BACKBONE|DICT|INTERRES
   225  114  115 1    
   226  114  235 1    
   227  115  116 1    
   228  115  117 1    
   229  115  236 1    
   230  116  237 1    
   231  116  238 1    
   232  116  239 1    
   233  117  118 2    
   234  117  119 am   BACKBONE|DICT|INTERRES
   235  119  120 1    
   236  119  240 1    
   237  120  121 1    
   238  120  124 1    
   239  120  241 1    
   240  121  122 am   BACKBONE|DICT|INTERRES
   241  121  123 2    
   242  122  242 1    
   243  122  243 1    
   244  124  125 1    
   245  124  244 1    
   246  124  245 1    
   247  125  126 1    
   248  126  246 1    
   249  126  247 1    
@<TRIPOS>SUBSTRUCTURE
     1 UNK         1 GROUP             0       ****    0 ROOT    
