@<TRIPOS>MOLECULE
3R540
247   249    1
SMALL
USER_CHARGES


@<TRIPOS>ATOM
      1 CA          5.8780  -10.6550  -47.4976 C.3       0 UNK        -0.1800 
      2 C           5.4371  -12.0470  -47.0719 C.2       0 UNK         0.5000 
      3 O           5.4949  -12.3723  -45.8869 O.2       0 UNK        -0.5000 
      4 N           4.9764  -12.8658  -48.0259 N.am      1 UNK        -0.5000 
      5 CA          4.5113  -14.2468  -47.8273 C.3       1 UNK         0.1400 
      6 C6          4.1410  -14.9370  -49.1642 C.3       23 UNK        -0.0398 
      7 S7          3.0061  -13.9646  -50.2220 S.3       23 UNK        -0.2404 
      8 C8          2.7780  -15.0853  -51.6381 C.3       23 UNK        -0.0205 
      9 C9          1.7838  -16.1894  -51.3168 C.ar      23 UNK        -0.0193 
     10 C10         0.4173  -15.9909  -51.5319 C.ar      23 UNK        -0.1150 
     11 C11        -0.5078  -16.9889  -51.2096 C.ar      23 UNK        -0.0193 
     12 C12        -0.0524  -18.1919  -50.6598 C.ar      23 UNK        -0.1150 
     13 C13         1.3145  -18.4025  -50.4451 C.ar      23 UNK        -0.0193 
     14 C14         2.2269  -17.4042  -50.7910 C.ar      23 UNK        -0.1150 
     15 C15         1.8192  -19.7028  -49.8399 C.3       23 UNK        -0.0205 
     16 S16         2.2928  -19.5167  -48.0848 S.3       23 UNK        -0.2404 
     17 C17         0.6944  -19.1712  -47.2708 C.3       23 UNK        -0.0398 
     18 CA         -0.0008  -20.4430  -46.7252 C.3       11 UNK         0.1400 
     19 N          -1.0291  -20.1342  -45.7295 N.am      11 UNK        -0.5000 
     20 C          -1.7582  -21.0429  -45.0621 C.2       10 UNK         0.5000 
     21 O          -1.5768  -22.2586  -45.1294 O.2       10 UNK        -0.5000 
     22 CA         -2.9360  -20.5014  -44.2346 C.3       10 UNK         0.1400 
     23 CB         -2.4659  -20.0101  -42.8573 C.3       10 UNK        -0.1800 
     24 N          -3.6404  -19.4277  -44.9387 N.am      10 UNK        -0.5000 
     25 C          -4.3719  -19.6101  -46.0484 C.2       9 UNK         0.5000 
     26 O          -4.5745  -20.7111  -46.5602 O.2       9 UNK        -0.5000 
     27 CA         -4.9339  -18.3459  -46.7257 C.3       9 UNK         0.1400 
     28 CB         -6.2767  -17.9437  -46.1002 C.3       9 UNK        -0.1800 
     29 N          -4.0088  -17.2126  -46.6681 N.am      9 UNK        -0.5000 
     30 C          -2.8375  -17.1621  -47.3194 C.2       8 UNK         0.5000 
     31 O          -2.4476  -18.0476  -48.0788 O.2       8 UNK        -0.5000 
     32 CA         -1.9293  -15.9519  -47.0196 C.3       8 UNK         0.1400 
     33 CB         -2.2924  -14.7574  -47.9117 C.3       8 UNK        -0.1800 
     34 N          -1.9902  -15.5405  -45.6127 N.am      8 UNK        -0.5000 
     35 C          -1.5765  -16.3084  -44.5980 C.2       7 UNK         0.5000 
     36 O          -1.0572  -17.4175  -44.7565 O.2       7 UNK        -0.5000 
     37 CA         -1.8430  -15.7925  -43.1775 C.3       7 UNK         0.1400 
     38 CB         -3.3271  -15.9849  -42.8069 C.3       7 UNK        -0.1800 
     39 N          -0.9857  -16.5532  -42.2797 N.am      7 UNK        -0.5000 
     40 C          -0.7531  -16.3366  -40.9812 C.2       6 UNK         0.5000 
     41 O          -1.3059  -15.4611  -40.3145 O.2       6 UNK        -0.5000 
     42 CA          0.3013  -17.2519  -40.3217 C.3       6 UNK         0.1400 
     43 CB         -0.3704  -18.4823  -39.6924 C.3       6 UNK        -0.1800 
     44 N           1.3398  -17.6970  -41.2600 N.am      6 UNK        -0.5000 
     45 C           2.2235  -16.8731  -41.8400 C.2       5 UNK         0.5000 
     46 O           2.3040  -15.6740  -41.5672 O.2       5 UNK        -0.5000 
     47 CA          3.1289  -17.4904  -42.9246 C.3       5 UNK         0.1400 
     48 CB          2.2983  -17.9174  -44.1453 C.3       5 UNK        -0.1800 
     49 N           4.1374  -16.5314  -43.3695 N.am      5 UNK        -0.5000 
     50 C           5.2810  -16.2712  -42.7236 C.2       4 UNK         0.5000 
     51 O           5.7012  -16.9337  -41.7736 O.2       4 UNK        -0.5000 
     52 CA          6.0684  -15.0382  -43.2033 C.3       4 UNK         0.1400 
     53 CB          6.8472  -15.3497  -44.4906 C.3       4 UNK        -0.1800 
     54 N           5.1924  -13.8882  -43.4297 N.am      4 UNK        -0.5000 
     55 C           4.5558  -13.2076  -42.4646 C.2       3 UNK         0.5000 
     56 O           4.7268  -13.4097  -41.2617 O.2       3 UNK        -0.5000 
     57 CA          3.5700  -12.1120  -42.9088 C.3       3 UNK         0.1400 
     58 CB          4.2777  -10.7499  -42.9869 C.3       3 UNK        -0.1800 
     59 N           2.9717  -12.4143  -44.2096 N.am      3 UNK        -0.5000 
     60 C           1.7774  -12.9976  -44.3884 C.2       2 UNK         0.5000 
     61 O           1.0087  -13.2878  -43.4725 O.2       2 UNK        -0.5000 
     62 CA          1.3462  -13.2926  -45.8395 C.3       2 UNK         0.1400 
     63 CB          0.3868  -12.2013  -46.3379 C.3       2 UNK        -0.1800 
     64 N           2.4630  -13.3932  -46.7785 N.am      2 UNK        -0.5000 
     65 C           3.3753  -14.3739  -46.7882 C.2       1 UNK         0.5000 
     66 O           3.3812  -15.3103  -45.9888 O.2       1 UNK        -0.5000 
     67 C          -0.5807  -21.2911  -47.8714 C.2       11 UNK         0.5000 
     68 O          -0.0410  -22.3553  -48.1618 O.2       11 UNK        -0.5000 
     69 N          -1.6818  -20.8210  -48.4750 N.am      12 UNK        -0.5000 
     70 CA         -2.3896  -21.4836  -49.5710 C.3       12 UNK         0.1400 
     71 CB         -3.5869  -20.6171  -49.9828 C.3       12 UNK        -0.1800 
     72 C          -2.8503  -22.9081  -49.2163 C.2       12 UNK         0.5000 
     73 O          -2.6223  -23.8335  -49.9990 O.2       12 UNK        -0.5000 
     74 N          -3.4536  -23.0544  -48.0277 N.am      13 UNK        -0.5000 
     75 CA         -3.9006  -24.3251  -47.4572 C.3       13 UNK         0.1400 
     76 CB         -4.6675  -24.0588  -46.1535 C.3       13 UNK        -0.1800 
     77 C          -2.7519  -25.3217  -47.2223 C.2       13 UNK         0.5000 
     78 O          -2.9047  -26.5031  -47.5330 O.2       13 UNK        -0.5000 
     79 N          -1.6228  -24.8276  -46.6975 N.am      14 UNK        -0.5000 
     80 CA         -0.4117  -25.6141  -46.4682 C.3       14 UNK         0.1400 
     81 CB          0.5331  -24.8350  -45.5402 C.3       14 UNK        -0.1800 
     82 C           0.3054  -25.9984  -47.7756 C.2       14 UNK         0.5000 
     83 O           0.7945  -27.1231  -47.8893 O.2       14 UNK        -0.5000 
     84 N           0.3663  -25.0571  -48.7268 N.am      15 UNK        -0.5000 
     85 CA          1.0614  -25.1978  -50.0035 C.3       15 UNK         0.1400 
     86 CB          1.1744  -23.8258  -50.6883 C.3       15 UNK        -0.1800 
     87 C           0.4064  -26.2160  -50.9486 C.2       15 UNK         0.5000 
     88 O           1.1241  -27.0235  -51.5417 O.2       15 UNK        -0.5000 
     89 N          -0.9259  -26.1597  -51.0877 N.am      16 UNK        -0.5000 
     90 CA         -1.6586  -27.0093  -52.0305 C.3       16 UNK         0.1400 
     91 CB         -1.4660  -26.4884  -53.4702 C.3       16 UNK        -0.1800 
     92 C          -3.1589  -27.1379  -51.7360 C.2       16 UNK         0.5000 
     93 O          -3.7535  -28.1295  -52.1585 O.2       16 UNK        -0.5000 
     94 N          -3.7740  -26.1189  -51.1165 N.am      17 UNK        -0.5000 
     95 CA         -5.2193  -25.9155  -50.9133 C.3       17 UNK         0.1400 
     96 CB         -5.8616  -27.0580  -50.1054 C.3       17 UNK        -0.1800 
     97 C          -6.0018  -25.6170  -52.2101 C.2       17 UNK         0.5000 
     98 O          -6.9228  -24.8002  -52.1830 O.2       17 UNK        -0.5000 
     99 N          -5.5707  -26.1976  -53.3386 N.am      18 UNK        -0.5000 
    100 CA        -6.0310  -25.9266  -54.7056 C.3       18 UNK         0.1400 
    101 CB        -5.3342  -26.9079  -55.6603 C.3       18 UNK        -0.1800 
    102 C         -5.8044  -24.4702  -55.1686 C.2       18 UNK         0.5000 
    103 O         -6.4383  -24.0325  -56.1288 O.2       18 UNK        -0.5000 
    104 N         -4.9398  -23.7365  -54.4516 N.am      19 UNK        -0.5000 
    105 CA        -4.7506  -22.2870  -54.5439 C.3       19 UNK         0.1400 
    106 CB        -3.5187  -21.9058  -53.7074 C.3       19 UNK        -0.1800 
    107 C         -5.9909  -21.4672  -54.1150 C.2       19 UNK         0.5000 
    108 O         -6.0659  -20.2835  -54.4448 O.2       19 UNK        -0.5000 
    109 N         -6.9424  -22.1110  -53.4175 N.am      20 UNK        -0.5000 
    110 CA        -8.2864  -21.6289  -53.0851 C.3       20 UNK         0.1400 
    111 CB        -9.1239  -21.4341  -54.3670 C.3       20 UNK        -0.1800 
    112 C         -8.2949  -20.3966  -52.1600 C.2       20 UNK         0.5000 
    113 O         -9.1120  -19.4933  -52.3471 O.2       20 UNK        -0.5000 
    114 N         -7.3953  -20.4071  -51.1637 N.am      21 UNK        -0.5000 
    115 CA        -7.2279  -19.3942  -50.1155 C.3       21 UNK         0.1400 
    116 CB        -8.4315  -19.4063  -49.1498 C.3       21 UNK        -0.1800 
    117 C         -6.9286  -17.9959  -50.6927 C.2       21 UNK         0.5000 
    118 O         -7.7076  -17.0622  -50.4947 O.2       21 UNK        -0.5000 
    119 N         -5.8059  -17.8897  -51.4162 N.am      22 UNK        -0.5000 
    120 CA        -5.3538  -16.6726  -52.1148 C.3       22 UNK         0.1400 
    121 C         -5.0325  -15.4264  -51.2316 C.2       22 UNK         0.5000 
    122 N         -5.0374  -15.5165  -49.9080 N.am      22 UNK        -0.7600 
    123 O         -4.7824  -14.3479  -51.7623 O.2       22 UNK        -0.5000 
    124 C124       -4.2317  -16.9719  -53.1512 C.3       23 UNK        -0.0398 
    125 S125       -2.7817  -17.9169  -52.5512 S.3       23 UNK        -0.2404 
    126 C126       -1.9961  -16.7352  -51.4102 C.3       23 UNK        -0.0205 
    127 H127        5.2923   -9.9004  -46.9727 H         1 UNK         0.0600 
    128 H128        5.7526  -10.4999  -48.5695 H         1 UNK         0.0600 
    129 H129        6.9290  -10.5044  -47.2515 H         1 UNK         0.0600 
    130 H130        4.9296  -12.5336  -48.9791 H         1 UNK         0.3000 
    131 H131        5.3592  -14.7947  -47.4122 H         1 UNK         0.0600 
    132 H132        5.0520  -15.1195  -49.7357 H         1 UNK         0.0800 
    133 H133        3.7106  -15.9208  -48.9731 H         1 UNK         0.0800 
    134 H134        2.4200  -14.5061  -52.4905 H         1 UNK         0.0800 
    135 H135        3.7382  -15.5068  -51.9394 H         1 UNK         0.0800 
    136 H136        0.0748  -15.0486  -51.9362 H         1 UNK         0.1150 
    137 H137       -0.7669  -18.9570  -50.3927 H         1 UNK         0.1150 
    138 H138        3.2827  -17.5679  -50.6276 H         1 UNK         0.1150 
    139 H139        1.0791  -20.4935  -49.9568 H         1 UNK         0.0800 
    140 H140        2.6946  -20.0377  -50.3982 H         1 UNK         0.0800 
    141 H141        0.0463  -18.6094  -47.9404 H         1 UNK         0.0800 
    142 H142        0.9039  -18.4897  -46.4480 H         1 UNK         0.0800 
    143 H143        0.7500  -21.0485  -46.2129 H         1 UNK         0.0600 
    144 H144       -1.2125  -19.1499  -45.5595 H         1 UNK         0.3000 
    145 H145       -3.6398  -21.3217  -44.0778 H         1 UNK         0.0600 
    146 H146       -3.2999  -19.6360  -42.2634 H         1 UNK         0.0600 
    147 H147       -2.0053  -20.8226  -42.2940 H         1 UNK         0.0600 
    148 H148       -1.7276  -19.2143  -42.9395 H         1 UNK         0.0600 
    149 H149       -3.4903  -18.4887  -44.6057 H         1 UNK         0.3000 
    150 H150       -5.1072  -18.5852  -47.7760 H         1 UNK         0.0600 
    151 H151       -6.9850  -18.7729  -46.1292 H         1 UNK         0.0600 
    152 H152       -6.7294  -17.1117  -46.6400 H         1 UNK         0.0600 
    153 H153       -6.1633  -17.6462  -45.0570 H         1 UNK         0.0600 
    154 H154       -4.2607  -16.4453  -46.0632 H         1 UNK         0.3000 
    155 H155       -0.9016  -16.2454  -47.2452 H         1 UNK         0.0600 
    156 H156       -3.3057  -14.4036  -47.7209 H         1 UNK         0.0600 
    157 H157       -1.6128  -13.9235  -47.7467 H         1 UNK         0.0600 
    158 H158       -2.2240  -15.0179  -48.9675 H         1 UNK         0.0600 
    159 H159       -2.4144  -14.6450  -45.4175 H         1 UNK         0.3000 
    160 H160       -1.5697  -14.7369  -43.1244 H         1 UNK         0.0600 
    161 H161       -3.6093  -17.0382  -42.8078 H         1 UNK         0.0600 
    162 H162       -3.9814  -15.4671  -43.5089 H         1 UNK         0.0600 
    163 H163       -3.5466  -15.5850  -41.8173 H         1 UNK         0.0600 
    164 H164       -0.4696  -17.2829  -42.7546 H         1 UNK         0.3000 
    165 H165        0.7836  -16.6808  -39.5256 H         1 UNK         0.0600 
    166 H166        0.3535  -19.0964  -39.1566 H         1 UNK         0.0600 
    167 H167       -1.1361  -18.1841  -38.9750 H         1 UNK         0.0600 
    168 H168       -0.8521  -19.1083  -40.4440 H         1 UNK         0.0600 
    169 H169        1.3349  -18.6749  -41.5110 H         1 UNK         0.3000 
    170 H170        3.6220  -18.3706  -42.5071 H         1 UNK         0.0600 
    171 H171        1.5730  -18.6903  -43.8890 H         1 UNK         0.0600 
    172 H172        1.7465  -17.0754  -44.5660 H         1 UNK         0.0600 
    173 H173        2.9358  -18.3221  -44.9318 H         1 UNK         0.0600 
    174 H174        3.8695  -15.9342  -44.1455 H         1 UNK         0.3000 
    175 H175        6.7874  -14.7711  -42.4260 H         1 UNK         0.0600 
    176 H176        7.5507  -16.1676  -44.3310 H         1 UNK         0.0600 
    177 H177        6.1819  -15.6437  -45.3024 H         1 UNK         0.0600 
    178 H178        7.4213  -14.4850  -44.8242 H         1 UNK         0.0600 
    179 H179        5.0764  -13.5863  -44.3906 H         1 UNK         0.3000 
    180 H180        2.7896  -12.0419  -42.1480 H         1 UNK         0.0600 
    181 H181        5.0844  -10.7535  -43.7207 H         1 UNK         0.0600 
    182 H182        4.7126  -10.4813  -42.0234 H         1 UNK         0.0600 
    183 H183        3.5795   -9.9587  -43.2602 H         1 UNK         0.0600 
    184 H184        3.5543  -12.2377  -45.0183 H         1 UNK         0.3000 
    185 H185        0.8170  -14.2480  -45.8424 H         1 UNK         0.0600 
    186 H186       -0.5207  -12.1739  -45.7334 H         1 UNK         0.0600 
    187 H187        0.8445  -11.2124  -46.2889 H         1 UNK         0.0600 
    188 H188        0.0872  -12.3758  -47.3709 H         1 UNK         0.0600 
    189 H189        2.5456  -12.6604  -47.4684 H         1 UNK         0.3000 
    190 H190       -2.0426  -19.9140  -48.1907 H         1 UNK         0.3000 
    191 H191       -1.7032  -21.5523  -50.4172 H         1 UNK         0.0600 
    192 H192       -4.2936  -20.5146  -49.1625 H         1 UNK         0.0600 
    193 H193       -4.1243  -21.0470  -50.8266 H         1 UNK         0.0600 
    194 H194       -3.2675  -19.6162  -50.2671 H         1 UNK         0.0600 
    195 H195       -3.6254  -22.2256  -47.4664 H         1 UNK         0.3000 
    196 H196       -4.5939  -24.7831  -48.1622 H         1 UNK         0.0600 
    197 H197       -5.0284  -24.9896  -45.7143 H         1 UNK         0.0600 
    198 H198       -5.5360  -23.4241  -46.3306 H         1 UNK         0.0600 
    199 H199       -4.0401  -23.5653  -45.4107 H         1 UNK         0.0600 
    200 H200       -1.5860  -23.8474  -46.4362 H         1 UNK         0.3000 
    201 H201       -0.6962  -26.5381  -45.9604 H         1 UNK         0.0600 
    202 H202        0.0588  -24.6269  -44.5810 H         1 UNK         0.0600 
    203 H203        0.8320  -23.8816  -45.9775 H         1 UNK         0.0600 
    204 H204        1.4413  -25.4043  -45.3384 H         1 UNK         0.0600 
    205 H205       -0.0029  -24.1311  -48.5185 H         1 UNK         0.3000 
    206 H206        2.0736  -25.5488  -49.7922 H         1 UNK         0.0600 
    207 H207        1.7552  -23.1306  -50.0820 H         1 UNK         0.0600 
    208 H208        1.6750  -23.9084  -51.6538 H         1 UNK         0.0600 
    209 H209        0.1941  -23.3805  -50.8624 H         1 UNK         0.0600 
    210 H210       -1.4495  -25.4769  -50.5520 H         1 UNK         0.3000 
    211 H211       -1.2527  -28.0217  -51.9704 H         1 UNK         0.0600 
    212 H212       -1.8059  -25.4568  -53.5705 H         1 UNK         0.0600 
    213 H213       -2.0266  -27.0903  -54.1867 H         1 UNK         0.0600 
    214 H214       -0.4204  -26.5259  -53.7754 H         1 UNK         0.0600 
    215 H215       -3.2142  -25.3230  -50.8198 H         1 UNK         0.3000 
    216 H216       -5.2985  -25.0095  -50.3126 H         1 UNK         0.0600 
    217 H217       -6.8899  -26.8113  -49.8388 H         1 UNK         0.0600 
    218 H218       -5.3184  -27.2365  -49.1772 H         1 UNK         0.0600 
    219 H219       -5.8890  -27.9932  -50.6646 H         1 UNK         0.0600 
    220 H220       -4.8452  -26.8995  -53.2367 H         1 UNK         0.3000 
    221 H221       -7.1059  -26.1143  -54.7375 H         1 UNK         0.0600 
    222 H222       -4.2516  -26.7747  -55.6527 H         1 UNK         0.0600 
    223 H223       -5.5469  -27.9419  -55.3879 H         1 UNK         0.0600 
    224 H224       -5.6759  -26.7666  -56.6865 H         1 UNK         0.0600 
    225 H225       -4.4530  -24.2013  -53.7007 H         1 UNK         0.3000 
    226 H226       -4.5485  -22.0369  -55.5872 H         1 UNK         0.0600 
    227 H227       -2.6101  -22.3306  -54.1344 H         1 UNK         0.0600 
    228 H228       -3.3820  -20.8241  -53.6693 H         1 UNK         0.0600 
    229 H229       -3.6012  -22.2681  -52.6832 H         1 UNK         0.0600 
    230 H230       -6.7707  -23.0768  -53.1558 H         1 UNK         0.3000 
    231 H231       -8.7561  -22.4307  -52.5134 H         1 UNK         0.0600 
    232 H232      -10.1659  -21.2205  -54.1260 H         1 UNK         0.0600 
    233 H233       -9.1127  -22.3324  -54.9844 H         1 UNK         0.0600 
    234 H234       -8.7519  -20.6069  -54.9722 H         1 UNK         0.0600 
    235 H235       -6.7699  -21.1983  -51.1181 H         1 UNK         0.3000 
    236 H236       -6.3550  -19.6849  -49.5348 H         1 UNK         0.0600 
    237 H237       -9.3610  -19.1350  -49.6512 H         1 UNK         0.0600 
    238 H238       -8.5673  -20.3913  -48.7031 H         1 UNK         0.0600 
    239 H239       -8.2845  -18.6980  -48.3340 H         1 UNK         0.0600 
    240 H240       -5.2258  -18.7043  -51.5496 H         1 UNK         0.3000 
    241 H241       -6.2157  -16.3484  -52.7012 H         1 UNK         0.0600 
    242 H242       -4.8633  -14.6876  -49.3646 H         1 UNK         0.3800 
    243 H243       -5.2940  -16.3769  -49.4563 H         1 UNK         0.3800 
    244 H244       -4.6646  -17.5606  -53.9614 H         1 UNK         0.0800 
    245 H245       -3.8812  -16.0554  -53.6291 H         1 UNK         0.0800 
    246 H246       -2.1554  -15.7198  -51.7757 H         1 UNK         0.0800 
    247 H247       -2.4971  -16.8048  -50.4460 H         1 UNK         0.0800 
@<TRIPOS>BOND
     1    1    2 1    
     2    1  127 1    
     3    1  128 1    
     4    1  129 1    
     5    2    3 2    
     6    2    4 am   BACKBONE|DICT|INTERRES
     7    4    5 1    
     8    4  130 1    
     9    5    6 1    
    10    5   65 1    
    11    5  131 1    
    12    6    7 1    
    13    6  132 1    
    14    6  133 1    
    15    7    8 1    
    16    8    9 1    
    17    8  134 1    
    18    8  135 1    
    19    9   10 ar   
    20    9   14 ar   
    21   10   11 ar   
    22   10  136 1    
    23   11   12 ar   
    24   11  126 1    
    25   12   13 ar   
    26   12  137 1    
    27   13   14 ar   
    28   13   15 1    
    29   14  138 1    
    30   15   16 1    
    31   15  139 1    
    32   15  140 1    
    33   16   17 1    
    34   17   18 1    
    35   17  141 1    
    36   17  142 1    
    37   18   19 1    
    38   18   67 1    
    39   18  143 1    
    40   19   20 am   BACKBONE|DICT|INTERRES
    41   19  144 1    
    42   20   21 2    
    43   20   22 1    
    44   22   23 1    
    45   22   24 1    
    46   22  145 1    
    47   23  146 1    
    48   23  147 1    
    49   23  148 1    
    50   24   25 am   BACKBONE|DICT|INTERRES
    51   24  149 1    
    52   25   26 2    
    53   25   27 1    
    54   27   28 1    
    55   27   29 1    
    56   27  150 1    
    57   28  151 1    
    58   28  152 1    
    59   28  153 1    
    60   29   30 am   BACKBONE|DICT|INTERRES
    61   29  154 1    
    62   30   31 2    
    63   30   32 1    
    64   32   33 1    
    65   32   34 1    
    66   32  155 1    
    67   33  156 1    
    68   33  157 1    
    69   33  158 1    
    70   34   35 am   BACKBONE|DICT|INTERRES
    71   34  159 1    
    72   35   36 2    
    73   35   37 1    
    74   37   38 1    
    75   37   39 1    
    76   37  160 1    
    77   38  161 1    
    78   38  162 1    
    79   38  163 1    
    80   39   40 am   BACKBONE|DICT|INTERRES
    81   39  164 1    
    82   40   41 2    
    83   40   42 1    
    84   42   43 1    
    85   42   44 1    
    86   42  165 1    
    87   43  166 1    
    88   43  167 1    
    89   43  168 1    
    90   44   45 am   BACKBONE|DICT|INTERRES
    91   44  169 1    
    92   45   46 2    
    93   45   47 1    
    94   47   48 1    
    95   47   49 1    
    96   47  170 1    
    97   48  171 1    
    98   48  172 1    
    99   48  173 1    
   100   49   50 am   BACKBONE|DICT|INTERRES
   101   49  174 1    
   102   50   51 2    
   103   50   52 1    
   104   52   53 1    
   105   52   54 1    
   106   52  175 1    
   107   53  176 1    
   108   53  177 1    
   109   53  178 1    
   110   54   55 am   BACKBONE|DICT|INTERRES
   111   54  179 1    
   112   55   56 2    
   113   55   57 1    
   114   57   58 1    
   115   57   59 1    
   116   57  180 1    
   117   58  181 1    
   118   58  182 1    
   119   58  183 1    
   120   59   60 am   BACKBONE|DICT|INTERRES
   121   59  184 1    
   122   60   61 2    
   123   60   62 1    
   124   62   63 1    
   125   62   64 1    
   126   62  185 1    
   127   63  186 1    
   128   63  187 1    
   129   63  188 1    
   130   64   65 am   BACKBONE|DICT|INTERRES
   131   64  189 1    
   132   65   66 2    
   133   67   68 2    
   134   67   69 am   BACKBONE|DICT|INTERRES
   135   69   70 1    
   136   69  190 1    
   137   70   71 1    
   138   70   72 1    
   139   70  191 1    
   140   71  192 1    
   141   71  193 1    
   142   71  194 1    
   143   72   73 2    
   144   72   74 am   BACKBONE|DICT|INTERRES
   145   74   75 1    
   146   74  195 1    
   147   75   76 1    
   148   75   77 1    
   149   75  196 1    
   150   76  197 1    
   151   76  198 1    
   152   76  199 1    
   153   77   78 2    
   154   77   79 am   BACKBONE|DICT|INTERRES
   155   79   80 1    
   156   79  200 1    
   157   80   81 1    
   158   80   82 1    
   159   80  201 1    
   160   81  202 1    
   161   81  203 1    
   162   81  204 1    
   163   82   83 2    
   164   82   84 am   BACKBONE|DICT|INTERRES
   165   84   85 1    
   166   84  205 1    
   167   85   86 1    
   168   85   87 1    
   169   85  206 1    
   170   86  207 1    
   171   86  208 1    
   172   86  209 1    
   173   87   88 2    
   174   87   89 am   BACKBONE|DICT|INTERRES
   175   89   90 1    
   176   89  210 1    
   177   90   91 1    
   178   90   92 1    
   179   90  211 1    
   180   91  212 1    
   181   91  213 1    
   182   91  214 1    
   183   92   93 2    
   184   92   94 am   BACKBONE|DICT|INTERRES
   185   94   95 1    
   186   94  215 1    
   187   95   96 1    
   188   95   97 1    
   189   95  216 1    
   190   96  217 1    
   191   96  218 1    
   192   96  219 1    
   193   97   98 2    
   194   97   99 am   BACKBONE|DICT|INTERRES
   195   99  100 1    
   196   99  220 1    
   197  100  101 1    
   198  100  102 1    
   199  100  221 1    
   200  101  222 1    
   201  101  223 1    
   202  101  224 1    
   203  102  103 2    
   204  102  104 am   BACKBONE|DICT|INTERRES
   205  104  105 1    
   206  104  225 1    
   207  105  106 1    
   208  105  107 1    
   209  105  226 1    
   210  106  227 1    
   211  106  228 1    
   212  106  229 1    
   213  107  108 2    
   214  107  109 am   BACKBONE|DICT|INTERRES
   215  109  110 1    
   216  109  230 1    
   217  110  111 1    
   218  110  112 1    
   219  110  231 1    
   220  111  232 1    
   221  111  233 1    
   222  111  234 1    
   223  112  113 2    
   224  112  114 am   BACKBONE|DICT|INTERRES
   225  114  115 1    
   226  114  235 1    
   227  115  116 1    
   228  115  117 1    
   229  115  236 1    
   230  116  237 1    
   231  116  238 1    
   232  116  239 1    
   233  117  118 2    
   234  117  119 am   BACKBONE|DICT|INTERRES
   235  119  120 1    
   236  119  240 1    
   237  120  121 1    
   238  120  124 1    
   239  120  241 1    
   240  121  122 am   BACKBONE|DICT|INTERRES
   241  121  123 2    
   242  122  242 1    
   243  122  243 1    
   244  124  125 1    
   245  124  244 1    
   246  124  245 1    
   247  125  126 1    
   248  126  246 1    
   249  126  247 1    
@<TRIPOS>SUBSTRUCTURE
     1 UNK         1 GROUP             0       ****    0 ROOT    
