@<TRIPOS>MOLECULE
3R540
247   249    1
SMALL
USER_CHARGES


@<TRIPOS>ATOM
      1 CA          5.9474   -9.8264  -47.1484 C.3       0 UNK        -0.1800 
      2 C           4.7166  -10.5735  -46.6586 C.2       0 UNK         0.5000 
      3 O           4.3415  -10.4402  -45.4946 O.2       0 UNK        -0.5000 
      4 N           4.0698  -11.3426  -47.5434 N.am      1 UNK        -0.5000 
      5 CA          2.9063  -12.1985  -47.2571 C.3       1 UNK         0.1400 
      6 C6          2.5934  -13.1497  -48.4353 C.3       23 UNK        -0.0398 
      7 S7          3.9867  -14.2833  -48.7670 S.3       23 UNK        -0.2404 
      8 C8          3.4161  -15.8080  -47.9524 C.3       23 UNK        -0.0205 
      9 C9          2.8073  -16.7897  -48.9448 C.ar      23 UNK        -0.0193 
     10 C10         1.5852  -16.5125  -49.5693 C.ar      23 UNK        -0.1150 
     11 C11         1.0143  -17.4343  -50.4507 C.ar      23 UNK        -0.0193 
     12 C12         1.6943  -18.6189  -50.7376 C.ar      23 UNK        -0.1150 
     13 C13         2.8888  -18.9323  -50.0877 C.ar      23 UNK        -0.0193 
     14 C14         3.4489  -18.0059  -49.2034 C.ar      23 UNK        -0.1150 
     15 C15         3.5337  -20.2988  -50.2900 C.3       23 UNK        -0.0205 
     16 S16         2.3666  -21.6807  -50.0109 S.3       23 UNK        -0.2404 
     17 C17         1.5789  -21.1801  -48.4410 C.3       23 UNK        -0.0398 
     18 CA          0.8311  -22.3266  -47.7257 C.3       11 UNK         0.1400 
     19 N           0.6269  -22.0178  -46.3088 N.am      11 UNK        -0.5000 
     20 C           0.2082  -22.8938  -45.3869 C.2       10 UNK         0.5000 
     21 O          -0.0251  -24.0774  -45.6277 O.2       10 UNK        -0.5000 
     22 CA         -0.0289  -22.3484  -43.9669 C.3       10 UNK         0.1400 
     23 CB          1.2969  -22.2183  -43.2028 C.3       10 UNK        -0.1800 
     24 N          -0.7298  -21.0634  -43.9649 N.am      10 UNK        -0.5000 
     25 C          -1.9781  -20.8843  -44.4210 C.2       9 UNK         0.5000 
     26 O          -2.6839  -21.7946  -44.8528 O.2       9 UNK        -0.5000 
     27 CA         -2.5148  -19.4422  -44.4465 C.3       9 UNK         0.1400 
     28 CB         -2.9909  -19.0104  -43.0519 C.3       9 UNK        -0.1800 
     29 N          -1.5368  -18.4808  -44.9556 N.am      9 UNK        -0.5000 
     30 C          -0.9994  -18.5169  -46.1832 C.2       8 UNK         0.5000 
     31 O          -1.2905  -19.3568  -47.0320 O.2       8 UNK        -0.5000 
     32 CA          0.0958  -17.4833  -46.4921 C.3       8 UNK         0.1400 
     33 CB         -0.5082  -16.1004  -46.7825 C.3       8 UNK        -0.1800 
     34 N           1.0809  -17.3848  -45.4152 N.am      8 UNK        -0.5000 
     35 C           1.8814  -18.3920  -45.0359 C.2       7 UNK         0.5000 
     36 O           1.9160  -19.4896  -45.5909 O.2       7 UNK        -0.5000 
     37 CA          2.7438  -18.1524  -43.7872 C.3       7 UNK         0.1400 
     38 CB          4.0360  -17.4029  -44.1471 C.3       7 UNK        -0.1800 
     39 N           2.0040  -17.4212  -42.7576 N.am      7 UNK        -0.5000 
     40 C           0.9877  -17.9436  -42.0537 C.2       6 UNK         0.5000 
     41 O           0.6062  -19.1081  -42.1690 O.2       6 UNK        -0.5000 
     42 CA          0.2442  -16.9968  -41.0928 C.3       6 UNK         0.1400 
     43 CB          0.9581  -16.9344  -39.7346 C.3       6 UNK        -0.1800 
     44 N           0.1053  -15.6430  -41.6303 N.am      6 UNK        -0.5000 
     45 C          -0.6163  -15.3247  -42.7147 C.2       5 UNK         0.5000 
     46 O          -1.2993  -16.1354  -43.3377 O.2       5 UNK        -0.5000 
     47 CA         -0.5203  -13.8718  -43.2163 C.3       5 UNK         0.1400 
     48 CB         -1.6614  -13.0204  -42.6422 C.3       5 UNK        -0.1800 
     49 N           0.7592  -13.2376  -42.8971 N.am      5 UNK        -0.5000 
     50 C           1.9500  -13.6201  -43.3737 C.2       4 UNK         0.5000 
     51 O           2.0967  -14.5765  -44.1378 O.2       4 UNK        -0.5000 
     52 CA          3.1652  -12.7987  -42.8960 C.3       4 UNK         0.1400 
     53 CB          4.4946  -13.2951  -43.4925 C.3       4 UNK        -0.1800 
     54 N           3.0073  -11.3747  -43.1942 N.am      4 UNK        -0.5000 
     55 C           2.2716  -10.5017  -42.4916 C.2       3 UNK         0.5000 
     56 O           1.6351  -10.8069  -41.4821 O.2       3 UNK        -0.5000 
     57 CA          2.1957   -9.0674  -43.0368 C.3       3 UNK         0.1400 
     58 CB          3.5088   -8.3111  -42.7801 C.3       3 UNK        -0.1800 
     59 N           1.9153   -9.0879  -44.4709 N.am      3 UNK        -0.5000 
     60 C           0.6908   -9.0084  -45.0109 C.2       2 UNK         0.5000 
     61 O          -0.3347   -8.8100  -44.3586 O.2       2 UNK        -0.5000 
     62 CA          0.5890   -9.1949  -46.5392 C.3       2 UNK         0.1400 
     63 CB          0.7072   -7.8419  -47.2570 C.3       2 UNK        -0.1800 
     64 N           1.6073  -10.1061  -47.0638 N.am      2 UNK        -0.5000 
     65 C           1.6419  -11.4242  -46.8214 C.2       1 UNK         0.5000 
     66 O           0.7354  -12.0291  -46.2496 O.2       1 UNK        -0.5000 
     67 C          -0.4949  -22.6961  -48.4294 C.2       11 UNK         0.5000 
     68 O          -0.5410  -23.6902  -49.1537 O.2       11 UNK        -0.5000 
     69 N          -1.5655  -21.9352  -48.1591 N.am      12 UNK        -0.5000 
     70 CA         -2.9194  -22.1994  -48.6490 C.3       12 UNK         0.1400 
     71 CB         -3.8333  -21.0179  -48.2934 C.3       12 UNK        -0.1800 
     72 C          -3.5018  -23.5228  -48.1165 C.2       12 UNK         0.5000 
     73 O          -4.1448  -24.2476  -48.8761 O.2       12 UNK        -0.5000 
     74 N          -3.2389  -23.8323  -46.8386 N.am      13 UNK        -0.5000 
     75 CA         -3.6011  -25.0983  -46.2012 C.3       13 UNK         0.1400 
     76 CB         -3.3980  -24.9981  -44.6823 C.3       13 UNK        -0.1800 
     77 C          -2.8240  -26.2931  -46.7818 C.2       13 UNK         0.5000 
     78 O          -3.4228  -27.3425  -47.0139 O.2       13 UNK        -0.5000 
     79 N          -1.5235  -26.1084  -47.0528 N.am      14 UNK        -0.5000 
     80 CA         -0.6628  -27.0938  -47.7152 C.3       14 UNK         0.1400 
     81 CB          0.8009  -26.6329  -47.6465 C.3       14 UNK        -0.1800 
     82 C          -1.0830  -27.3751  -49.1717 C.2       14 UNK         0.5000 
     83 O          -0.9654  -28.5123  -49.6289 O.2       14 UNK        -0.5000 
     84 N          -1.6100  -26.3497  -49.8557 N.am      15 UNK        -0.5000 
     85 CA         -2.2188  -26.4424  -51.1851 C.3       15 UNK         0.1400 
     86 CB         -2.2965  -25.0353  -51.7981 C.3       15 UNK        -0.1800 
     87 C          -3.6084  -27.1192  -51.1843 C.2       15 UNK         0.5000 
     88 O          -4.1337  -27.4069  -52.2607 O.2       15 UNK        -0.5000 
     89 N          -4.1783  -27.3573  -49.9931 N.am      16 UNK        -0.5000 
     90 CA         -5.4287  -28.0534  -49.6663 C.3       16 UNK         0.1400 
     91 CB         -5.4111  -29.5080  -50.1731 C.3       16 UNK        -0.1800 
     92 C          -6.7117  -27.3245  -50.1023 C.2       16 UNK         0.5000 
     93 O          -7.6307  -27.1866  -49.2939 O.2       16 UNK        -0.5000 
     94 N          -6.7633  -26.8793  -51.3619 N.am      17 UNK        -0.5000 
     95 CA         -7.9044  -26.1816  -51.9549 C.3       17 UNK         0.1400 
     96 CB         -7.7751  -26.2291  -53.4845 C.3       17 UNK        -0.1800 
     97 C          -8.0543  -24.7301  -51.4608 C.2       17 UNK         0.5000 
     98 O          -9.1760  -24.2207  -51.4344 O.2       17 UNK        -0.5000 
     99 N          -6.9292  -24.1079  -51.0739 N.am      18 UNK        -0.5000 
    100 CA        -6.7873  -22.7212  -50.6158 C.3       18 UNK         0.1400 
    101 CB        -7.4767  -22.5407  -49.2454 C.3       18 UNK        -0.1800 
    102 C         -7.2344  -21.6766  -51.6665 C.2       18 UNK         0.5000 
    103 O         -7.3653  -22.0052  -52.8488 O.2       18 UNK        -0.5000 
    104 N         -7.4189  -20.4220  -51.2271 N.am      19 UNK        -0.5000 
    105 CA        -7.8267  -19.2595  -52.0252 C.3       19 UNK         0.1400 
    106 CB        -9.3153  -19.3803  -52.4227 C.3       19 UNK        -0.1800 
    107 C         -6.8741  -19.0245  -53.2166 C.2       19 UNK         0.5000 
    108 O         -5.7156  -18.6693  -52.9970 O.2       19 UNK        -0.5000 
    109 N         -7.3498  -19.2716  -54.4447 N.am      20 UNK        -0.5000 
    110 CA        -6.5766  -19.1885  -55.6861 C.3       20 UNK         0.1400 
    111 CB        -7.5176  -19.4215  -56.8774 C.3       20 UNK        -0.1800 
    112 C         -5.3806  -20.1609  -55.7464 C.2       20 UNK         0.5000 
    113 O         -4.3942  -19.8585  -56.4203 O.2       20 UNK        -0.5000 
    114 N         -5.4552  -21.2822  -55.0113 N.am      21 UNK        -0.5000 
    115 CA        -4.3870  -22.2810  -54.9031 C.3       21 UNK         0.1400 
    116 CB        -4.9451  -23.5627  -54.2688 C.3       21 UNK        -0.1800 
    117 C         -3.1427  -21.7819  -54.1388 C.2       21 UNK         0.5000 
    118 O         -2.1026  -22.4373  -54.2041 O.2       21 UNK        -0.5000 
    119 N         -3.2485  -20.6266  -53.4636 N.am      22 UNK        -0.5000 
    120 CA        -2.1032  -19.8679  -52.9364 C.3       22 UNK         0.1400 
    121 C         -1.1493  -19.3345  -54.0515 C.2       22 UNK         0.5000 
    122 N         -1.6123  -19.1287  -55.2811 N.am      22 UNK        -0.7600 
    123 O          0.0350  -19.1278  -53.8099 O.2       22 UNK        -0.5000 
    124 C124       -2.5729  -18.7209  -51.9943 C.3       23 UNK        -0.0398 
    125 S125       -1.5173  -18.5027  -50.5257 S.3       23 UNK        -0.2404 
    126 C126       -0.3598  -17.1962  -51.0568 C.3       23 UNK        -0.0205 
    127 H127        6.8199  -10.1232  -46.5667 H         1 UNK         0.0600 
    128 H128        6.1532  -10.0292  -48.1995 H         1 UNK         0.0600 
    129 H129        5.8059   -8.7525  -47.0289 H         1 UNK         0.0600 
    130 H130        4.4312  -11.4132  -48.4842 H         1 UNK         0.3000 
    131 H131        3.1716  -12.8211  -46.4014 H         1 UNK         0.0600 
    132 H132        2.3858  -12.5806  -49.3429 H         1 UNK         0.0800 
    133 H133        1.6937  -13.7310  -48.2323 H         1 UNK         0.0800 
    134 H134        2.6995  -15.5797  -47.1626 H         1 UNK         0.0800 
    135 H135        4.2712  -16.2617  -47.4492 H         1 UNK         0.0800 
    136 H136        1.0632  -15.5937  -49.3504 H         1 UNK         0.1150 
    137 H137        1.2496  -19.3366  -51.4128 H         1 UNK         0.1150 
    138 H138        4.3740  -18.2424  -48.6968 H         1 UNK         0.1150 
    139 H139        3.9254  -20.3620  -51.3059 H         1 UNK         0.0800 
    140 H140        4.3856  -20.4242  -49.6199 H         1 UNK         0.0800 
    141 H141        0.9125  -20.3327  -48.6129 H         1 UNK         0.0800 
    142 H142        2.3772  -20.8090  -47.7973 H         1 UNK         0.0800 
    143 H143        1.4710  -23.2111  -47.7582 H         1 UNK         0.0600 
    144 H144        0.8324  -21.0653  -46.0207 H         1 UNK         0.3000 
    145 H145       -0.6548  -23.0689  -43.4364 H         1 UNK         0.0600 
    146 H146        1.1273  -21.9149  -42.1696 H         1 UNK         0.0600 
    147 H147        1.8294  -23.1699  -43.1794 H         1 UNK         0.0600 
    148 H148        1.9574  -21.4828  -43.6624 H         1 UNK         0.0600 
    149 H149       -0.2269  -20.2698  -43.5806 H         1 UNK         0.3000 
    150 H150       -3.3747  -19.4218  -45.1189 H         1 UNK         0.0600 
    151 H151       -3.7408  -19.7010  -42.6642 H         1 UNK         0.0600 
    152 H152       -3.4445  -18.0195  -43.0798 H         1 UNK         0.0600 
    153 H153       -2.1692  -18.9817  -42.3362 H         1 UNK         0.0600 
    154 H154       -1.2787  -17.7215  -44.3301 H         1 UNK         0.3000 
    155 H155        0.6191  -17.8278  -47.3844 H         1 UNK         0.0600 
    156 H156       -1.1268  -15.7442  -45.9595 H         1 UNK         0.0600 
    157 H157       -1.1384  -16.1366  -47.6720 H         1 UNK         0.0600 
    158 H158        0.2658  -15.3547  -46.9604 H         1 UNK         0.0600 
    159 H159        1.1276  -16.5111  -44.9066 H         1 UNK         0.3000 
    160 H160        3.0224  -19.1263  -43.3790 H         1 UNK         0.0600 
    161 H161        4.6504  -17.2261  -43.2642 H         1 UNK         0.0600 
    162 H162        3.8348  -16.4398  -44.6155 H         1 UNK         0.0600 
    163 H163        4.6352  -17.9837  -44.8494 H         1 UNK         0.0600 
    164 H164        2.2184  -16.4396  -42.6565 H         1 UNK         0.3000 
    165 H165       -0.7573  -17.4020  -40.9343 H         1 UNK         0.0600 
    166 H166        0.3990  -16.3267  -39.0229 H         1 UNK         0.0600 
    167 H167        1.0585  -17.9304  -39.3012 H         1 UNK         0.0600 
    168 H168        1.9599  -16.5124  -39.8234 H         1 UNK         0.0600 
    169 H169        0.6296  -14.9121  -41.1729 H         1 UNK         0.3000 
    170 H170       -0.6195  -13.8903  -44.3036 H         1 UNK         0.0600 
    171 H171       -2.6325  -13.4538  -42.8854 H         1 UNK         0.0600 
    172 H172       -1.5980  -12.9415  -41.5562 H         1 UNK         0.0600 
    173 H173       -1.6439  -12.0110  -43.0543 H         1 UNK         0.0600 
    174 H174        0.7358  -12.4303  -42.2831 H         1 UNK         0.3000 
    175 H175        3.2282  -12.9239  -41.8132 H         1 UNK         0.0600 
    176 H176        4.5122  -13.2109  -44.5784 H         1 UNK         0.0600 
    177 H177        5.3371  -12.7240  -43.1023 H         1 UNK         0.0600 
    178 H178        4.6699  -14.3418  -43.2416 H         1 UNK         0.0600 
    179 H179        3.4926  -11.0391  -44.0239 H         1 UNK         0.3000 
    180 H180        1.3983   -8.5437  -42.5053 H         1 UNK         0.0600 
    181 H181        4.3553   -8.7787  -43.2843 H         1 UNK         0.0600 
    182 H182        3.7380   -8.2799  -41.7142 H         1 UNK         0.0600 
    183 H183        3.4416   -7.2804  -43.1284 H         1 UNK         0.0600 
    184 H184        2.7002   -9.3099  -45.0723 H         1 UNK         0.3000 
    185 H185       -0.3947   -9.6150  -46.7593 H         1 UNK         0.0600 
    186 H186       -0.0547   -7.1455  -46.9042 H         1 UNK         0.0600 
    187 H187        1.6797   -7.3785  -47.0866 H         1 UNK         0.0600 
    188 H188        0.5711   -7.9529  -48.3330 H         1 UNK         0.0600 
    189 H189        2.3875   -9.6891  -47.5501 H         1 UNK         0.3000 
    190 H190       -1.4461  -21.0969  -47.5931 H         1 UNK         0.3000 
    191 H191       -2.8689  -22.2729  -49.7374 H         1 UNK         0.0600 
    192 H192       -3.8960  -20.8689  -47.2152 H         1 UNK         0.0600 
    193 H193       -4.8453  -21.1769  -48.6622 H         1 UNK         0.0600 
    194 H194       -3.4691  -20.0912  -48.7366 H         1 UNK         0.0600 
    195 H195       -2.7661  -23.1485  -46.2545 H         1 UNK         0.3000 
    196 H196       -4.6629  -25.2732  -46.3874 H         1 UNK         0.0600 
    197 H197       -3.6776  -25.9295  -44.1885 H         1 UNK         0.0600 
    198 H198       -4.0134  -24.2063  -44.2548 H         1 UNK         0.0600 
    199 H199       -2.3595  -24.7891  -44.4258 H         1 UNK         0.0600 
    200 H200       -1.0833  -25.2368  -46.7712 H         1 UNK         0.3000 
    201 H201       -0.7469  -28.0317  -47.1624 H         1 UNK         0.0600 
    202 H202        1.1233  -26.4968  -46.6141 H         1 UNK         0.0600 
    203 H203        0.9529  -25.6900  -48.1712 H         1 UNK         0.0600 
    204 H204        1.4638  -27.3708  -48.0999 H         1 UNK         0.0600 
    205 H205       -1.5868  -25.4277  -49.4318 H         1 UNK         0.3000 
    206 H206       -1.5650  -27.0483  -51.8155 H         1 UNK         0.0600 
    207 H207       -1.3223  -24.5459  -51.7958 H         1 UNK         0.0600 
    208 H208       -2.6275  -25.0831  -52.8351 H         1 UNK         0.0600 
    209 H209       -2.9937  -24.3936  -51.2604 H         1 UNK         0.0600 
    210 H210       -3.6695  -27.0368  -49.1788 H         1 UNK         0.3000 
    211 H211       -5.4589  -28.0963  -48.5769 H         1 UNK         0.0600 
    212 H212       -5.3926  -29.5632  -51.2617 H         1 UNK         0.0600 
    213 H213       -6.2973  -30.0470  -49.8359 H         1 UNK         0.0600 
    214 H214       -4.5408  -30.0447  -49.7950 H         1 UNK         0.0600 
    215 H215       -5.9491  -27.0400  -51.9497 H         1 UNK         0.3000 
    216 H216       -8.8162  -26.7151  -51.6777 H         1 UNK         0.0600 
    217 H217       -8.5810  -25.6738  -53.9663 H         1 UNK         0.0600 
    218 H218       -7.8227  -27.2549  -53.8502 H         1 UNK         0.0600 
    219 H219       -6.8313  -25.8005  -53.8194 H         1 UNK         0.0600 
    220 H220       -6.0710  -24.6370  -51.1227 H         1 UNK         0.3000 
    221 H221       -5.7172  -22.5654  -50.4777 H         1 UNK         0.0600 
    222 H222       -8.5624  -22.6018  -49.3275 H         1 UNK         0.0600 
    223 H223       -7.1523  -23.3097  -48.5437 H         1 UNK         0.0600 
    224 H224       -7.2363  -21.5792  -48.7922 H         1 UNK         0.0600 
    225 H225       -7.2533  -20.2324  -50.2494 H         1 UNK         0.3000 
    226 H226       -7.7276  -18.3851  -51.3805 H         1 UNK         0.0600 
    227 H227       -9.9473  -19.4423  -51.5367 H         1 UNK         0.0600 
    228 H228       -9.6447  -18.5079  -52.9887 H         1 UNK         0.0600 
    229 H229       -9.5141  -20.2665  -53.0265 H         1 UNK         0.0600 
    230 H230       -8.3013  -19.5986  -54.5285 H         1 UNK         0.3000 
    231 H231       -6.1757  -18.1755  -55.7589 H         1 UNK         0.0600 
    232 H232       -8.3201  -18.6839  -56.8974 H         1 UNK         0.0600 
    233 H233       -7.9716  -20.4127  -56.8428 H         1 UNK         0.0600 
    234 H234       -6.9794  -19.3396  -57.8228 H         1 UNK         0.0600 
    235 H235       -6.2807  -21.4458  -54.4418 H         1 UNK         0.3000 
    236 H236       -4.0653  -22.5250  -55.9177 H         1 UNK         0.0600 
    237 H237       -4.2516  -24.3934  -54.3985 H         1 UNK         0.0600 
    238 H238       -5.1158  -23.4430  -53.1996 H         1 UNK         0.0600 
    239 H239       -5.8872  -23.8527  -54.7334 H         1 UNK         0.0600 
    240 H240       -4.1396  -20.1459  -53.4593 H         1 UNK         0.3000 
    241 H241       -1.5204  -20.5780  -52.3458 H         1 UNK         0.0600 
    242 H242       -0.9799  -18.7961  -55.9915 H         1 UNK         0.3800 
    243 H243       -2.5734  -19.3327  -55.5281 H         1 UNK         0.3800 
    244 H244       -2.6968  -17.7741  -52.5234 H         1 UNK         0.0800 
    245 H245       -3.5582  -18.9543  -51.5905 H         1 UNK         0.0800 
    246 H246       -0.2677  -17.1722  -52.1418 H         1 UNK         0.0800 
    247 H247       -0.7594  -16.2262  -50.7582 H         1 UNK         0.0800 
@<TRIPOS>BOND
     1    1    2 1    
     2    1  127 1    
     3    1  128 1    
     4    1  129 1    
     5    2    3 2    
     6    2    4 am   BACKBONE|DICT|INTERRES
     7    4    5 1    
     8    4  130 1    
     9    5    6 1    
    10    5   65 1    
    11    5  131 1    
    12    6    7 1    
    13    6  132 1    
    14    6  133 1    
    15    7    8 1    
    16    8    9 1    
    17    8  134 1    
    18    8  135 1    
    19    9   10 ar   
    20    9   14 ar   
    21   10   11 ar   
    22   10  136 1    
    23   11   12 ar   
    24   11  126 1    
    25   12   13 ar   
    26   12  137 1    
    27   13   14 ar   
    28   13   15 1    
    29   14  138 1    
    30   15   16 1    
    31   15  139 1    
    32   15  140 1    
    33   16   17 1    
    34   17   18 1    
    35   17  141 1    
    36   17  142 1    
    37   18   19 1    
    38   18   67 1    
    39   18  143 1    
    40   19   20 am   BACKBONE|DICT|INTERRES
    41   19  144 1    
    42   20   21 2    
    43   20   22 1    
    44   22   23 1    
    45   22   24 1    
    46   22  145 1    
    47   23  146 1    
    48   23  147 1    
    49   23  148 1    
    50   24   25 am   BACKBONE|DICT|INTERRES
    51   24  149 1    
    52   25   26 2    
    53   25   27 1    
    54   27   28 1    
    55   27   29 1    
    56   27  150 1    
    57   28  151 1    
    58   28  152 1    
    59   28  153 1    
    60   29   30 am   BACKBONE|DICT|INTERRES
    61   29  154 1    
    62   30   31 2    
    63   30   32 1    
    64   32   33 1    
    65   32   34 1    
    66   32  155 1    
    67   33  156 1    
    68   33  157 1    
    69   33  158 1    
    70   34   35 am   BACKBONE|DICT|INTERRES
    71   34  159 1    
    72   35   36 2    
    73   35   37 1    
    74   37   38 1    
    75   37   39 1    
    76   37  160 1    
    77   38  161 1    
    78   38  162 1    
    79   38  163 1    
    80   39   40 am   BACKBONE|DICT|INTERRES
    81   39  164 1    
    82   40   41 2    
    83   40   42 1    
    84   42   43 1    
    85   42   44 1    
    86   42  165 1    
    87   43  166 1    
    88   43  167 1    
    89   43  168 1    
    90   44   45 am   BACKBONE|DICT|INTERRES
    91   44  169 1    
    92   45   46 2    
    93   45   47 1    
    94   47   48 1    
    95   47   49 1    
    96   47  170 1    
    97   48  171 1    
    98   48  172 1    
    99   48  173 1    
   100   49   50 am   BACKBONE|DICT|INTERRES
   101   49  174 1    
   102   50   51 2    
   103   50   52 1    
   104   52   53 1    
   105   52   54 1    
   106   52  175 1    
   107   53  176 1    
   108   53  177 1    
   109   53  178 1    
   110   54   55 am   BACKBONE|DICT|INTERRES
   111   54  179 1    
   112   55   56 2    
   113   55   57 1    
   114   57   58 1    
   115   57   59 1    
   116   57  180 1    
   117   58  181 1    
   118   58  182 1    
   119   58  183 1    
   120   59   60 am   BACKBONE|DICT|INTERRES
   121   59  184 1    
   122   60   61 2    
   123   60   62 1    
   124   62   63 1    
   125   62   64 1    
   126   62  185 1    
   127   63  186 1    
   128   63  187 1    
   129   63  188 1    
   130   64   65 am   BACKBONE|DICT|INTERRES
   131   64  189 1    
   132   65   66 2    
   133   67   68 2    
   134   67   69 am   BACKBONE|DICT|INTERRES
   135   69   70 1    
   136   69  190 1    
   137   70   71 1    
   138   70   72 1    
   139   70  191 1    
   140   71  192 1    
   141   71  193 1    
   142   71  194 1    
   143   72   73 2    
   144   72   74 am   BACKBONE|DICT|INTERRES
   145   74   75 1    
   146   74  195 1    
   147   75   76 1    
   148   75   77 1    
   149   75  196 1    
   150   76  197 1    
   151   76  198 1    
   152   76  199 1    
   153   77   78 2    
   154   77   79 am   BACKBONE|DICT|INTERRES
   155   79   80 1    
   156   79  200 1    
   157   80   81 1    
   158   80   82 1    
   159   80  201 1    
   160   81  202 1    
   161   81  203 1    
   162   81  204 1    
   163   82   83 2    
   164   82   84 am   BACKBONE|DICT|INTERRES
   165   84   85 1    
   166   84  205 1    
   167   85   86 1    
   168   85   87 1    
   169   85  206 1    
   170   86  207 1    
   171   86  208 1    
   172   86  209 1    
   173   87   88 2    
   174   87   89 am   BACKBONE|DICT|INTERRES
   175   89   90 1    
   176   89  210 1    
   177   90   91 1    
   178   90   92 1    
   179   90  211 1    
   180   91  212 1    
   181   91  213 1    
   182   91  214 1    
   183   92   93 2    
   184   92   94 am   BACKBONE|DICT|INTERRES
   185   94   95 1    
   186   94  215 1    
   187   95   96 1    
   188   95   97 1    
   189   95  216 1    
   190   96  217 1    
   191   96  218 1    
   192   96  219 1    
   193   97   98 2    
   194   97   99 am   BACKBONE|DICT|INTERRES
   195   99  100 1    
   196   99  220 1    
   197  100  101 1    
   198  100  102 1    
   199  100  221 1    
   200  101  222 1    
   201  101  223 1    
   202  101  224 1    
   203  102  103 2    
   204  102  104 am   BACKBONE|DICT|INTERRES
   205  104  105 1    
   206  104  225 1    
   207  105  106 1    
   208  105  107 1    
   209  105  226 1    
   210  106  227 1    
   211  106  228 1    
   212  106  229 1    
   213  107  108 2    
   214  107  109 am   BACKBONE|DICT|INTERRES
   215  109  110 1    
   216  109  230 1    
   217  110  111 1    
   218  110  112 1    
   219  110  231 1    
   220  111  232 1    
   221  111  233 1    
   222  111  234 1    
   223  112  113 2    
   224  112  114 am   BACKBONE|DICT|INTERRES
   225  114  115 1    
   226  114  235 1    
   227  115  116 1    
   228  115  117 1    
   229  115  236 1    
   230  116  237 1    
   231  116  238 1    
   232  116  239 1    
   233  117  118 2    
   234  117  119 am   BACKBONE|DICT|INTERRES
   235  119  120 1    
   236  119  240 1    
   237  120  121 1    
   238  120  124 1    
   239  120  241 1    
   240  121  122 am   BACKBONE|DICT|INTERRES
   241  121  123 2    
   242  122  242 1    
   243  122  243 1    
   244  124  125 1    
   245  124  244 1    
   246  124  245 1    
   247  125  126 1    
   248  126  246 1    
   249  126  247 1    
@<TRIPOS>SUBSTRUCTURE
     1 UNK         1 GROUP             0       ****    0 ROOT    
