@<TRIPOS>MOLECULE
3R540
247   249    1
SMALL
USER_CHARGES


@<TRIPOS>ATOM
      1 CA         -4.7974  -15.7484  -44.8306 C.3       0 UNK        -0.1800 
      2 C          -3.8629  -14.6962  -45.4111 C.2       0 UNK         0.5000 
      3 O          -4.0589  -13.5055  -45.1710 O.2       0 UNK        -0.5000 
      4 N          -2.8485  -15.1279  -46.1722 N.am      1 UNK        -0.5000 
      5 CA         -1.8890  -14.2576  -46.8660 C.3       1 UNK         0.1400 
      6 C6         -1.1944  -14.9927  -48.0405 C.3       23 UNK        -0.0398 
      7 S7         -2.3761  -15.4209  -49.3608 S.3       23 UNK        -0.2404 
      8 C8         -1.2582  -15.9143  -50.7108 C.3       23 UNK        -0.0205 
      9 C9         -1.0131  -17.4164  -50.7416 C.ar      23 UNK        -0.0193 
     10 C10        -2.0073  -18.2672  -51.2332 C.ar      23 UNK        -0.1150 
     11 C11        -1.7808  -19.6413  -51.3297 C.ar      23 UNK        -0.0193 
     12 C12        -0.5476  -20.1634  -50.9359 C.ar      23 UNK        -0.1150 
     13 C13         0.4576  -19.3296  -50.4364 C.ar      23 UNK        -0.0193 
     14 C14         0.2135  -17.9544  -50.3350 C.ar      23 UNK        -0.1150 
     15 C15         1.8284  -19.8934  -50.0667 C.3       23 UNK        -0.0205 
     16 S16         1.7731  -21.4898  -49.1774 S.3       23 UNK        -0.2404 
     17 C17         1.1549  -20.9604  -47.5491 C.3       23 UNK        -0.0398 
     18 CA          0.0163  -21.8365  -46.9730 C.3       11 UNK         0.1400 
     19 N          -0.1504  -21.5880  -45.5367 N.am      11 UNK        -0.5000 
     20 C          -1.0243  -22.2036  -44.7266 C.2       10 UNK         0.5000 
     21 O          -1.7488  -23.1353  -45.0718 O.2       10 UNK        -0.5000 
     22 CA         -1.1598  -21.6257  -43.3080 C.3       10 UNK         0.1400 
     23 CB         -0.0883  -22.2001  -42.3689 C.3       10 UNK        -0.1800 
     24 N          -1.0868  -20.1630  -43.3208 N.am      10 UNK        -0.5000 
     25 C          -2.0556  -19.3730  -43.8056 C.2       9 UNK         0.5000 
     26 O          -3.1275  -19.7965  -44.2357 O.2       9 UNK        -0.5000 
     27 CA         -1.7662  -17.8628  -43.8689 C.3       9 UNK         0.1400 
     28 CB         -2.0912  -17.1891  -42.5318 C.3       9 UNK        -0.1800 
     29 N          -0.3885  -17.5572  -44.2585 N.am      9 UNK        -0.5000 
     30 C           0.1103  -17.7993  -45.4795 C.2       8 UNK         0.5000 
     31 O          -0.5831  -18.1814  -46.4195 O.2       8 UNK        -0.5000 
     32 CA          1.6352  -17.6498  -45.6768 C.3       8 UNK         0.1400 
     33 CB          1.9801  -16.3567  -46.4276 C.3       8 UNK        -0.1800 
     34 N           2.4068  -17.7449  -44.4314 N.am      8 UNK        -0.5000 
     35 C           2.4560  -18.8507  -43.6738 C.2       7 UNK         0.5000 
     36 O           1.8262  -19.8718  -43.9558 O.2       7 UNK        -0.5000 
     37 CA          3.3144  -18.8313  -42.3940 C.3       7 UNK         0.1400 
     38 CB          4.2005  -20.0859  -42.3102 C.3       7 UNK        -0.1800 
     39 N           4.1678  -17.6502  -42.2424 N.am      7 UNK        -0.5000 
     40 C           3.7878  -16.4726  -41.7346 C.2       6 UNK         0.5000 
     41 O           2.6158  -16.1630  -41.4980 O.2       6 UNK        -0.5000 
     42 CA          4.9180  -15.4782  -41.4395 C.3       6 UNK         0.1400 
     43 CB          5.1613  -14.5145  -42.6124 C.3       6 UNK        -0.1800 
     44 N           4.5858  -14.7375  -40.2279 N.am      6 UNK        -0.5000 
     45 C           5.4736  -14.2343  -39.3616 C.2       5 UNK         0.5000 
     46 O           6.6925  -14.2810  -39.5389 O.2       5 UNK        -0.5000 
     47 CA          4.9059  -13.6042  -38.0696 C.3       5 UNK         0.1400 
     48 CB          5.8817  -12.6110  -37.4030 C.3       5 UNK        -0.1800 
     49 N           3.5779  -13.0022  -38.2387 N.am      5 UNK        -0.5000 
     50 C           3.2476  -11.9545  -39.0060 C.2       4 UNK         0.5000 
     51 O           4.0461  -11.3369  -39.7125 O.2       4 UNK        -0.5000 
     52 CA          1.7541  -11.5703  -39.0013 C.3       4 UNK         0.1400 
     53 CB          1.4825  -10.2308  -39.7094 C.3       4 UNK        -0.1800 
     54 N           0.9510  -12.6074  -39.6457 N.am      4 UNK        -0.5000 
     55 C           0.5766  -13.7732  -39.1036 C.2       3 UNK         0.5000 
     56 O           0.8416  -14.0909  -37.9433 O.2       3 UNK        -0.5000 
     57 CA         -0.1638  -14.7756  -40.0113 C.3       3 UNK         0.1400 
     58 CB         -1.6498  -14.8964  -39.6161 C.3       3 UNK        -0.1800 
     59 N           0.0437  -14.5184  -41.4471 N.am      3 UNK        -0.5000 
     60 C          -0.5445  -13.6089  -42.2420 C.2       2 UNK         0.5000 
     61 O          -1.4957  -12.9060  -41.9066 O.2       2 UNK        -0.5000 
     62 CA          0.0688  -13.4018  -43.6352 C.3       2 UNK         0.1400 
     63 CB          1.5280  -13.8828  -43.7492 C.3       2 UNK        -0.1800 
     64 N          -0.7750  -14.0175  -44.6573 N.am      2 UNK        -0.5000 
     65 C          -0.8546  -13.5922  -45.9264 C.2       1 UNK         0.5000 
     66 O          -0.1493  -12.6875  -46.3755 O.2       1 UNK        -0.5000 
     67 C          -1.3107  -21.6385  -47.7387 C.2       11 UNK         0.5000 
     68 O          -1.7146  -22.5190  -48.5015 O.2       11 UNK        -0.5000 
     69 N          -1.9839  -20.5097  -47.4716 N.am      12 UNK        -0.5000 
     70 CA         -3.2914  -20.1629  -48.0201 C.3       12 UNK         0.1400 
     71 CB         -3.6282  -18.7078  -47.6684 C.3       12 UNK        -0.1800 
     72 C          -4.4074  -21.1190  -47.5708 C.2       12 UNK         0.5000 
     73 O          -5.1773  -21.5773  -48.4144 O.2       12 UNK        -0.5000 
     74 N          -4.4569  -21.4291  -46.2672 N.am      13 UNK        -0.5000 
     75 CA         -5.4337  -22.3404  -45.6641 C.3       13 UNK         0.1400 
     76 CB         -5.2960  -22.3034  -44.1349 C.3       13 UNK        -0.1800 
     77 C          -5.3211  -23.7862  -46.1832 C.2       13 UNK         0.5000 
     78 O          -6.3446  -24.4295  -46.4181 O.2       13 UNK        -0.5000 
     79 N          -4.0836  -24.2598  -46.3777 N.am      14 UNK        -0.5000 
     80 CA         -3.7741  -25.5697  -46.9529 C.3       14 UNK         0.1400 
     81 CB         -2.3339  -25.9445  -46.5698 C.3       14 UNK        -0.1800 
     82 C          -3.9451  -25.6231  -48.4845 C.2       14 UNK         0.5000 
     83 O          -3.9598  -26.7204  -49.0435 O.2       14 UNK        -0.5000 
     84 N          -4.0335  -24.4501  -49.1319 N.am      15 UNK        -0.5000 
     85 CA         -4.0372  -24.2231  -50.5819 C.3       15 UNK         0.1400 
     86 CB         -5.3076  -24.8106  -51.2314 C.3       15 UNK        -0.1800 
     87 C          -2.7326  -24.7080  -51.2571 C.2       15 UNK         0.5000 
     88 O          -2.7562  -25.1643  -52.4013 O.2       15 UNK        -0.5000 
     89 N          -1.6181  -24.6244  -50.5168 N.am      16 UNK        -0.5000 
     90 CA         -0.3791  -25.3649  -50.7640 C.3       16 UNK         0.1400 
     91 CB          0.5266  -25.2448  -49.5299 C.3       16 UNK        -0.1800 
     92 C           0.3830  -24.9754  -52.0424 C.2       16 UNK         0.5000 
     93 O           1.1059  -25.8127  -52.5844 O.2       16 UNK        -0.5000 
     94 N           0.2108  -23.7326  -52.5113 N.am      17 UNK        -0.5000 
     95 CA          0.8181  -23.2454  -53.7533 C.3       17 UNK         0.1400 
     96 CB          0.8784  -21.7115  -53.7315 C.3       17 UNK        -0.1800 
     97 C           0.0959  -23.7516  -55.0183 C.2       17 UNK         0.5000 
     98 O           0.6955  -23.7304  -56.0936 O.2       17 UNK        -0.5000 
     99 N          -1.1639  -24.1961  -54.8703 N.am      18 UNK        -0.5000 
    100 CA        -2.0311  -24.7823  -55.9012 C.3       18 UNK         0.1400 
    101 CB        -1.4941  -26.1645  -56.3267 C.3       18 UNK        -0.1800 
    102 C         -2.3163  -23.8577  -57.1078 C.2       18 UNK         0.5000 
    103 O         -2.6094  -24.3454  -58.2015 O.2       18 UNK        -0.5000 
    104 N         -2.2343  -22.5388  -56.8902 N.am      19 UNK        -0.5000 
    105 CA        -2.5467  -21.5042  -57.8746 C.3       19 UNK         0.1400 
    106 CB        -1.9294  -20.1795  -57.3956 C.3       19 UNK        -0.1800 
    107 C         -4.0659  -21.3493  -58.0777 C.2       19 UNK         0.5000 
    108 O         -4.8571  -21.8593  -57.2798 O.2       19 UNK        -0.5000 
    109 N         -4.4543  -20.5830  -59.1055 N.am      20 UNK        -0.5000 
    110 CA        -5.8497  -20.2389  -59.4077 C.3       20 UNK         0.1400 
    111 CB        -5.9015  -19.4614  -60.7316 C.3       20 UNK        -0.1800 
    112 C         -6.5488  -19.4431  -58.2846 C.2       20 UNK         0.5000 
    113 O         -7.7624  -19.5663  -58.1172 O.2       20 UNK        -0.5000 
    114 N         -5.7657  -18.6684  -57.5205 N.am      21 UNK        -0.5000 
    115 CA        -6.2085  -17.9633  -56.3168 C.3       21 UNK         0.1400 
    116 CB        -5.1982  -16.8508  -55.9960 C.3       21 UNK        -0.1800 
    117 C         -6.3763  -18.8975  -55.1007 C.2       21 UNK         0.5000 
    118 O         -7.1562  -18.5802  -54.2018 O.2       21 UNK        -0.5000 
    119 N         -5.6391  -20.0150  -55.0856 N.am      22 UNK        -0.5000 
    120 CA        -5.6816  -21.0376  -54.0309 C.3       22 UNK         0.1400 
    121 C         -6.8288  -22.0574  -54.2545 C.2       22 UNK         0.5000 
    122 N         -7.0536  -22.5089  -55.4824 N.am      22 UNK        -0.7600 
    123 O         -7.5156  -22.4394  -53.3119 O.2       22 UNK        -0.5000 
    124 C124       -4.3313  -21.7847  -53.8814 C.3       23 UNK        -0.0398 
    125 S125       -2.9084  -20.6707  -53.6393 S.3       23 UNK        -0.2404 
    126 C126       -2.8758  -20.5675  -51.8283 C.3       23 UNK        -0.0205 
    127 H127       -5.8353  -15.4608  -44.9981 H         1 UNK         0.0600 
    128 H128       -4.6390  -15.8408  -43.7562 H         1 UNK         0.0600 
    129 H129       -4.6450  -16.7259  -45.2870 H         1 UNK         0.0600 
    130 H130       -2.7519  -16.1135  -46.3688 H         1 UNK         0.3000 
    131 H131       -2.4562  -13.4294  -47.2972 H         1 UNK         0.0600 
    132 H132       -0.7051  -15.9038  -47.7008 H         1 UNK         0.0800 
    133 H133       -0.4157  -14.3665  -48.4798 H         1 UNK         0.0800 
    134 H134       -1.7097  -15.6139  -51.6574 H         1 UNK         0.0800 
    135 H135       -0.3166  -15.3676  -50.6444 H         1 UNK         0.0800 
    136 H136       -2.9574  -17.8574  -51.5464 H         1 UNK         0.1150 
    137 H137       -0.3706  -21.2250  -51.0168 H         1 UNK         0.1150 
    138 H138        0.9884  -17.2971  -49.9668 H         1 UNK         0.1150 
    139 H139        2.3982  -20.0308  -50.9860 H         1 UNK         0.0800 
    140 H140        2.3895  -19.1763  -49.4652 H         1 UNK         0.0800 
    141 H141        0.8335  -19.9233  -47.6190 H         1 UNK         0.0800 
    142 H142        2.0092  -20.9688  -46.8703 H         1 UNK         0.0800 
    143 H143        0.3026  -22.8851  -47.0772 H         1 UNK         0.0600 
    144 H144        0.4295  -20.8631  -45.1295 H         1 UNK         0.3000 
    145 H145       -2.1372  -21.9167  -42.9178 H         1 UNK         0.0600 
    146 H146       -0.1907  -21.7982  -41.3609 H         1 UNK         0.0600 
    147 H147       -0.1798  -23.2846  -42.2970 H         1 UNK         0.0600 
    148 H148        0.9216  -21.9826  -42.7162 H         1 UNK         0.0600 
    149 H149       -0.1997  -19.7555  -43.0606 H         1 UNK         0.3000 
    150 H150       -2.4318  -17.4475  -44.6247 H         1 UNK         0.0600 
    151 H151       -1.3805  -17.4695  -41.7535 H         1 UNK         0.0600 
    152 H152       -3.0874  -17.4658  -42.1835 H         1 UNK         0.0600 
    153 H153       -2.0792  -16.1052  -42.6305 H         1 UNK         0.0600 
    154 H154        0.2449  -17.2650  -43.5296 H         1 UNK         0.3000 
    155 H155        1.9662  -18.4765  -46.3048 H         1 UNK         0.0600 
    156 H156        1.5140  -15.4841  -45.9774 H         1 UNK         0.0600 
    157 H157        1.6310  -16.4103  -47.4592 H         1 UNK         0.0600 
    158 H158        3.0564  -16.1878  -46.4635 H         1 UNK         0.0600 
    159 H159        2.9492  -16.9413  -44.1520 H         1 UNK         0.3000 
    160 H160        2.6167  -18.8617  -41.5544 H         1 UNK         0.0600 
    161 H161        4.9090  -20.1333  -43.1381 H         1 UNK         0.0600 
    162 H162        3.6017  -20.9973  -42.3381 H         1 UNK         0.0600 
    163 H163        4.7686  -20.1063  -41.3799 H         1 UNK         0.0600 
    164 H164        5.1470  -17.7936  -42.4450 H         1 UNK         0.3000 
    165 H165        5.8297  -16.0540  -41.2649 H         1 UNK         0.0600 
    166 H166        6.0595  -13.9196  -42.4467 H         1 UNK         0.0600 
    167 H167        5.2997  -15.0559  -43.5491 H         1 UNK         0.0600 
    168 H168        4.3325  -13.8225  -42.7471 H         1 UNK         0.0600 
    169 H169        3.5994  -14.7011  -40.0095 H         1 UNK         0.3000 
    170 H170        4.7682  -14.4345  -37.3756 H         1 UNK         0.0600 
    171 H171        6.8151  -13.1036  -37.1284 H         1 UNK         0.0600 
    172 H172        6.1339  -11.7826  -38.0655 H         1 UNK         0.0600 
    173 H173        5.4574  -12.1937  -36.4898 H         1 UNK         0.0600 
    174 H174        2.8193  -13.4670  -37.7501 H         1 UNK         0.3000 
    175 H175        1.4398  -11.4680  -37.9604 H         1 UNK         0.0600 
    176 H176        1.7522  -10.2686  -40.7656 H         1 UNK         0.0600 
    177 H177        0.4293   -9.9574  -39.6430 H         1 UNK         0.0600 
    178 H178        2.0558   -9.4237  -39.2514 H         1 UNK         0.0600 
    179 H179        0.6901  -12.4341  -40.6040 H         1 UNK         0.3000 
    180 H180        0.2973  -15.7472  -39.8266 H         1 UNK         0.0600 
    181 H181       -2.1644  -13.9362  -39.6522 H         1 UNK         0.0600 
    182 H182       -1.7445  -15.2679  -38.5951 H         1 UNK         0.0600 
    183 H183       -2.1860  -15.5905  -40.2597 H         1 UNK         0.0600 
    184 H184        0.8470  -15.0136  -41.8199 H         1 UNK         0.3000 
    185 H185        0.0698  -12.3206  -43.7919 H         1 UNK         0.0600 
    186 H186        2.1304  -13.4636  -42.9438 H         1 UNK         0.0600 
    187 H187        1.6056  -14.9678  -43.7000 H         1 UNK         0.0600 
    188 H188        1.9803  -13.5535  -44.6845 H         1 UNK         0.0600 
    189 H189       -1.4243  -14.7226  -44.3409 H         1 UNK         0.3000 
    190 H190       -1.5486  -19.8078  -46.8817 H         1 UNK         0.3000 
    191 H191       -3.2223  -20.2367  -49.1029 H         1 UNK         0.0600 
    192 H192       -2.8642  -18.0319  -48.0509 H         1 UNK         0.0600 
    193 H193       -4.5798  -18.4071  -48.1080 H         1 UNK         0.0600 
    194 H194       -3.6982  -18.5599  -46.5916 H         1 UNK         0.0600 
    195 H195       -3.8118  -20.9718  -45.6291 H         1 UNK         0.3000 
    196 H196       -6.4293  -21.9743  -45.9231 H         1 UNK         0.0600 
    197 H197       -6.0309  -22.9545  -43.6600 H         1 UNK         0.0600 
    198 H198       -5.4560  -21.2967  -43.7485 H         1 UNK         0.0600 
    199 H199       -4.3081  -22.6332  -43.8132 H         1 UNK         0.0600 
    200 H200       -3.2886  -23.6911  -46.0968 H         1 UNK         0.3000 
    201 H201       -4.4475  -26.3124  -46.5203 H         1 UNK         0.0600 
    202 H202       -2.0584  -26.9208  -46.9706 H         1 UNK         0.0600 
    203 H203       -2.2143  -25.9919  -45.4873 H         1 UNK         0.0600 
    204 H204       -1.6181  -25.2160  -46.9523 H         1 UNK         0.0600 
    205 H205       -4.0052  -23.6099  -48.5687 H         1 UNK         0.3000 
    206 H206       -4.0810  -23.1434  -50.7074 H         1 UNK         0.0600 
    207 H207       -6.2070  -24.4381  -50.7411 H         1 UNK         0.0600 
    208 H208       -5.3777  -24.5352  -52.2840 H         1 UNK         0.0600 
    209 H209       -5.3241  -25.8994  -51.1820 H         1 UNK         0.0600 
    210 H210       -1.6765  -24.1245  -49.6339 H         1 UNK         0.3000 
    211 H211       -0.6515  -26.4168  -50.8731 H         1 UNK         0.0600 
    212 H212        0.7555  -24.2049  -49.3030 H         1 UNK         0.0600 
    213 H213        1.4730  -25.7656  -49.6813 H         1 UNK         0.0600 
    214 H214        0.0547  -25.6832  -48.6512 H         1 UNK         0.0600 
    215 H215       -0.4016  -23.1073  -52.0111 H         1 UNK         0.3000 
    216 H216        1.8459  -23.6115  -53.8033 H         1 UNK         0.0600 
    217 H217        1.3481  -21.3254  -54.6370 H         1 UNK         0.0600 
    218 H218        1.4657  -21.3538  -52.8864 H         1 UNK         0.0600 
    219 H219       -0.1126  -21.2673  -53.6653 H         1 UNK         0.0600 
    220 H220       -1.5501  -24.2149  -53.9337 H         1 UNK         0.3000 
    221 H221       -2.9966  -24.9427  -55.4191 H         1 UNK         0.0600 
    222 H222       -0.5525  -26.0819  -56.8703 H         1 UNK         0.0600 
    223 H223       -1.3263  -26.8042  -55.4601 H         1 UNK         0.0600 
    224 H224       -2.2031  -26.6803  -56.9752 H         1 UNK         0.0600 
    225 H225       -2.0034  -22.2221  -55.9605 H         1 UNK         0.3000 
    226 H226       -2.0955  -21.7801  -58.8299 H         1 UNK         0.0600 
    227 H227       -0.8611  -20.2881  -57.2067 H         1 UNK         0.0600 
    228 H228       -2.0436  -19.3952  -58.1446 H         1 UNK         0.0600 
    229 H229       -2.3958  -19.8236  -56.4765 H         1 UNK         0.0600 
    230 H230       -3.7534  -20.1906  -59.7178 H         1 UNK         0.3000 
    231 H231       -6.4013  -21.1724  -59.5373 H         1 UNK         0.0600 
    232 H232       -5.3417  -18.5272  -60.6722 H         1 UNK         0.0600 
    233 H233       -6.9295  -19.2117  -60.9981 H         1 UNK         0.0600 
    234 H234       -5.4891  -20.0497  -61.5516 H         1 UNK         0.0600 
    235 H235       -4.7843  -18.6087  -57.7468 H         1 UNK         0.3000 
    236 H236       -7.1767  -17.4996  -56.5176 H         1 UNK         0.0600 
    237 H237       -5.1095  -16.1469  -56.8237 H         1 UNK         0.0600 
    238 H238       -5.5095  -16.2819  -55.1188 H         1 UNK         0.0600 
    239 H239       -4.2062  -17.2551  -55.7892 H         1 UNK         0.0600 
    240 H240       -5.0814  -20.2456  -55.8951 H         1 UNK         0.3000 
    241 H241       -5.8784  -20.5388  -53.0797 H         1 UNK         0.0600 
    242 H242       -7.7982  -23.1672  -55.6459 H         1 UNK         0.3800 
    243 H243       -6.4349  -22.2424  -56.2431 H         1 UNK         0.3800 
    244 H244       -4.3755  -22.4865  -53.0495 H         1 UNK         0.0800 
    245 H245       -4.1321  -22.3906  -54.7654 H         1 UNK         0.0800 
    246 H246       -3.8464  -20.2265  -51.4650 H         1 UNK         0.0800 
    247 H247       -2.7148  -21.5616  -51.4160 H         1 UNK         0.0800 
@<TRIPOS>BOND
     1    1    2 1    
     2    1  127 1    
     3    1  128 1    
     4    1  129 1    
     5    2    3 2    
     6    2    4 am   BACKBONE|DICT|INTERRES
     7    4    5 1    
     8    4  130 1    
     9    5    6 1    
    10    5   65 1    
    11    5  131 1    
    12    6    7 1    
    13    6  132 1    
    14    6  133 1    
    15    7    8 1    
    16    8    9 1    
    17    8  134 1    
    18    8  135 1    
    19    9   10 ar   
    20    9   14 ar   
    21   10   11 ar   
    22   10  136 1    
    23   11   12 ar   
    24   11  126 1    
    25   12   13 ar   
    26   12  137 1    
    27   13   14 ar   
    28   13   15 1    
    29   14  138 1    
    30   15   16 1    
    31   15  139 1    
    32   15  140 1    
    33   16   17 1    
    34   17   18 1    
    35   17  141 1    
    36   17  142 1    
    37   18   19 1    
    38   18   67 1    
    39   18  143 1    
    40   19   20 am   BACKBONE|DICT|INTERRES
    41   19  144 1    
    42   20   21 2    
    43   20   22 1    
    44   22   23 1    
    45   22   24 1    
    46   22  145 1    
    47   23  146 1    
    48   23  147 1    
    49   23  148 1    
    50   24   25 am   BACKBONE|DICT|INTERRES
    51   24  149 1    
    52   25   26 2    
    53   25   27 1    
    54   27   28 1    
    55   27   29 1    
    56   27  150 1    
    57   28  151 1    
    58   28  152 1    
    59   28  153 1    
    60   29   30 am   BACKBONE|DICT|INTERRES
    61   29  154 1    
    62   30   31 2    
    63   30   32 1    
    64   32   33 1    
    65   32   34 1    
    66   32  155 1    
    67   33  156 1    
    68   33  157 1    
    69   33  158 1    
    70   34   35 am   BACKBONE|DICT|INTERRES
    71   34  159 1    
    72   35   36 2    
    73   35   37 1    
    74   37   38 1    
    75   37   39 1    
    76   37  160 1    
    77   38  161 1    
    78   38  162 1    
    79   38  163 1    
    80   39   40 am   BACKBONE|DICT|INTERRES
    81   39  164 1    
    82   40   41 2    
    83   40   42 1    
    84   42   43 1    
    85   42   44 1    
    86   42  165 1    
    87   43  166 1    
    88   43  167 1    
    89   43  168 1    
    90   44   45 am   BACKBONE|DICT|INTERRES
    91   44  169 1    
    92   45   46 2    
    93   45   47 1    
    94   47   48 1    
    95   47   49 1    
    96   47  170 1    
    97   48  171 1    
    98   48  172 1    
    99   48  173 1    
   100   49   50 am   BACKBONE|DICT|INTERRES
   101   49  174 1    
   102   50   51 2    
   103   50   52 1    
   104   52   53 1    
   105   52   54 1    
   106   52  175 1    
   107   53  176 1    
   108   53  177 1    
   109   53  178 1    
   110   54   55 am   BACKBONE|DICT|INTERRES
   111   54  179 1    
   112   55   56 2    
   113   55   57 1    
   114   57   58 1    
   115   57   59 1    
   116   57  180 1    
   117   58  181 1    
   118   58  182 1    
   119   58  183 1    
   120   59   60 am   BACKBONE|DICT|INTERRES
   121   59  184 1    
   122   60   61 2    
   123   60   62 1    
   124   62   63 1    
   125   62   64 1    
   126   62  185 1    
   127   63  186 1    
   128   63  187 1    
   129   63  188 1    
   130   64   65 am   BACKBONE|DICT|INTERRES
   131   64  189 1    
   132   65   66 2    
   133   67   68 2    
   134   67   69 am   BACKBONE|DICT|INTERRES
   135   69   70 1    
   136   69  190 1    
   137   70   71 1    
   138   70   72 1    
   139   70  191 1    
   140   71  192 1    
   141   71  193 1    
   142   71  194 1    
   143   72   73 2    
   144   72   74 am   BACKBONE|DICT|INTERRES
   145   74   75 1    
   146   74  195 1    
   147   75   76 1    
   148   75   77 1    
   149   75  196 1    
   150   76  197 1    
   151   76  198 1    
   152   76  199 1    
   153   77   78 2    
   154   77   79 am   BACKBONE|DICT|INTERRES
   155   79   80 1    
   156   79  200 1    
   157   80   81 1    
   158   80   82 1    
   159   80  201 1    
   160   81  202 1    
   161   81  203 1    
   162   81  204 1    
   163   82   83 2    
   164   82   84 am   BACKBONE|DICT|INTERRES
   165   84   85 1    
   166   84  205 1    
   167   85   86 1    
   168   85   87 1    
   169   85  206 1    
   170   86  207 1    
   171   86  208 1    
   172   86  209 1    
   173   87   88 2    
   174   87   89 am   BACKBONE|DICT|INTERRES
   175   89   90 1    
   176   89  210 1    
   177   90   91 1    
   178   90   92 1    
   179   90  211 1    
   180   91  212 1    
   181   91  213 1    
   182   91  214 1    
   183   92   93 2    
   184   92   94 am   BACKBONE|DICT|INTERRES
   185   94   95 1    
   186   94  215 1    
   187   95   96 1    
   188   95   97 1    
   189   95  216 1    
   190   96  217 1    
   191   96  218 1    
   192   96  219 1    
   193   97   98 2    
   194   97   99 am   BACKBONE|DICT|INTERRES
   195   99  100 1    
   196   99  220 1    
   197  100  101 1    
   198  100  102 1    
   199  100  221 1    
   200  101  222 1    
   201  101  223 1    
   202  101  224 1    
   203  102  103 2    
   204  102  104 am   BACKBONE|DICT|INTERRES
   205  104  105 1    
   206  104  225 1    
   207  105  106 1    
   208  105  107 1    
   209  105  226 1    
   210  106  227 1    
   211  106  228 1    
   212  106  229 1    
   213  107  108 2    
   214  107  109 am   BACKBONE|DICT|INTERRES
   215  109  110 1    
   216  109  230 1    
   217  110  111 1    
   218  110  112 1    
   219  110  231 1    
   220  111  232 1    
   221  111  233 1    
   222  111  234 1    
   223  112  113 2    
   224  112  114 am   BACKBONE|DICT|INTERRES
   225  114  115 1    
   226  114  235 1    
   227  115  116 1    
   228  115  117 1    
   229  115  236 1    
   230  116  237 1    
   231  116  238 1    
   232  116  239 1    
   233  117  118 2    
   234  117  119 am   BACKBONE|DICT|INTERRES
   235  119  120 1    
   236  119  240 1    
   237  120  121 1    
   238  120  124 1    
   239  120  241 1    
   240  121  122 am   BACKBONE|DICT|INTERRES
   241  121  123 2    
   242  122  242 1    
   243  122  243 1    
   244  124  125 1    
   245  124  244 1    
   246  124  245 1    
   247  125  126 1    
   248  126  246 1    
   249  126  247 1    
@<TRIPOS>SUBSTRUCTURE
     1 UNK         1 GROUP             0       ****    0 ROOT    
