@<TRIPOS>MOLECULE
3R540
247   249    1
SMALL
USER_CHARGES


@<TRIPOS>ATOM
      1 CA          6.8299  -13.4404  -50.4661 C.3       0 UNK        -0.1800 
      2 C           5.7807  -12.9823  -49.4628 C.2       0 UNK         0.5000 
      3 O           5.5447  -11.7810  -49.3351 O.2       0 UNK        -0.5000 
      4 N           5.1592  -13.9373  -48.7561 N.am      1 UNK        -0.5000 
      5 CA          4.1142  -13.7391  -47.7403 C.3       1 UNK         0.1400 
      6 C6          2.7822  -13.1679  -48.2997 C.3       23 UNK        -0.0398 
      7 S7          2.0803  -14.1830  -49.6403 S.3       23 UNK        -0.2404 
      8 C8          0.8372  -15.1552  -48.7377 C.3       23 UNK        -0.0205 
      9 C9          0.0293  -16.0041  -49.7018 C.ar      23 UNK        -0.0193 
     10 C10        -1.1207  -15.4816  -50.2964 C.ar      23 UNK        -0.1150 
     11 C11        -1.8491  -16.2370  -51.2182 C.ar      23 UNK        -0.0193 
     12 C12        -1.4177  -17.5272  -51.5447 C.ar      23 UNK        -0.1150 
     13 C13        -0.2731  -18.0658  -50.9469 C.ar      23 UNK        -0.0193 
     14 C14         0.4432  -17.2995  -50.0220 C.ar      23 UNK        -0.1150 
     15 C15         0.2135  -19.4616  -51.3189 C.3       23 UNK        -0.0205 
     16 S16        -0.8796  -20.7818  -50.7035 S.3       23 UNK        -0.2404 
     17 C17        -0.9573  -20.4070  -48.9196 C.3       23 UNK        -0.0398 
     18 CA         -1.0462  -21.6630  -48.0207 C.3       11 UNK         0.1400 
     19 N          -0.7559  -21.3333  -46.6211 N.am      11 UNK        -0.5000 
     20 C          -0.6184  -22.2225  -45.6276 C.2       10 UNK         0.5000 
     21 O          -0.6663  -23.4393  -45.7902 O.2       10 UNK        -0.5000 
     22 CA         -0.4673  -21.6612  -44.2019 C.3       10 UNK         0.1400 
     23 CB          0.9872  -21.2596  -43.9174 C.3       10 UNK        -0.1800 
     24 N          -1.3621  -20.5298  -43.9519 N.am      10 UNK        -0.5000 
     25 C          -2.7005  -20.6150  -43.9647 C.2       9 UNK         0.5000 
     26 O          -3.3104  -21.6735  -44.1118 O.2       9 UNK        -0.5000 
     27 CA         -3.4920  -19.2989  -43.8517 C.3       9 UNK         0.1400 
     28 CB         -3.6388  -18.8767  -42.3832 C.3       9 UNK        -0.1800 
     29 N          -2.8953  -18.2108  -44.6307 N.am      9 UNK        -0.5000 
     30 C          -2.7754  -18.2167  -45.9667 C.2       8 UNK         0.5000 
     31 O          -3.2095  -19.1211  -46.6783 O.2       8 UNK        -0.5000 
     32 CA         -1.9824  -17.0607  -46.6093 C.3       8 UNK         0.1400 
     33 CB         -2.8566  -15.8116  -46.7878 C.3       8 UNK        -0.1800 
     34 N          -0.7806  -16.7236  -45.8429 N.am      8 UNK        -0.5000 
     35 C           0.2615  -17.5531  -45.6874 C.2       7 UNK         0.5000 
     36 O           0.3524  -18.6430  -46.2512 O.2       7 UNK        -0.5000 
     37 CA          1.3530  -17.1235  -44.6913 C.3       7 UNK         0.1400 
     38 CB          2.3973  -16.2155  -45.3586 C.3       7 UNK        -0.1800 
     39 N           0.7774  -16.4645  -43.5172 N.am      7 UNK        -0.5000 
     40 C           0.1160  -17.1196  -42.5507 C.2       6 UNK         0.5000 
     41 O          -0.0016  -18.3438  -42.5227 O.2       6 UNK        -0.5000 
     42 CA         -0.5767  -16.2765  -41.4640 C.3       6 UNK         0.1400 
     43 CB          0.3210  -16.1057  -40.2322 C.3       6 UNK        -0.1800 
     44 N          -1.0018  -14.9672  -41.9593 N.am      6 UNK        -0.5000 
     45 C          -2.0458  -14.7971  -42.7837 C.2       5 UNK         0.5000 
     46 O          -2.7585  -15.7220  -43.1709 O.2       5 UNK        -0.5000 
     47 CA         -2.3175  -13.3741  -43.3051 C.3       5 UNK         0.1400 
     48 CB         -3.3009  -12.6417  -42.3808 C.3       5 UNK        -0.1800 
     49 N          -1.1088  -12.5648  -43.4608 N.am      5 UNK        -0.5000 
     50 C          -0.0809  -12.8584  -44.2678 C.2       4 UNK         0.5000 
     51 O          -0.0429  -13.8639  -44.9799 O.2       4 UNK        -0.5000 
     52 CA          1.1202  -11.8911  -44.2617 C.3       4 UNK         0.1400 
     53 CB          0.8598  -10.5626  -43.5170 C.3       4 UNK        -0.1800 
     54 N           2.3401  -12.5215  -43.7485 N.am      4 UNK        -0.5000 
     55 C           2.5168  -13.1221  -42.5601 C.2       3 UNK         0.5000 
     56 O           1.6110  -13.2742  -41.7392 O.2       3 UNK        -0.5000 
     57 CA          3.9318  -13.6461  -42.2243 C.3       3 UNK         0.1400 
     58 CB          3.8983  -15.0946  -41.7085 C.3       3 UNK        -0.1800 
     59 N           4.8463  -13.5744  -43.3669 N.am      3 UNK        -0.5000 
     60 C           5.7134  -12.5789  -43.5963 C.2       2 UNK         0.5000 
     61 O           5.8784  -11.6233  -42.8374 O.2       2 UNK        -0.5000 
     62 CA          6.5125  -12.6464  -44.9146 C.3       2 UNK         0.1400 
     63 CB          7.8655  -13.3376  -44.6877 C.3       2 UNK        -0.1800 
     64 N           5.8113  -13.3177  -46.0163 N.am      2 UNK        -0.5000 
     65 C           4.6377  -12.9271  -46.5353 C.2       1 UNK         0.5000 
     66 O           3.9871  -11.9786  -46.0945 O.2       1 UNK        -0.5000 
     67 C          -2.3982  -22.3962  -48.1812 C.2       11 UNK         0.5000 
     68 O          -2.4847  -23.3404  -48.9652 O.2       11 UNK        -0.5000 
     69 N          -3.4181  -21.9806  -47.4165 N.am      12 UNK        -0.5000 
     70 CA         -4.7174  -22.6504  -47.3527 C.3       12 UNK         0.1400 
     71 CB         -5.7355  -21.7603  -46.6226 C.3       12 UNK        -0.1800 
     72 C          -4.6338  -24.0417  -46.6984 C.2       12 UNK         0.5000 
     73 O          -5.2302  -24.9900  -47.2089 O.2       12 UNK        -0.5000 
     74 N          -3.9016  -24.1324  -45.5811 N.am      13 UNK        -0.5000 
     75 CA         -3.7619  -25.3427  -44.7723 C.3       13 UNK         0.1400 
     76 CB         -3.2223  -24.9535  -43.3874 C.3       13 UNK        -0.1800 
     77 C          -2.8709  -26.4300  -45.4027 C.2       13 UNK         0.5000 
     78 O          -3.1070  -27.6101  -45.1416 O.2       13 UNK        -0.5000 
     79 N          -1.8539  -26.0184  -46.1745 N.am      14 UNK        -0.5000 
     80 CA         -0.7968  -26.8627  -46.7397 C.3       14 UNK         0.1400 
     81 CB          0.2008  -26.0129  -47.5459 C.3       14 UNK        -0.1800 
     82 C          -1.2598  -28.1257  -47.5051 C.2       14 UNK         0.5000 
     83 O          -0.8446  -29.2181  -47.1215 O.2       14 UNK        -0.5000 
     84 N          -2.1047  -28.0533  -48.5459 N.am      15 UNK        -0.5000 
     85 CA         -2.5820  -26.8778  -49.2821 C.3       15 UNK         0.1400 
     86 CB         -4.0060  -27.1811  -49.7723 C.3       15 UNK        -0.1800 
     87 C          -1.6697  -26.5205  -50.4765 C.2       15 UNK         0.5000 
     88 O          -1.9593  -25.5630  -51.1958 O.2       15 UNK        -0.5000 
     89 N          -0.6064  -27.3135  -50.6960 N.am      16 UNK        -0.5000 
     90 CA          0.4572  -27.1420  -51.6998 C.3       16 UNK         0.1400 
     91 CB          1.2943  -25.8880  -51.3688 C.3       16 UNK        -0.1800 
     92 C          -0.0334  -27.1345  -53.1660 C.2       16 UNK         0.5000 
     93 O           0.6756  -26.6399  -54.0433 O.2       16 UNK        -0.5000 
     94 N          -1.2521  -27.6491  -53.3951 N.am      17 UNK        -0.5000 
     95 CA         -2.0429  -27.5706  -54.6311 C.3       17 UNK         0.1400 
     96 CB         -1.3600  -28.3439  -55.7785 C.3       17 UNK        -0.1800 
     97 C          -2.4279  -26.1261  -55.0345 C.2       17 UNK         0.5000 
     98 O          -2.8427  -25.9048  -56.1735 O.2       17 UNK        -0.5000 
     99 N          -2.3000  -25.1759  -54.0988 N.am      18 UNK        -0.5000 
    100 CA        -2.6243  -23.7632  -54.2702 C.3       18 UNK         0.1400 
    101 CB        -1.4572  -22.9116  -53.7444 C.3       18 UNK        -0.1800 
    102 C         -3.9215  -23.4237  -53.5250 C.2       18 UNK         0.5000 
    103 O         -4.8021  -22.7906  -54.1071 O.2       18 UNK        -0.5000 
    104 N         -4.0162  -23.8681  -52.2604 N.am      19 UNK        -0.5000 
    105 CA        -5.1445  -23.6856  -51.3403 C.3       19 UNK         0.1400 
    106 CB        -6.3533  -24.5274  -51.7991 C.3       19 UNK        -0.1800 
    107 C         -5.5022  -22.2035  -51.1006 C.2       19 UNK         0.5000 
    108 O         -6.6817  -21.8655  -50.9848 O.2       19 UNK        -0.5000 
    109 N         -4.4665  -21.3537  -51.0323 N.am      20 UNK        -0.5000 
    110 CA        -4.5090  -19.8914  -50.9714 C.3       20 UNK         0.1400 
    111 CB        -5.1914  -19.3881  -49.6837 C.3       20 UNK        -0.1800 
    112 C         -5.0984  -19.2918  -52.2604 C.2       20 UNK         0.5000 
    113 O         -4.3324  -18.9128  -53.1466 O.2       20 UNK        -0.5000 
    114 N         -6.4369  -19.2389  -52.3444 N.am      21 UNK        -0.5000 
    115 CA        -7.2374  -18.7459  -53.4729 C.3       21 UNK         0.1400 
    116 CB        -7.1235  -19.7114  -54.6710 C.3       21 UNK        -0.1800 
    117 C         -6.9142  -17.2813  -53.8419 C.2       21 UNK         0.5000 
    118 O         -6.8156  -16.9390  -55.0219 O.2       21 UNK        -0.5000 
    119 N         -6.7266  -16.4512  -52.8084 N.am      22 UNK        -0.5000 
    120 CA        -6.2486  -15.0629  -52.9116 C.3       22 UNK         0.1400 
    121 C         -7.2749  -14.0434  -53.4896 C.2       22 UNK         0.5000 
    122 N         -8.5464  -14.3905  -53.6461 N.am      22 UNK        -0.7600 
    123 O         -6.9078  -12.9149  -53.8055 O.2       22 UNK        -0.5000 
    124 C124       -5.6706  -14.5477  -51.5659 C.3       23 UNK        -0.0398 
    125 S125       -4.5086  -15.6918  -50.7414 S.3       23 UNK        -0.2404 
    126 C126       -3.0846  -15.6369  -51.8693 C.3       23 UNK        -0.0205 
    127 H127        6.9354  -14.5255  -50.4771 H         1 UNK         0.0600 
    128 H128        7.7992  -13.0071  -50.2194 H         1 UNK         0.0600 
    129 H129        6.5555  -13.1158  -51.4698 H         1 UNK         0.0600 
    130 H130        5.4064  -14.9013  -48.9308 H         1 UNK         0.3000 
    131 H131        3.8960  -14.7324  -47.3482 H         1 UNK         0.0600 
    132 H132        2.9307  -12.1579  -48.6848 H         1 UNK         0.0800 
    133 H133        2.0389  -13.0776  -47.5052 H         1 UNK         0.0800 
    134 H134        1.3356  -15.7934  -48.0093 H         1 UNK         0.0800 
    135 H135        0.1762  -14.4933  -48.1755 H         1 UNK         0.0800 
    136 H136       -1.4436  -14.4795  -50.0513 H         1 UNK         0.1150 
    137 H137       -1.9673  -18.1128  -52.2676 H         1 UNK         0.1150 
    138 H138        1.3355  -17.7023  -49.5637 H         1 UNK         0.1150 
    139 H139        0.2801  -19.5394  -52.4049 H         1 UNK         0.0800 
    140 H140        1.2220  -19.6332  -50.9396 H         1 UNK         0.0800 
    141 H141       -0.0603  -19.8460  -48.6557 H         1 UNK         0.0800 
    142 H142       -1.7958  -19.7324  -48.7461 H         1 UNK         0.0800 
    143 H143       -0.2667  -22.3582  -48.3401 H         1 UNK         0.0600 
    144 H144       -0.6476  -20.3477  -46.4028 H         1 UNK         0.3000 
    145 H145       -0.7368  -22.4559  -43.5035 H         1 UNK         0.0600 
    146 H146        1.1074  -20.9158  -42.8900 H         1 UNK         0.0600 
    147 H147        1.6585  -22.1078  -44.0570 H         1 UNK         0.0600 
    148 H148        1.3257  -20.4632  -44.5789 H         1 UNK         0.0600 
    149 H149       -0.9256  -19.6363  -43.7511 H         1 UNK         0.3000 
    150 H150       -4.4920  -19.4793  -44.2516 H         1 UNK         0.0600 
    151 H151       -4.1482  -19.6496  -41.8065 H         1 UNK         0.0600 
    152 H152       -4.2248  -17.9622  -42.2903 H         1 UNK         0.0600 
    153 H153       -2.6703  -18.7061  -41.9148 H         1 UNK         0.0600 
    154 H154       -2.5874  -17.3931  -44.1129 H         1 UNK         0.3000 
    155 H155       -1.6652  -17.3895  -47.6013 H         1 UNK         0.0600 
    156 H156       -3.7223  -16.0322  -47.4138 H         1 UNK         0.0600 
    157 H157       -2.3019  -15.0088  -47.2738 H         1 UNK         0.0600 
    158 H158       -3.2271  -15.4354  -45.8346 H         1 UNK         0.0600 
    159 H159       -0.7608  -15.8227  -45.3792 H         1 UNK         0.3000 
    160 H160        1.8693  -18.0269  -44.3598 H         1 UNK         0.0600 
    161 H161        1.9704  -15.2698  -45.6887 H         1 UNK         0.0600 
    162 H162        2.8283  -16.7057  -46.2323 H         1 UNK         0.0600 
    163 H163        3.2199  -15.9931  -44.6813 H         1 UNK         0.0600 
    164 H164        0.7666  -15.4539  -43.5173 H         1 UNK         0.3000 
    165 H165       -1.4651  -16.8233  -41.1427 H         1 UNK         0.0600 
    166 H166       -0.2053  -15.5868  -39.4310 H         1 UNK         0.0600 
    167 H167        0.6371  -17.0737  -39.8412 H         1 UNK         0.0600 
    168 H168        1.2181  -15.5369  -40.4640 H         1 UNK         0.0600 
    169 H169       -0.4184  -14.1733  -41.7210 H         1 UNK         0.3000 
    170 H170       -2.7798  -13.4691  -44.2896 H         1 UNK         0.0600 
    171 H171       -4.2242  -13.2108  -42.2636 H         1 UNK         0.0600 
    172 H172       -2.8805  -12.4891  -41.3859 H         1 UNK         0.0600 
    173 H173       -3.5715  -11.6662  -42.7853 H         1 UNK         0.0600 
    174 H174       -1.0454  -11.7344  -42.8901 H         1 UNK         0.3000 
    175 H175        1.3134  -11.6484  -45.3074 H         1 UNK         0.0600 
    176 H176        0.6953  -10.7114  -42.4492 H         1 UNK         0.0600 
    177 H177        1.7096   -9.8883  -43.6249 H         1 UNK         0.0600 
    178 H178       -0.0098  -10.0443  -43.9233 H         1 UNK         0.0600 
    179 H179        3.1383  -12.4431  -44.3694 H         1 UNK         0.3000 
    180 H180        4.3126  -13.0219  -41.4136 H         1 UNK         0.0600 
    181 H181        3.3434  -15.7568  -42.3718 H         1 UNK         0.0600 
    182 H182        3.4299  -15.1416  -40.7261 H         1 UNK         0.0600 
    183 H183        4.9046  -15.4986  -41.5957 H         1 UNK         0.0600 
    184 H184        4.7868  -14.3201  -44.0440 H         1 UNK         0.3000 
    185 H185        6.7043  -11.6183  -45.2287 H         1 UNK         0.0600 
    186 H186        8.4269  -12.8470  -43.8913 H         1 UNK         0.0600 
    187 H187        7.7405  -14.3836  -44.4048 H         1 UNK         0.0600 
    188 H188        8.4825  -13.3030  -45.5859 H         1 UNK         0.0600 
    189 H189        6.2916  -14.0955  -46.4455 H         1 UNK         0.3000 
    190 H190       -3.2930  -21.1551  -46.8400 H         1 UNK         0.3000 
    191 H191       -5.0754  -22.7886  -48.3715 H         1 UNK         0.0600 
    192 H192       -5.8348  -20.7880  -47.1029 H         1 UNK         0.0600 
    193 H193       -6.7232  -22.2228  -46.6230 H         1 UNK         0.0600 
    194 H194       -5.4578  -21.5891  -45.5834 H         1 UNK         0.0600 
    195 H195       -3.4869  -23.2849  -45.2038 H         1 UNK         0.3000 
    196 H196       -4.7563  -25.7733  -44.6366 H         1 UNK         0.0600 
    197 H197       -3.1333  -25.8272  -42.7405 H         1 UNK         0.0600 
    198 H198       -3.8864  -24.2466  -42.8895 H         1 UNK         0.0600 
    199 H199       -2.2361  -24.4933  -43.4574 H         1 UNK         0.0600 
    200 H200       -1.6984  -25.0171  -46.2483 H         1 UNK         0.3000 
    201 H201       -0.2418  -27.2380  -45.8775 H         1 UNK         0.0600 
    202 H202        0.8103  -25.3999  -46.8823 H         1 UNK         0.0600 
    203 H203       -0.2972  -25.3379  -48.2412 H         1 UNK         0.0600 
    204 H204        0.8871  -26.6393  -48.1166 H         1 UNK         0.0600 
    205 H205       -2.4056  -28.9324  -48.9399 H         1 UNK         0.3000 
    206 H206       -2.6318  -26.0041  -48.6350 H         1 UNK         0.0600 
    207 H207       -4.6775  -27.3637  -48.9329 H         1 UNK         0.0600 
    208 H208       -4.4172  -26.3449  -50.3339 H         1 UNK         0.0600 
    209 H209       -4.0342  -28.0557  -50.4233 H         1 UNK         0.0600 
    210 H210       -0.4883  -28.1038  -50.0776 H         1 UNK         0.3000 
    211 H211        1.1100  -28.0108  -51.6066 H         1 UNK         0.0600 
    212 H212        0.7155  -24.9716  -51.4913 H         1 UNK         0.0600 
    213 H213        2.1668  -25.8122  -52.0186 H         1 UNK         0.0600 
    214 H214        1.6621  -25.9166  -50.3437 H         1 UNK         0.0600 
    215 H215       -1.7377  -28.0351  -52.5983 H         1 UNK         0.3000 
    216 H216       -2.9847  -28.0762  -54.4136 H         1 UNK         0.0600 
    217 H217       -2.0237  -28.4331  -56.6392 H         1 UNK         0.0600 
    218 H218       -1.0949  -29.3551  -55.4700 H         1 UNK         0.0600 
    219 H219       -0.4516  -27.8474  -56.1202 H         1 UNK         0.0600 
    220 H220       -1.9943  -25.4513  -53.1714 H         1 UNK         0.3000 
    221 H221       -2.7682  -23.5255  -55.3262 H         1 UNK         0.0600 
    222 H222       -1.2319  -23.1336  -52.7004 H         1 UNK         0.0600 
    223 H223       -0.5510  -23.0904  -54.3230 H         1 UNK         0.0600 
    224 H224       -1.6848  -21.8469  -53.8137 H         1 UNK         0.0600 
    225 H225       -3.2246  -24.3743  -51.8687 H         1 UNK         0.3000 
    226 H226       -4.8155  -24.0731  -50.3762 H         1 UNK         0.0600 
    227 H227       -6.0723  -25.5665  -51.9690 H         1 UNK         0.0600 
    228 H228       -7.1404  -24.5240  -51.0442 H         1 UNK         0.0600 
    229 H229       -6.7845  -24.1430  -52.7240 H         1 UNK         0.0600 
    230 H230       -3.5431  -21.7492  -51.1456 H         1 UNK         0.3000 
    231 H231       -3.4746  -19.5544  -50.9249 H         1 UNK         0.0600 
    232 H232       -6.2201  -19.7311  -49.5810 H         1 UNK         0.0600 
    233 H233       -5.2059  -18.2998  -49.6472 H         1 UNK         0.0600 
    234 H234       -4.6399  -19.7260  -48.8088 H         1 UNK         0.0600 
    235 H235       -6.9586  -19.6574  -51.5848 H         1 UNK         0.3000 
    236 H236       -8.2763  -18.7547  -53.1409 H         1 UNK         0.0600 
    237 H237       -7.3699  -20.7323  -54.3781 H         1 UNK         0.0600 
    238 H238       -7.8089  -19.4278  -55.4704 H         1 UNK         0.0600 
    239 H239       -6.1164  -19.7202  -55.0893 H         1 UNK         0.0600 
    240 H240       -6.8121  -16.8196  -51.8728 H         1 UNK         0.3000 
    241 H241       -5.4247  -15.0735  -53.6275 H         1 UNK         0.0600 
    242 H242       -9.2016  -13.7244  -54.0249 H         1 UNK         0.3800 
    243 H243       -8.8587  -15.3152  -53.3965 H         1 UNK         0.3800 
    244 H244       -5.1647  -13.5912  -51.7095 H         1 UNK         0.0800 
    245 H245       -6.4824  -14.3535  -50.8628 H         1 UNK         0.0800 
    246 H246       -3.3313  -16.1723  -52.7876 H         1 UNK         0.0800 
    247 H247       -2.8784  -14.6042  -52.1544 H         1 UNK         0.0800 
@<TRIPOS>BOND
     1    1    2 1    
     2    1  127 1    
     3    1  128 1    
     4    1  129 1    
     5    2    3 2    
     6    2    4 am   BACKBONE|DICT|INTERRES
     7    4    5 1    
     8    4  130 1    
     9    5    6 1    
    10    5   65 1    
    11    5  131 1    
    12    6    7 1    
    13    6  132 1    
    14    6  133 1    
    15    7    8 1    
    16    8    9 1    
    17    8  134 1    
    18    8  135 1    
    19    9   10 ar   
    20    9   14 ar   
    21   10   11 ar   
    22   10  136 1    
    23   11   12 ar   
    24   11  126 1    
    25   12   13 ar   
    26   12  137 1    
    27   13   14 ar   
    28   13   15 1    
    29   14  138 1    
    30   15   16 1    
    31   15  139 1    
    32   15  140 1    
    33   16   17 1    
    34   17   18 1    
    35   17  141 1    
    36   17  142 1    
    37   18   19 1    
    38   18   67 1    
    39   18  143 1    
    40   19   20 am   BACKBONE|DICT|INTERRES
    41   19  144 1    
    42   20   21 2    
    43   20   22 1    
    44   22   23 1    
    45   22   24 1    
    46   22  145 1    
    47   23  146 1    
    48   23  147 1    
    49   23  148 1    
    50   24   25 am   BACKBONE|DICT|INTERRES
    51   24  149 1    
    52   25   26 2    
    53   25   27 1    
    54   27   28 1    
    55   27   29 1    
    56   27  150 1    
    57   28  151 1    
    58   28  152 1    
    59   28  153 1    
    60   29   30 am   BACKBONE|DICT|INTERRES
    61   29  154 1    
    62   30   31 2    
    63   30   32 1    
    64   32   33 1    
    65   32   34 1    
    66   32  155 1    
    67   33  156 1    
    68   33  157 1    
    69   33  158 1    
    70   34   35 am   BACKBONE|DICT|INTERRES
    71   34  159 1    
    72   35   36 2    
    73   35   37 1    
    74   37   38 1    
    75   37   39 1    
    76   37  160 1    
    77   38  161 1    
    78   38  162 1    
    79   38  163 1    
    80   39   40 am   BACKBONE|DICT|INTERRES
    81   39  164 1    
    82   40   41 2    
    83   40   42 1    
    84   42   43 1    
    85   42   44 1    
    86   42  165 1    
    87   43  166 1    
    88   43  167 1    
    89   43  168 1    
    90   44   45 am   BACKBONE|DICT|INTERRES
    91   44  169 1    
    92   45   46 2    
    93   45   47 1    
    94   47   48 1    
    95   47   49 1    
    96   47  170 1    
    97   48  171 1    
    98   48  172 1    
    99   48  173 1    
   100   49   50 am   BACKBONE|DICT|INTERRES
   101   49  174 1    
   102   50   51 2    
   103   50   52 1    
   104   52   53 1    
   105   52   54 1    
   106   52  175 1    
   107   53  176 1    
   108   53  177 1    
   109   53  178 1    
   110   54   55 am   BACKBONE|DICT|INTERRES
   111   54  179 1    
   112   55   56 2    
   113   55   57 1    
   114   57   58 1    
   115   57   59 1    
   116   57  180 1    
   117   58  181 1    
   118   58  182 1    
   119   58  183 1    
   120   59   60 am   BACKBONE|DICT|INTERRES
   121   59  184 1    
   122   60   61 2    
   123   60   62 1    
   124   62   63 1    
   125   62   64 1    
   126   62  185 1    
   127   63  186 1    
   128   63  187 1    
   129   63  188 1    
   130   64   65 am   BACKBONE|DICT|INTERRES
   131   64  189 1    
   132   65   66 2    
   133   67   68 2    
   134   67   69 am   BACKBONE|DICT|INTERRES
   135   69   70 1    
   136   69  190 1    
   137   70   71 1    
   138   70   72 1    
   139   70  191 1    
   140   71  192 1    
   141   71  193 1    
   142   71  194 1    
   143   72   73 2    
   144   72   74 am   BACKBONE|DICT|INTERRES
   145   74   75 1    
   146   74  195 1    
   147   75   76 1    
   148   75   77 1    
   149   75  196 1    
   150   76  197 1    
   151   76  198 1    
   152   76  199 1    
   153   77   78 2    
   154   77   79 am   BACKBONE|DICT|INTERRES
   155   79   80 1    
   156   79  200 1    
   157   80   81 1    
   158   80   82 1    
   159   80  201 1    
   160   81  202 1    
   161   81  203 1    
   162   81  204 1    
   163   82   83 2    
   164   82   84 am   BACKBONE|DICT|INTERRES
   165   84   85 1    
   166   84  205 1    
   167   85   86 1    
   168   85   87 1    
   169   85  206 1    
   170   86  207 1    
   171   86  208 1    
   172   86  209 1    
   173   87   88 2    
   174   87   89 am   BACKBONE|DICT|INTERRES
   175   89   90 1    
   176   89  210 1    
   177   90   91 1    
   178   90   92 1    
   179   90  211 1    
   180   91  212 1    
   181   91  213 1    
   182   91  214 1    
   183   92   93 2    
   184   92   94 am   BACKBONE|DICT|INTERRES
   185   94   95 1    
   186   94  215 1    
   187   95   96 1    
   188   95   97 1    
   189   95  216 1    
   190   96  217 1    
   191   96  218 1    
   192   96  219 1    
   193   97   98 2    
   194   97   99 am   BACKBONE|DICT|INTERRES
   195   99  100 1    
   196   99  220 1    
   197  100  101 1    
   198  100  102 1    
   199  100  221 1    
   200  101  222 1    
   201  101  223 1    
   202  101  224 1    
   203  102  103 2    
   204  102  104 am   BACKBONE|DICT|INTERRES
   205  104  105 1    
   206  104  225 1    
   207  105  106 1    
   208  105  107 1    
   209  105  226 1    
   210  106  227 1    
   211  106  228 1    
   212  106  229 1    
   213  107  108 2    
   214  107  109 am   BACKBONE|DICT|INTERRES
   215  109  110 1    
   216  109  230 1    
   217  110  111 1    
   218  110  112 1    
   219  110  231 1    
   220  111  232 1    
   221  111  233 1    
   222  111  234 1    
   223  112  113 2    
   224  112  114 am   BACKBONE|DICT|INTERRES
   225  114  115 1    
   226  114  235 1    
   227  115  116 1    
   228  115  117 1    
   229  115  236 1    
   230  116  237 1    
   231  116  238 1    
   232  116  239 1    
   233  117  118 2    
   234  117  119 am   BACKBONE|DICT|INTERRES
   235  119  120 1    
   236  119  240 1    
   237  120  121 1    
   238  120  124 1    
   239  120  241 1    
   240  121  122 am   BACKBONE|DICT|INTERRES
   241  121  123 2    
   242  122  242 1    
   243  122  243 1    
   244  124  125 1    
   245  124  244 1    
   246  124  245 1    
   247  125  126 1    
   248  126  246 1    
   249  126  247 1    
@<TRIPOS>SUBSTRUCTURE
     1 UNK         1 GROUP             0       ****    0 ROOT    
