@<TRIPOS>MOLECULE
3R540
247   249    1
SMALL
USER_CHARGES


@<TRIPOS>ATOM
      1 CA          6.9784  -17.6226  -46.9614 C.3       0 UNK        -0.1800 
      2 C           5.8365  -16.7458  -47.4545 C.2       0 UNK         0.5000 
      3 O           4.7124  -16.8717  -46.9685 O.2       0 UNK        -0.5000 
      4 N           6.1226  -15.8428  -48.4015 N.am      1 UNK        -0.5000 
      5 CA          5.1646  -14.9375  -49.0532 C.3       1 UNK         0.1400 
      6 C6          5.6598  -14.4643  -50.4484 C.3       23 UNK        -0.0398 
      7 S7          6.2203  -15.8144  -51.5442 S.3       23 UNK        -0.2404 
      8 C8          4.6954  -16.2298  -52.4479 C.3       23 UNK        -0.0205 
      9 C9          3.6790  -16.9254  -51.5551 C.ar      23 UNK        -0.0193 
     10 C10         2.4735  -16.2987  -51.2284 C.ar      23 UNK        -0.1150 
     11 C11         1.5364  -16.9341  -50.4064 C.ar      23 UNK        -0.0193 
     12 C12         1.8238  -18.2098  -49.9049 C.ar      23 UNK        -0.1150 
     13 C13         3.0235  -18.8496  -50.2313 C.ar      23 UNK        -0.0193 
     14 C14         3.9449  -18.2028  -51.0573 C.ar      23 UNK        -0.1150 
     15 C15         3.3147  -20.2557  -49.7334 C.3       23 UNK        -0.0205 
     16 S16         4.2430  -20.2687  -48.1638 S.3       23 UNK        -0.2404 
     17 C17         2.9273  -20.0012  -46.9240 C.3       23 UNK        -0.0398 
     18 CA          2.3887  -21.3221  -46.3169 C.3       11 UNK         0.1400 
     19 N           1.6536  -21.0912  -45.0710 N.am      11 UNK        -0.5000 
     20 C           1.2878  -22.0535  -44.2116 C.2       10 UNK         0.5000 
     21 O           1.6233  -23.2332  -44.3226 O.2       10 UNK        -0.5000 
     22 CA          0.3708  -21.6371  -43.0459 C.3       10 UNK         0.1400 
     23 CB          1.1948  -21.1213  -41.8567 C.3       10 UNK        -0.1800 
     24 N          -0.6193  -20.6324  -43.4394 N.am      10 UNK        -0.5000 
     25 C          -1.6298  -20.8634  -44.2907 C.2       9 UNK         0.5000 
     26 O          -1.8754  -21.9684  -44.7726 O.2       9 UNK        -0.5000 
     27 CA         -2.5002  -19.6587  -44.6941 C.3       9 UNK         0.1400 
     28 CB         -3.6316  -19.4463  -43.6775 C.3       9 UNK        -0.1800 
     29 N          -1.7376  -18.4188  -44.8515 N.am      9 UNK        -0.5000 
     30 C          -0.7789  -18.2221  -45.7690 C.2       8 UNK         0.5000 
     31 O          -0.4447  -19.0673  -46.5977 O.2       8 UNK        -0.5000 
     32 CA         -0.0165  -16.8854  -45.7024 C.3       8 UNK         0.1400 
     33 CB         -0.8622  -15.7343  -46.2655 C.3       8 UNK        -0.1800 
     34 N           0.4043  -16.5584  -44.3405 N.am      8 UNK        -0.5000 
     35 C           1.2312  -17.3070  -43.5974 C.2       7 UNK         0.5000 
     36 O           1.7925  -18.3217  -44.0106 O.2       7 UNK        -0.5000 
     37 CA          1.4094  -16.8882  -42.1276 C.3       7 UNK         0.1400 
     38 CB          2.4632  -15.7838  -41.9800 C.3       7 UNK        -0.1800 
     39 N           0.1520  -16.4411  -41.5301 N.am      7 UNK        -0.5000 
     40 C          -0.8634  -17.2559  -41.2151 C.2       6 UNK         0.5000 
     41 O          -0.8371  -18.4753  -41.3771 O.2       6 UNK        -0.5000 
     42 CA         -2.1331  -16.5877  -40.6581 C.3       6 UNK         0.1400 
     43 CB         -1.9790  -16.2922  -39.1586 C.3       6 UNK        -0.1800 
     44 N          -2.4757  -15.3524  -41.3653 N.am      6 UNK        -0.5000 
     45 C          -2.8719  -15.3047  -42.6445 C.2       5 UNK         0.5000 
     46 O          -2.9963  -16.2980  -43.3585 O.2       5 UNK        -0.5000 
     47 CA         -3.1400  -13.9116  -43.2396 C.3       5 UNK         0.1400 
     48 CB         -4.5749  -13.4604  -42.9288 C.3       5 UNK        -0.1800 
     49 N          -2.1993  -12.8806  -42.7941 N.am      5 UNK        -0.5000 
     50 C          -0.8748  -12.9132  -42.9893 C.2       4 UNK         0.5000 
     51 O          -0.2700  -13.8740  -43.4705 O.2       4 UNK        -0.5000 
     52 CA         -0.0875  -11.6661  -42.5570 C.3       4 UNK         0.1400 
     53 CB          0.7774  -11.9683  -41.3236 C.3       4 UNK        -0.1800 
     54 N           0.7682  -11.1949  -43.6435 N.am      4 UNK        -0.5000 
     55 C           0.3281  -10.6061  -44.7654 C.2       3 UNK         0.5000 
     56 O          -0.8540  -10.3270  -44.9706 O.2       3 UNK        -0.5000 
     57 CA          1.3828  -10.2574  -45.8342 C.3       3 UNK         0.1400 
     58 CB          1.7976   -8.7823  -45.7174 C.3       3 UNK        -0.1800 
     59 N           2.5789  -11.0968  -45.7375 N.am      3 UNK        -0.5000 
     60 C           2.6653  -12.3431  -46.2183 C.2       2 UNK         0.5000 
     61 O           1.7684  -12.9012  -46.8545 O.2       2 UNK        -0.5000 
     62 CA          3.9608  -13.1009  -45.8805 C.3       2 UNK         0.1400 
     63 CB          3.7920  -13.8703  -44.5640 C.3       2 UNK        -0.1800 
     64 N           4.3413  -14.0522  -46.9186 N.am      2 UNK        -0.5000 
     65 C           4.7882  -13.7450  -48.1400 C.2       1 UNK         0.5000 
     66 O           4.9434  -12.5854  -48.5293 O.2       1 UNK        -0.5000 
     67 C           1.5346  -22.1082  -47.3355 C.2       11 UNK         0.5000 
     68 O           2.0427  -23.0350  -47.9697 O.2       11 UNK        -0.5000 
     69 N           0.2599  -21.7201  -47.4811 N.am      12 UNK        -0.5000 
     70 CA         -0.7163  -22.2847  -48.4132 C.3       12 UNK         0.1400 
     71 CB         -1.8832  -21.2934  -48.5724 C.3       12 UNK        -0.1800 
     72 C          -1.1895  -23.7015  -48.0201 C.2       12 UNK         0.5000 
     73 O          -2.3654  -23.9124  -47.7213 O.2       12 UNK        -0.5000 
     74 N          -0.2635  -24.6642  -48.0583 N.am      13 UNK        -0.5000 
     75 CA         -0.5254  -26.1007  -47.9754 C.3       13 UNK         0.1400 
     76 CB          0.8196  -26.8238  -47.7956 C.3       13 UNK        -0.1800 
     77 C          -1.2699  -26.6214  -49.2245 C.2       13 UNK         0.5000 
     78 O          -1.4160  -25.8894  -50.2054 O.2       13 UNK        -0.5000 
     79 N          -1.7126  -27.8855  -49.1717 N.am      14 UNK        -0.5000 
     80 CA         -2.4310  -28.6042  -50.2325 C.3       14 UNK         0.1400 
     81 CB         -1.5418  -28.7925  -51.4808 C.3       14 UNK        -0.1800 
     82 C          -3.7893  -27.9491  -50.5528 C.2       14 UNK         0.5000 
     83 O          -3.9909  -27.4219  -51.6495 O.2       14 UNK        -0.5000 
     84 N          -4.6859  -27.9832  -49.5556 N.am      15 UNK        -0.5000 
     85 CA         -6.0696  -27.4961  -49.5957 C.3       15 UNK         0.1400 
     86 CB         -6.9224  -28.3715  -50.5391 C.3       15 UNK        -0.1800 
     87 C          -6.1551  -25.9955  -49.9337 C.2       15 UNK         0.5000 
     88 O          -6.8210  -25.6149  -50.8973 O.2       15 UNK        -0.5000 
     89 N          -5.4431  -25.1758  -49.1462 N.am      16 UNK        -0.5000 
     90 CA         -5.3339  -23.7188  -49.2847 C.3       16 UNK         0.1400 
     91 CB         -6.6921  -23.0390  -49.0073 C.3       16 UNK        -0.1800 
     92 C          -4.7147  -23.3061  -50.6360 C.2       16 UNK         0.5000 
     93 O          -5.2252  -22.3972  -51.2914 O.2       16 UNK        -0.5000 
     94 N          -3.6448  -24.0065  -51.0439 N.am      17 UNK        -0.5000 
     95 CA         -2.9500  -23.8740  -52.3288 C.3       17 UNK         0.1400 
     96 CB         -2.1879  -22.5333  -52.3969 C.3       17 UNK        -0.1800 
     97 C          -3.9004  -24.1034  -53.5215 C.2       17 UNK         0.5000 
     98 O          -3.9918  -23.2589  -54.4132 O.2       17 UNK        -0.5000 
     99 N          -4.6249  -25.2319  -53.4796 N.am      18 UNK        -0.5000 
    100 CA        -5.6826  -25.6362  -54.4119 C.3       18 UNK         0.1400 
    101 CB        -5.0907  -25.9748  -55.7959 C.3       18 UNK        -0.1800 
    102 C         -6.8364  -24.6106  -54.4740 C.2       18 UNK         0.5000 
    103 O         -7.2522  -24.1997  -55.5591 O.2       18 UNK        -0.5000 
    104 N         -7.3170  -24.2142  -53.2875 N.am      19 UNK        -0.5000 
    105 CA        -8.4084  -23.2730  -53.0190 C.3       19 UNK         0.1400 
    106 CB        -9.7470  -23.8218  -53.5555 C.3       19 UNK        -0.1800 
    107 C         -8.1403  -21.8180  -53.4638 C.2       19 UNK         0.5000 
    108 O         -9.0895  -21.0417  -53.5890 O.2       19 UNK        -0.5000 
    109 N         -6.8679  -21.4525  -53.6717 N.am      20 UNK        -0.5000 
    110 CA        -6.4482  -20.0837  -53.9780 C.3       20 UNK         0.1400 
    111 CB        -5.0504  -20.1053  -54.6129 C.3       20 UNK        -0.1800 
    112 C         -6.4563  -19.1853  -52.7282 C.2       20 UNK         0.5000 
    113 O         -6.8108  -18.0090  -52.8256 O.2       20 UNK        -0.5000 
    114 N         -6.0515  -19.7578  -51.5832 N.am      21 UNK        -0.5000 
    115 CA        -6.0276  -19.1779  -50.2345 C.3       21 UNK         0.1400 
    116 CB        -7.4688  -19.0534  -49.7001 C.3       21 UNK        -0.1800 
    117 C         -5.2375  -17.8560  -50.1088 C.2       21 UNK         0.5000 
    118 O         -5.5165  -17.0653  -49.2058 O.2       21 UNK        -0.5000 
    119 N         -4.2840  -17.6313  -51.0247 N.am      22 UNK        -0.5000 
    120 CA        -3.5360  -16.3736  -51.2054 C.3       22 UNK         0.1400 
    121 C         -4.4244  -15.1558  -51.6179 C.2       22 UNK         0.5000 
    122 N         -5.6141  -15.3625  -52.1730 N.am      22 UNK        -0.7600 
    123 O         -4.0224  -14.0048  -51.4700 O.2       22 UNK        -0.5000 
    124 C124       -2.5752  -16.0703  -50.0194 C.3       23 UNK        -0.0398 
    125 S125       -1.2221  -17.2941  -49.9328 S.3       23 UNK        -0.2404 
    126 C126        0.2394  -16.2061  -50.0635 C.3       23 UNK        -0.0205 
    127 H127        7.1246  -17.4804  -45.8907 H         1 UNK         0.0600 
    128 H128        7.9156  -17.3911  -47.4679 H         1 UNK         0.0600 
    129 H129        6.7469  -18.6728  -47.1381 H         1 UNK         0.0600 
    130 H130        7.0695  -15.7801  -48.7468 H         1 UNK         0.3000 
    131 H131        4.2409  -15.4967  -49.2069 H         1 UNK         0.0600 
    132 H132        4.8779  -13.8975  -50.9567 H         1 UNK         0.0800 
    133 H133        6.5018  -13.7791  -50.3360 H         1 UNK         0.0800 
    134 H134        4.2767  -15.3272  -52.8957 H         1 UNK         0.0800 
    135 H135        4.9482  -16.8922  -53.2769 H         1 UNK         0.0800 
    136 H136        2.2662  -15.3097  -51.6126 H         1 UNK         0.1150 
    137 H137        1.1077  -18.7114  -49.2696 H         1 UNK         0.1150 
    138 H138        4.8748  -18.6922  -51.3116 H         1 UNK         0.1150 
    139 H139        2.3851  -20.8157  -49.6411 H         1 UNK         0.0800 
    140 H140        3.9033  -20.7889  -50.4813 H         1 UNK         0.0800 
    141 H141        2.1247  -19.3939  -47.3402 H         1 UNK         0.0800 
    142 H142        3.3684  -19.3915  -46.1340 H         1 UNK         0.0800 
    143 H143        3.2483  -21.9462  -46.0626 H         1 UNK         0.0600 
    144 H144        1.3886  -20.1326  -44.8686 H         1 UNK         0.3000 
    145 H145       -0.1697  -22.5272  -42.7172 H         1 UNK         0.0600 
    146 H146        0.5553  -20.8871  -41.0056 H         1 UNK         0.0600 
    147 H147        1.9133  -21.8723  -41.5261 H         1 UNK         0.0600 
    148 H148        1.7555  -20.2227  -42.1120 H         1 UNK         0.0600 
    149 H149       -0.5265  -19.7116  -43.0255 H         1 UNK         0.3000 
    150 H150       -2.9554  -19.8886  -45.6590 H         1 UNK         0.0600 
    151 H151       -4.2182  -20.3566  -43.5482 H         1 UNK         0.0600 
    152 H152       -4.3154  -18.6641  -44.0074 H         1 UNK         0.0600 
    153 H153       -3.2444  -19.1619  -42.6986 H         1 UNK         0.0600 
    154 H154       -1.9862  -17.6562  -44.2266 H         1 UNK         0.3000 
    155 H155        0.8811  -16.9817  -46.3174 H         1 UNK         0.0600 
    156 H156       -1.2007  -15.9546  -47.2765 H         1 UNK         0.0600 
    157 H157       -0.2887  -14.8079  -46.3060 H         1 UNK         0.0600 
    158 H158       -1.7493  -15.5518  -45.6606 H         1 UNK         0.0600 
    159 H159        0.0255  -15.7039  -43.9405 H         1 UNK         0.3000 
    160 H160        1.7614  -17.7621  -41.5754 H         1 UNK         0.0600 
    161 H161        2.1317  -14.8552  -42.4424 H         1 UNK         0.0600 
    162 H162        3.4043  -16.0740  -42.4488 H         1 UNK         0.0600 
    163 H163        2.6720  -15.5772  -40.9304 H         1 UNK         0.0600 
    164 H164        0.0272  -15.4456  -41.4220 H         1 UNK         0.3000 
    165 H165       -2.9597  -17.2905  -40.7832 H         1 UNK         0.0600 
    166 H166       -2.9028  -15.8941  -38.7386 H         1 UNK         0.0600 
    167 H167       -1.7368  -17.2007  -38.6054 H         1 UNK         0.0600 
    168 H168       -1.1844  -15.5699  -38.9679 H         1 UNK         0.0600 
    169 H169       -2.3954  -14.4879  -40.8507 H         1 UNK         0.3000 
    170 H170       -3.0411  -13.9952  -44.3235 H         1 UNK         0.0600 
    171 H171       -5.2995  -14.2020  -43.2681 H         1 UNK         0.0600 
    172 H172       -4.7297  -13.3156  -41.8589 H         1 UNK         0.0600 
    173 H173       -4.8120  -12.5234  -43.4329 H         1 UNK         0.0600 
    174 H174       -2.6089  -12.0531  -42.3853 H         1 UNK         0.3000 
    175 H175       -0.7878  -10.8691  -42.2979 H         1 UNK         0.0600 
    176 H176        1.5321  -12.7264  -41.5331 H         1 UNK         0.0600 
    177 H177        1.2923  -11.0726  -40.9760 H         1 UNK         0.0600 
    178 H178        0.1663  -12.3323  -40.4966 H         1 UNK         0.0600 
    179 H179        1.7489  -11.4164  -43.5731 H         1 UNK         0.3000 
    180 H180        0.9231  -10.4039  -46.8142 H         1 UNK         0.0600 
    181 H181        2.2671   -8.5697  -44.7562 H         1 UNK         0.0600 
    182 H182        0.9322   -8.1249  -45.8124 H         1 UNK         0.0600 
    183 H183        2.5007   -8.5070  -46.5037 H         1 UNK         0.0600 
    184 H184        3.3643  -10.7047  -45.2378 H         1 UNK         0.3000 
    185 H185        4.7736  -12.3807  -45.7657 H         1 UNK         0.0600 
    186 H186        3.5272  -13.2007  -43.7449 H         1 UNK         0.0600 
    187 H187        3.0042  -14.6202  -44.6483 H         1 UNK         0.0600 
    188 H188        4.7126  -14.3816  -44.2819 H         1 UNK         0.0600 
    189 H189        4.2489  -15.0394  -46.6955 H         1 UNK         0.3000 
    190 H190       -0.0592  -20.9164  -46.9467 H         1 UNK         0.3000 
    191 H191       -0.2324  -22.3725  -49.3879 H         1 UNK         0.0600 
    192 H192       -2.6007  -21.6463  -49.3127 H         1 UNK         0.0600 
    193 H193       -2.4190  -21.1517  -47.6340 H         1 UNK         0.0600 
    194 H194       -1.5300  -20.3177  -48.9071 H         1 UNK         0.0600 
    195 H195        0.6897  -24.3823  -48.2652 H         1 UNK         0.3000 
    196 H196       -1.1507  -26.2879  -47.1002 H         1 UNK         0.0600 
    197 H197        0.6809  -27.8974  -47.6637 H         1 UNK         0.0600 
    198 H198        1.3482  -26.4576  -46.9150 H         1 UNK         0.0600 
    199 H199        1.4703  -26.6800  -48.6592 H         1 UNK         0.0600 
    200 H200       -1.5526  -28.4124  -48.3242 H         1 UNK         0.3000 
    201 H201       -2.6489  -29.5994  -49.8418 H         1 UNK         0.0600 
    202 H202       -0.6050  -29.2875  -51.2256 H         1 UNK         0.0600 
    203 H203       -1.2991  -27.8450  -51.9626 H         1 UNK         0.0600 
    204 H204       -2.0453  -29.4122  -52.2237 H         1 UNK         0.0600 
    205 H205       -4.4029  -28.4079  -48.6834 H         1 UNK         0.3000 
    206 H206       -6.4732  -27.6092  -48.5885 H         1 UNK         0.0600 
    207 H207       -6.8740  -29.4220  -50.2527 H         1 UNK         0.0600 
    208 H208       -7.9711  -28.0741  -50.5046 H         1 UNK         0.0600 
    209 H209       -6.5952  -28.2917  -51.5764 H         1 UNK         0.0600 
    210 H210       -4.8966  -25.5835  -48.4005 H         1 UNK         0.3000 
    211 H211       -4.6511  -23.3729  -48.5117 H         1 UNK         0.0600 
    212 H212       -7.4292  -23.2650  -49.7770 H         1 UNK         0.0600 
    213 H213       -6.5843  -21.9558  -48.9678 H         1 UNK         0.0600 
    214 H214       -7.1020  -23.3559  -48.0485 H         1 UNK         0.0600 
    215 H215       -3.2874  -24.7433  -50.4479 H         1 UNK         0.3000 
    216 H216       -2.2114  -24.6745  -52.3760 H         1 UNK         0.0600 
    217 H217       -1.6272  -22.4495  -53.3284 H         1 UNK         0.0600 
    218 H218       -1.4713  -22.4497  -51.5806 H         1 UNK         0.0600 
    219 H219       -2.8592  -21.6767  -52.3407 H         1 UNK         0.0600 
    220 H220       -4.4634  -25.8753  -52.7077 H         1 UNK         0.3000 
    221 H221       -6.1110  -26.5531  -54.0042 H         1 UNK         0.0600 
    222 H222       -4.6719  -25.0954  -56.2859 H         1 UNK         0.0600 
    223 H223       -4.3006  -26.7212  -55.7135 H         1 UNK         0.0600 
    224 H224       -5.8555  -26.3838  -56.4570 H         1 UNK         0.0600 
    225 H225       -6.9243  -24.6461  -52.4523 H         1 UNK         0.3000 
    226 H226       -8.4915  -23.2316  -51.9328 H         1 UNK         0.0600 
    227 H227       -9.9230  -24.8397  -53.2076 H         1 UNK         0.0600 
    228 H228      -10.5862  -23.2156  -53.2126 H         1 UNK         0.0600 
    229 H229       -9.7743  -23.8291  -54.6454 H         1 UNK         0.0600 
    230 H230       -6.1364  -22.1353  -53.5188 H         1 UNK         0.3000 
    231 H231       -7.1424  -19.6567  -54.7048 H         1 UNK         0.0600 
    232 H232       -4.3049  -20.5160  -53.9316 H         1 UNK         0.0600 
    233 H233       -4.7289  -19.0994  -54.8856 H         1 UNK         0.0600 
    234 H234       -5.0399  -20.7089  -55.5207 H         1 UNK         0.0600 
    235 H235       -5.7635  -20.7357  -51.6225 H         1 UNK         0.3000 
    236 H236       -5.4994  -19.8968  -49.6073 H         1 UNK         0.0600 
    237 H237       -8.0044  -19.9990  -49.7853 H         1 UNK         0.0600 
    238 H238       -7.4769  -18.7721  -48.6465 H         1 UNK         0.0600 
    239 H239       -8.0348  -18.2987  -50.2471 H         1 UNK         0.0600 
    240 H240       -4.1265  -18.3409  -51.7244 H         1 UNK         0.3000 
    241 H241       -2.9118  -16.5354  -52.0848 H         1 UNK         0.0600 
    242 H242       -6.1742  -14.5711  -52.4468 H         1 UNK         0.3800 
    243 H243       -5.9689  -16.3022  -52.3257 H         1 UNK         0.3800 
    244 H244       -2.1398  -15.0750  -50.1146 H         1 UNK         0.0800 
    245 H245       -3.1094  -16.0645  -49.0693 H         1 UNK         0.0800 
    246 H246        0.0398  -15.4524  -50.8268 H         1 UNK         0.0800 
    247 H247        0.3764  -15.6706  -49.1235 H         1 UNK         0.0800 
@<TRIPOS>BOND
     1    1    2 1    
     2    1  127 1    
     3    1  128 1    
     4    1  129 1    
     5    2    3 2    
     6    2    4 am   BACKBONE|DICT|INTERRES
     7    4    5 1    
     8    4  130 1    
     9    5    6 1    
    10    5   65 1    
    11    5  131 1    
    12    6    7 1    
    13    6  132 1    
    14    6  133 1    
    15    7    8 1    
    16    8    9 1    
    17    8  134 1    
    18    8  135 1    
    19    9   10 ar   
    20    9   14 ar   
    21   10   11 ar   
    22   10  136 1    
    23   11   12 ar   
    24   11  126 1    
    25   12   13 ar   
    26   12  137 1    
    27   13   14 ar   
    28   13   15 1    
    29   14  138 1    
    30   15   16 1    
    31   15  139 1    
    32   15  140 1    
    33   16   17 1    
    34   17   18 1    
    35   17  141 1    
    36   17  142 1    
    37   18   19 1    
    38   18   67 1    
    39   18  143 1    
    40   19   20 am   BACKBONE|DICT|INTERRES
    41   19  144 1    
    42   20   21 2    
    43   20   22 1    
    44   22   23 1    
    45   22   24 1    
    46   22  145 1    
    47   23  146 1    
    48   23  147 1    
    49   23  148 1    
    50   24   25 am   BACKBONE|DICT|INTERRES
    51   24  149 1    
    52   25   26 2    
    53   25   27 1    
    54   27   28 1    
    55   27   29 1    
    56   27  150 1    
    57   28  151 1    
    58   28  152 1    
    59   28  153 1    
    60   29   30 am   BACKBONE|DICT|INTERRES
    61   29  154 1    
    62   30   31 2    
    63   30   32 1    
    64   32   33 1    
    65   32   34 1    
    66   32  155 1    
    67   33  156 1    
    68   33  157 1    
    69   33  158 1    
    70   34   35 am   BACKBONE|DICT|INTERRES
    71   34  159 1    
    72   35   36 2    
    73   35   37 1    
    74   37   38 1    
    75   37   39 1    
    76   37  160 1    
    77   38  161 1    
    78   38  162 1    
    79   38  163 1    
    80   39   40 am   BACKBONE|DICT|INTERRES
    81   39  164 1    
    82   40   41 2    
    83   40   42 1    
    84   42   43 1    
    85   42   44 1    
    86   42  165 1    
    87   43  166 1    
    88   43  167 1    
    89   43  168 1    
    90   44   45 am   BACKBONE|DICT|INTERRES
    91   44  169 1    
    92   45   46 2    
    93   45   47 1    
    94   47   48 1    
    95   47   49 1    
    96   47  170 1    
    97   48  171 1    
    98   48  172 1    
    99   48  173 1    
   100   49   50 am   BACKBONE|DICT|INTERRES
   101   49  174 1    
   102   50   51 2    
   103   50   52 1    
   104   52   53 1    
   105   52   54 1    
   106   52  175 1    
   107   53  176 1    
   108   53  177 1    
   109   53  178 1    
   110   54   55 am   BACKBONE|DICT|INTERRES
   111   54  179 1    
   112   55   56 2    
   113   55   57 1    
   114   57   58 1    
   115   57   59 1    
   116   57  180 1    
   117   58  181 1    
   118   58  182 1    
   119   58  183 1    
   120   59   60 am   BACKBONE|DICT|INTERRES
   121   59  184 1    
   122   60   61 2    
   123   60   62 1    
   124   62   63 1    
   125   62   64 1    
   126   62  185 1    
   127   63  186 1    
   128   63  187 1    
   129   63  188 1    
   130   64   65 am   BACKBONE|DICT|INTERRES
   131   64  189 1    
   132   65   66 2    
   133   67   68 2    
   134   67   69 am   BACKBONE|DICT|INTERRES
   135   69   70 1    
   136   69  190 1    
   137   70   71 1    
   138   70   72 1    
   139   70  191 1    
   140   71  192 1    
   141   71  193 1    
   142   71  194 1    
   143   72   73 2    
   144   72   74 am   BACKBONE|DICT|INTERRES
   145   74   75 1    
   146   74  195 1    
   147   75   76 1    
   148   75   77 1    
   149   75  196 1    
   150   76  197 1    
   151   76  198 1    
   152   76  199 1    
   153   77   78 2    
   154   77   79 am   BACKBONE|DICT|INTERRES
   155   79   80 1    
   156   79  200 1    
   157   80   81 1    
   158   80   82 1    
   159   80  201 1    
   160   81  202 1    
   161   81  203 1    
   162   81  204 1    
   163   82   83 2    
   164   82   84 am   BACKBONE|DICT|INTERRES
   165   84   85 1    
   166   84  205 1    
   167   85   86 1    
   168   85   87 1    
   169   85  206 1    
   170   86  207 1    
   171   86  208 1    
   172   86  209 1    
   173   87   88 2    
   174   87   89 am   BACKBONE|DICT|INTERRES
   175   89   90 1    
   176   89  210 1    
   177   90   91 1    
   178   90   92 1    
   179   90  211 1    
   180   91  212 1    
   181   91  213 1    
   182   91  214 1    
   183   92   93 2    
   184   92   94 am   BACKBONE|DICT|INTERRES
   185   94   95 1    
   186   94  215 1    
   187   95   96 1    
   188   95   97 1    
   189   95  216 1    
   190   96  217 1    
   191   96  218 1    
   192   96  219 1    
   193   97   98 2    
   194   97   99 am   BACKBONE|DICT|INTERRES
   195   99  100 1    
   196   99  220 1    
   197  100  101 1    
   198  100  102 1    
   199  100  221 1    
   200  101  222 1    
   201  101  223 1    
   202  101  224 1    
   203  102  103 2    
   204  102  104 am   BACKBONE|DICT|INTERRES
   205  104  105 1    
   206  104  225 1    
   207  105  106 1    
   208  105  107 1    
   209  105  226 1    
   210  106  227 1    
   211  106  228 1    
   212  106  229 1    
   213  107  108 2    
   214  107  109 am   BACKBONE|DICT|INTERRES
   215  109  110 1    
   216  109  230 1    
   217  110  111 1    
   218  110  112 1    
   219  110  231 1    
   220  111  232 1    
   221  111  233 1    
   222  111  234 1    
   223  112  113 2    
   224  112  114 am   BACKBONE|DICT|INTERRES
   225  114  115 1    
   226  114  235 1    
   227  115  116 1    
   228  115  117 1    
   229  115  236 1    
   230  116  237 1    
   231  116  238 1    
   232  116  239 1    
   233  117  118 2    
   234  117  119 am   BACKBONE|DICT|INTERRES
   235  119  120 1    
   236  119  240 1    
   237  120  121 1    
   238  120  124 1    
   239  120  241 1    
   240  121  122 am   BACKBONE|DICT|INTERRES
   241  121  123 2    
   242  122  242 1    
   243  122  243 1    
   244  124  125 1    
   245  124  244 1    
   246  124  245 1    
   247  125  126 1    
   248  126  246 1    
   249  126  247 1    
@<TRIPOS>SUBSTRUCTURE
     1 UNK         1 GROUP             0       ****    0 ROOT    
