@<TRIPOS>MOLECULE
3R540
247   249    1
SMALL
USER_CHARGES


@<TRIPOS>ATOM
      1 CA          0.1259  -12.8429  -47.2532 C.3       0 UNK        -0.1800 
      2 C           1.5171  -12.7486  -47.8594 C.2       0 UNK         0.5000 
      3 O           1.8799  -11.7072  -48.4051 O.2       0 UNK        -0.5000 
      4 N           2.2952  -13.8305  -47.7479 N.am      1 UNK        -0.5000 
      5 CA          3.6760  -13.9468  -48.2377 C.3       1 UNK         0.1400 
      6 C6          3.8586  -15.1730  -49.1697 C.3       23 UNK        -0.0398 
      7 S7          2.8739  -14.9961  -50.6973 S.3       23 UNK        -0.2404 
      8 C8          1.3856  -15.9617  -50.2952 C.3       23 UNK        -0.0205 
      9 C9          1.4411  -17.3497  -50.9081 C.ar      23 UNK        -0.0193 
     10 C10         0.9306  -17.5627  -52.1901 C.ar      23 UNK        -0.1150 
     11 C11         0.9355  -18.8392  -52.7575 C.ar      23 UNK        -0.0193 
     12 C12         1.4807  -19.9067  -52.0350 C.ar      23 UNK        -0.1150 
     13 C13         2.0268  -19.7009  -50.7623 C.ar      23 UNK        -0.0193 
     14 C14         1.9968  -18.4190  -50.2024 C.ar      23 UNK        -0.1150 
     15 C15         2.6847  -20.8550  -50.0129 C.3       23 UNK        -0.0205 
     16 S16         2.0531  -21.0584  -48.3152 S.3       23 UNK        -0.2404 
     17 C17         0.3079  -21.4487  -48.6451 C.3       23 UNK        -0.0398 
     18 CA         -0.2591  -22.4804  -47.6456 C.3       11 UNK         0.1400 
     19 N          -0.4418  -21.9378  -46.2964 N.am      11 UNK        -0.5000 
     20 C          -0.7912  -22.6739  -45.2309 C.2       10 UNK         0.5000 
     21 O          -0.9277  -23.8961  -45.2626 O.2       10 UNK        -0.5000 
     22 CA         -1.1100  -21.9195  -43.9295 C.3       10 UNK         0.1400 
     23 CB          0.1757  -21.5742  -43.1643 C.3       10 UNK        -0.1800 
     24 N          -1.8985  -20.7100  -44.1682 N.am      10 UNK        -0.5000 
     25 C          -3.1390  -20.7026  -44.6780 C.2       9 UNK         0.5000 
     26 O          -3.7729  -21.7262  -44.9348 O.2       9 UNK        -0.5000 
     27 CA         -3.7550  -19.3283  -45.0054 C.3       9 UNK         0.1400 
     28 CB         -4.3533  -18.6811  -43.7486 C.3       9 UNK        -0.1800 
     29 N          -2.7921  -18.4131  -45.6201 N.am      9 UNK        -0.5000 
     30 C          -2.2171  -18.6081  -46.8160 C.2       8 UNK         0.5000 
     31 O          -2.4886  -19.5517  -47.5591 O.2       8 UNK        -0.5000 
     32 CA         -1.1122  -17.6142  -47.2202 C.3       8 UNK         0.1400 
     33 CB         -1.6990  -16.3534  -47.8711 C.3       8 UNK        -0.1800 
     34 N          -0.2839  -17.2316  -46.0762 N.am      8 UNK        -0.5000 
     35 C           0.5760  -18.0611  -45.4697 C.2       7 UNK         0.5000 
     36 O           0.7659  -19.2226  -45.8254 O.2       7 UNK        -0.5000 
     37 CA          1.3093  -17.5153  -44.2321 C.3       7 UNK         0.1400 
     38 CB          2.4982  -16.6372  -44.6454 C.3       7 UNK        -0.1800 
     39 N           0.4285  -16.7591  -43.3402 N.am      7 UNK        -0.5000 
     40 C          -0.5862  -17.3024  -42.6516 C.2       6 UNK         0.5000 
     41 O          -0.8500  -18.5028  -42.6645 O.2       6 UNK        -0.5000 
     42 CA         -1.4905  -16.3476  -41.8492 C.3       6 UNK         0.1400 
     43 CB         -0.9605  -16.1862  -40.4169 C.3       6 UNK        -0.1800 
     44 N          -1.6428  -15.0235  -42.4523 N.am      6 UNK        -0.5000 
     45 C          -2.0666  -14.7629  -43.6973 C.2       5 UNK         0.5000 
     46 O          -2.4059  -15.6349  -44.4985 O.2       5 UNK        -0.5000 
     47 CA         -2.0889  -13.2839  -44.1330 C.3       5 UNK         0.1400 
     48 CB         -3.5353  -12.7743  -44.2151 C.3       5 UNK        -0.1800 
     49 N          -1.3170  -12.3855  -43.2655 N.am      5 UNK        -0.5000 
     50 C           0.0120  -12.4058  -43.0908 C.2       4 UNK         0.5000 
     51 O           0.7735  -13.1956  -43.6579 O.2       4 UNK        -0.5000 
     52 CA          0.5572  -11.4074  -42.0596 C.3       4 UNK         0.1400 
     53 CB          0.2095  -11.8532  -40.6269 C.3       4 UNK        -0.1800 
     54 N           2.0053  -11.2932  -42.1901 N.am      4 UNK        -0.5000 
     55 C           2.7241  -10.2012  -41.9004 C.2       3 UNK         0.5000 
     56 O           2.2257   -9.1558  -41.4799 O.2       3 UNK        -0.5000 
     57 CA          4.2555  -10.2742  -42.0910 C.3       3 UNK         0.1400 
     58 CB          4.9656  -10.2824  -40.7275 C.3       3 UNK        -0.1800 
     59 N           4.7147  -11.4335  -42.8612 N.am      3 UNK        -0.5000 
     60 C           4.5294  -11.6047  -44.1754 C.2       2 UNK         0.5000 
     61 O           3.9521  -10.7815  -44.8911 O.2       2 UNK        -0.5000 
     62 CA          5.0508  -12.9180  -44.7868 C.3       2 UNK         0.1400 
     63 CB          4.9164  -14.1216  -43.8307 C.3       2 UNK        -0.1800 
     64 N           4.3033  -13.1569  -46.0137 N.am      2 UNK        -0.5000 
     65 C           4.6489  -13.9427  -47.0384 C.2       1 UNK         0.5000 
     66 O           5.6687  -14.6335  -47.0541 O.2       1 UNK        -0.5000 
     67 C          -1.5539  -23.1006  -48.2026 C.2       11 UNK         0.5000 
     68 O          -1.4808  -24.1574  -48.8274 O.2       11 UNK        -0.5000 
     69 N          -2.7083  -22.4606  -47.9722 N.am      12 UNK        -0.5000 
     70 CA         -4.0191  -22.9765  -48.3734 C.3       12 UNK         0.1400 
     71 CB         -5.0890  -21.8934  -48.1818 C.3       12 UNK        -0.1800 
     72 C          -4.3969  -24.2681  -47.6282 C.2       12 UNK         0.5000 
     73 O          -4.8865  -25.2059  -48.2572 O.2       12 UNK        -0.5000 
     74 N          -4.1200  -24.3102  -46.3175 N.am      13 UNK        -0.5000 
     75 CA         -4.3165  -25.4819  -45.4614 C.3       13 UNK         0.1400 
     76 CB         -4.1188  -25.0788  -43.9923 C.3       13 UNK        -0.1800 
     77 C          -3.3958  -26.6601  -45.8364 C.2       13 UNK         0.5000 
     78 O          -3.8433  -27.8073  -45.8332 O.2       13 UNK        -0.5000 
     79 N          -2.1368  -26.3540  -46.1776 N.am      14 UNK        -0.5000 
     80 CA         -1.1291  -27.3165  -46.6307 C.3       14 UNK         0.1400 
     81 CB          0.2615  -26.6802  -46.4733 C.3       14 UNK        -0.1800 
     82 C          -1.3288  -27.7902  -48.0851 C.2       14 UNK         0.5000 
     83 O          -0.6845  -28.7582  -48.4907 O.2       14 UNK        -0.5000 
     84 N          -2.1806  -27.0866  -48.8455 N.am      15 UNK        -0.5000 
     85 CA         -2.4325  -27.2319  -50.2840 C.3       15 UNK         0.1400 
     86 CB         -3.0212  -28.6181  -50.6186 C.3       15 UNK        -0.1800 
     87 C          -1.2106  -26.8615  -51.1559 C.2       15 UNK         0.5000 
     88 O          -1.0847  -27.3417  -52.2838 O.2       15 UNK        -0.5000 
     89 N          -0.3440  -25.9887  -50.6244 N.am      16 UNK        -0.5000 
     90 CA          0.7467  -25.3336  -51.3459 C.3       16 UNK         0.1400 
     91 CB          1.8133  -24.8740  -50.3405 C.3       16 UNK        -0.1800 
     92 C           0.2226  -24.1435  -52.1715 C.2       16 UNK         0.5000 
     93 O           0.7514  -23.8691  -53.2487 O.2       16 UNK        -0.5000 
     94 N          -0.8323  -23.4921  -51.6654 N.am      17 UNK        -0.5000 
     95 CA         -1.6970  -22.5901  -52.4168 C.3       17 UNK         0.1400 
     96 CB         -2.0934  -21.3983  -51.5323 C.3       17 UNK        -0.1800 
     97 C          -2.9472  -23.3753  -52.8377 C.2       17 UNK         0.5000 
     98 O          -3.3625  -24.2935  -52.1246 O.2       17 UNK        -0.5000 
     99 N          -3.5483  -22.9887  -53.9678 N.am      18 UNK        -0.5000 
    100 CA        -4.6995  -23.6503  -54.5903 C.3       18 UNK         0.1400 
    101 CB        -4.7402  -23.2548  -56.0778 C.3       18 UNK        -0.1800 
    102 C         -6.0355  -23.3688  -53.8652 C.2       18 UNK         0.5000 
    103 O         -6.9838  -22.8872  -54.4868 O.2       18 UNK        -0.5000 
    104 N         -6.0752  -23.6456  -52.5538 N.am      19 UNK        -0.5000 
    105 CA        -7.1892  -23.5470  -51.5949 C.3       19 UNK         0.1400 
    106 CB        -8.3395  -24.4895  -51.9940 C.3       19 UNK        -0.1800 
    107 C         -7.7201  -22.1221  -51.3253 C.2       19 UNK         0.5000 
    108 O         -8.1387  -21.8367  -50.2042 O.2       19 UNK        -0.5000 
    109 N         -7.6766  -21.2479  -52.3351 N.am      20 UNK        -0.5000 
    110 CA        -8.1139  -19.8515  -52.2951 C.3       20 UNK         0.1400 
    111 CB        -8.4129  -19.4040  -53.7358 C.3       20 UNK        -0.1800 
    112 C         -7.0970  -18.8987  -51.6316 C.2       20 UNK         0.5000 
    113 O         -7.3902  -17.7092  -51.5111 O.2       20 UNK        -0.5000 
    114 N         -5.9249  -19.4253  -51.2408 N.am      21 UNK        -0.5000 
    115 CA        -4.7757  -18.7157  -50.6601 C.3       21 UNK         0.1400 
    116 CB        -5.1618  -17.9886  -49.3534 C.3       21 UNK        -0.1800 
    117 C         -4.0463  -17.8075  -51.6751 C.2       21 UNK         0.5000 
    118 O         -3.3746  -16.8566  -51.2730 O.2       21 UNK        -0.5000 
    119 N         -4.1677  -18.1453  -52.9684 N.am      22 UNK        -0.5000 
    120 CA        -3.5650  -17.4541  -54.1227 C.3       22 UNK         0.1400 
    121 C         -4.1015  -16.0014  -54.3352 C.2       22 UNK         0.5000 
    122 N         -3.4807  -15.2037  -55.1955 N.am      22 UNK        -0.7600 
    123 O         -5.1170  -15.5955  -53.7746 O.2       22 UNK        -0.5000 
    124 C124       -2.0107  -17.5510  -54.1258 C.3       23 UNK        -0.0398 
    125 S125       -1.4130  -19.2750  -54.2022 S.3       23 UNK        -0.2404 
    126 C126        0.3952  -19.0533  -54.1661 C.3       23 UNK        -0.0205 
    127 H127       -0.0325  -12.0228  -46.5528 H         1 UNK         0.0600 
    128 H128       -0.0120  -13.7805  -46.7148 H         1 UNK         0.0600 
    129 H129       -0.6317  -12.7808  -48.0342 H         1 UNK         0.0600 
    130 H130        1.9469  -14.6373  -47.2526 H         1 UNK         0.3000 
    131 H131        3.9408  -13.0614  -48.8194 H         1 UNK         0.0600 
    132 H132        3.6037  -16.1014  -48.6566 H         1 UNK         0.0800 
    133 H133        4.9017  -15.2708  -49.4749 H         1 UNK         0.0800 
    134 H134        1.2513  -16.0324  -49.2157 H         1 UNK         0.0800 
    135 H135        0.5107  -15.4283  -50.6702 H         1 UNK         0.0800 
    136 H136        0.5349  -16.7266  -52.7476 H         1 UNK         0.1150 
    137 H137        1.4988  -20.8943  -52.4750 H         1 UNK         0.1150 
    138 H138        2.4110  -18.2547  -49.2177 H         1 UNK         0.1150 
    139 H139        2.5580  -21.7936  -50.5543 H         1 UNK         0.0800 
    140 H140        3.7587  -20.6711  -49.9659 H         1 UNK         0.0800 
    141 H141       -0.2703  -20.5247  -48.6331 H         1 UNK         0.0800 
    142 H142        0.2454  -21.8324  -49.6639 H         1 UNK         0.0800 
    143 H143        0.4603  -23.2975  -47.5617 H         1 UNK         0.0600 
    144 H144       -0.2798  -20.9428  -46.1782 H         1 UNK         0.3000 
    145 H145       -1.7061  -22.5840  -43.3008 H         1 UNK         0.0600 
    146 H146       -0.0508  -21.1226  -42.1984 H         1 UNK         0.0600 
    147 H147        0.7679  -22.4698  -42.9728 H         1 UNK         0.0600 
    148 H148        0.8038  -20.8782  -43.7198 H         1 UNK         0.0600 
    149 H149       -1.4642  -19.8287  -43.9099 H         1 UNK         0.3000 
    150 H150       -4.5633  -19.4877  -45.7221 H         1 UNK         0.0600 
    151 H151       -5.1384  -19.3088  -43.3256 H         1 UNK         0.0600 
    152 H152       -4.7965  -17.7111  -43.9751 H         1 UNK         0.0600 
    153 H153       -3.6009  -18.5343  -42.9746 H         1 UNK         0.0600 
    154 H154       -2.5412  -17.5830  -45.0932 H         1 UNK         0.3000 
    155 H155       -0.4708  -18.1047  -47.9560 H         1 UNK         0.0600 
    156 H156       -2.4203  -15.8562  -47.2217 H         1 UNK         0.0600 
    157 H157       -2.2073  -16.6012  -48.8023 H         1 UNK         0.0600 
    158 H158       -0.9194  -15.6344  -48.1186 H         1 UNK         0.0600 
    159 H159       -0.4669  -16.3290  -45.6624 H         1 UNK         0.3000 
    160 H160        1.6992  -18.3726  -43.6790 H         1 UNK         0.0600 
    161 H161        2.1762  -15.6901  -45.0798 H         1 UNK         0.0600 
    162 H162        3.1286  -17.1422  -45.3789 H         1 UNK         0.0600 
    163 H163        3.1238  -16.4178  -43.7814 H         1 UNK         0.0600 
    164 H164        0.5740  -15.7601  -43.2851 H         1 UNK         0.3000 
    165 H165       -2.4830  -16.7979  -41.7976 H         1 UNK         0.0600 
    166 H166        0.0168  -15.7017  -40.4016 H         1 UNK         0.0600 
    167 H167       -1.6408  -15.5900  -39.8084 H         1 UNK         0.0600 
    168 H168       -0.8545  -17.1556  -39.9278 H         1 UNK         0.0600 
    169 H169       -1.3912  -14.2376  -41.8726 H         1 UNK         0.3000 
    170 H170       -1.6603  -13.2392  -45.1331 H         1 UNK         0.0600 
    171 H171       -4.1339  -13.3995  -44.8794 H         1 UNK         0.0600 
    172 H172       -4.0193  -12.7770  -43.2376 H         1 UNK         0.0600 
    173 H173       -3.5743  -11.7580  -44.6078 H         1 UNK         0.0600 
    174 H174       -1.8583  -11.7066  -42.7492 H         1 UNK         0.3000 
    175 H175        0.0953  -10.4386  -42.2623 H         1 UNK         0.0600 
    176 H176       -0.8688  -11.9315  -40.4840 H         1 UNK         0.0600 
    177 H177        0.6450  -12.8256  -40.3930 H         1 UNK         0.0600 
    178 H178        0.5781  -11.1382  -39.8911 H         1 UNK         0.0600 
    179 H179        2.4608  -12.1006  -42.5935 H         1 UNK         0.3000 
    180 H180        4.5563   -9.3704  -42.6252 H         1 UNK         0.0600 
    181 H181        6.0490  -10.2565  -40.8459 H         1 UNK         0.0600 
    182 H182        4.6856   -9.4111  -40.1338 H         1 UNK         0.0600 
    183 H183        4.7108  -11.1701  -40.1472 H         1 UNK         0.0600 
    184 H184        5.1877  -12.1572  -42.3394 H         1 UNK         0.3000 
    185 H185        6.1027  -12.7706  -45.0386 H         1 UNK         0.0600 
    186 H186        5.1834  -15.0559  -44.3243 H         1 UNK         0.0600 
    187 H187        5.5785  -14.0230  -42.9702 H         1 UNK         0.0600 
    188 H188        3.8966  -14.2183  -43.4568 H         1 UNK         0.0600 
    189 H189        3.4852  -12.5685  -46.1130 H         1 UNK         0.3000 
    190 H190       -2.6887  -21.5576  -47.5086 H         1 UNK         0.3000 
    191 H191       -3.9755  -23.2191  -49.4372 H         1 UNK         0.0600 
    192 H192       -6.0672  -22.2517  -48.5019 H         1 UNK         0.0600 
    193 H193       -4.8579  -21.0058  -48.7670 H         1 UNK         0.0600 
    194 H194       -5.1805  -21.5896  -47.1399 H         1 UNK         0.0600 
    195 H195       -3.7618  -23.4712  -45.8701 H         1 UNK         0.3000 
    196 H196       -5.3489  -25.8156  -45.5851 H         1 UNK         0.0600 
    197 H197       -4.2966  -25.9250  -43.3277 H         1 UNK         0.0600 
    198 H198       -4.8106  -24.2868  -43.7047 H         1 UNK         0.0600 
    199 H199       -3.1062  -24.7209  -43.8049 H         1 UNK         0.0600 
    200 H200       -1.8258  -25.3915  -46.0745 H         1 UNK         0.3000 
    201 H201       -1.1771  -28.1981  -45.9884 H         1 UNK         0.0600 
    202 H202        0.3673  -25.7904  -47.0950 H         1 UNK         0.0600 
    203 H203        1.0491  -27.3776  -46.7614 H         1 UNK         0.0600 
    204 H204        0.4481  -26.3903  -45.4391 H         1 UNK         0.0600 
    205 H205       -2.6362  -26.2944  -48.4116 H         1 UNK         0.3000 
    206 H206       -3.1982  -26.4916  -50.5194 H         1 UNK         0.0600 
    207 H207       -3.8748  -28.8476  -49.9808 H         1 UNK         0.0600 
    208 H208       -3.3705  -28.6531  -51.6511 H         1 UNK         0.0600 
    209 H209       -2.2859  -29.4137  -50.4976 H         1 UNK         0.0600 
    210 H210       -0.5850  -25.5951  -49.7202 H         1 UNK         0.3000 
    211 H211        1.2047  -26.0499  -52.0311 H         1 UNK         0.0600 
    212 H212        1.4166  -24.1462  -49.6336 H         1 UNK         0.0600 
    213 H213        2.6565  -24.4090  -50.8526 H         1 UNK         0.0600 
    214 H214        2.2038  -25.7161  -49.7688 H         1 UNK         0.0600 
    215 H215       -1.2274  -23.8479  -50.8018 H         1 UNK         0.3000 
    216 H216       -1.1871  -22.2185  -53.3079 H         1 UNK         0.0600 
    217 H217       -2.7882  -20.7436  -52.0570 H         1 UNK         0.0600 
    218 H218       -1.2260  -20.7958  -51.2646 H         1 UNK         0.0600 
    219 H219       -2.5834  -21.7131  -50.6145 H         1 UNK         0.0600 
    220 H220       -3.1690  -22.2003  -54.4726 H         1 UNK         0.3000 
    221 H221       -4.5407  -24.7298  -54.5435 H         1 UNK         0.0600 
    222 H222       -4.8911  -22.1820  -56.2054 H         1 UNK         0.0600 
    223 H223       -3.8132  -23.5257  -56.5835 H         1 UNK         0.0600 
    224 H224       -5.5510  -23.7659  -56.5985 H         1 UNK         0.0600 
    225 H225       -5.2048  -23.9995  -52.1621 H         1 UNK         0.3000 
    226 H226       -6.7868  -23.9067  -50.6461 H         1 UNK         0.0600 
    227 H227       -7.9879  -25.5154  -52.1039 H         1 UNK         0.0600 
    228 H228       -9.1211  -24.4941  -51.2333 H         1 UNK         0.0600 
    229 H229       -8.8030  -24.1905  -52.9346 H         1 UNK         0.0600 
    230 H230       -7.3755  -21.6090  -53.2375 H         1 UNK         0.3000 
    231 H231       -9.0390  -19.7916  -51.7182 H         1 UNK         0.0600 
    232 H232       -8.7922  -18.3816  -53.7614 H         1 UNK         0.0600 
    233 H233       -9.1690  -20.0399  -54.1968 H         1 UNK         0.0600 
    234 H234       -7.5195  -19.4393  -54.3607 H         1 UNK         0.0600 
    235 H235       -5.8038  -20.4166  -51.3858 H         1 UNK         0.3000 
    236 H236       -4.0526  -19.4849  -50.3889 H         1 UNK         0.0600 
    237 H237       -5.7810  -17.1114  -49.5408 H         1 UNK         0.0600 
    238 H238       -5.7058  -18.6480  -48.6775 H         1 UNK         0.0600 
    239 H239       -4.2760  -17.6471  -48.8214 H         1 UNK         0.0600 
    240 H240       -4.7683  -18.9225  -53.1947 H         1 UNK         0.3000 
    241 H241       -3.9259  -17.9995  -54.9953 H         1 UNK         0.0600 
    242 H242       -2.6706  -15.5005  -55.7158 H         1 UNK         0.3800 
    243 H243       -3.8462  -14.2756  -55.3437 H         1 UNK         0.3800 
    244 H244       -1.6099  -17.0641  -53.2386 H         1 UNK         0.0800 
    245 H245       -1.5833  -17.0317  -54.9836 H         1 UNK         0.0800 
    246 H246        0.8579  -19.9383  -54.6054 H         1 UNK         0.0800 
    247 H247        0.6787  -18.2179  -54.8081 H         1 UNK         0.0800 
@<TRIPOS>BOND
     1    1    2 1    
     2    1  127 1    
     3    1  128 1    
     4    1  129 1    
     5    2    3 2    
     6    2    4 am   BACKBONE|DICT|INTERRES
     7    4    5 1    
     8    4  130 1    
     9    5    6 1    
    10    5   65 1    
    11    5  131 1    
    12    6    7 1    
    13    6  132 1    
    14    6  133 1    
    15    7    8 1    
    16    8    9 1    
    17    8  134 1    
    18    8  135 1    
    19    9   10 ar   
    20    9   14 ar   
    21   10   11 ar   
    22   10  136 1    
    23   11   12 ar   
    24   11  126 1    
    25   12   13 ar   
    26   12  137 1    
    27   13   14 ar   
    28   13   15 1    
    29   14  138 1    
    30   15   16 1    
    31   15  139 1    
    32   15  140 1    
    33   16   17 1    
    34   17   18 1    
    35   17  141 1    
    36   17  142 1    
    37   18   19 1    
    38   18   67 1    
    39   18  143 1    
    40   19   20 am   BACKBONE|DICT|INTERRES
    41   19  144 1    
    42   20   21 2    
    43   20   22 1    
    44   22   23 1    
    45   22   24 1    
    46   22  145 1    
    47   23  146 1    
    48   23  147 1    
    49   23  148 1    
    50   24   25 am   BACKBONE|DICT|INTERRES
    51   24  149 1    
    52   25   26 2    
    53   25   27 1    
    54   27   28 1    
    55   27   29 1    
    56   27  150 1    
    57   28  151 1    
    58   28  152 1    
    59   28  153 1    
    60   29   30 am   BACKBONE|DICT|INTERRES
    61   29  154 1    
    62   30   31 2    
    63   30   32 1    
    64   32   33 1    
    65   32   34 1    
    66   32  155 1    
    67   33  156 1    
    68   33  157 1    
    69   33  158 1    
    70   34   35 am   BACKBONE|DICT|INTERRES
    71   34  159 1    
    72   35   36 2    
    73   35   37 1    
    74   37   38 1    
    75   37   39 1    
    76   37  160 1    
    77   38  161 1    
    78   38  162 1    
    79   38  163 1    
    80   39   40 am   BACKBONE|DICT|INTERRES
    81   39  164 1    
    82   40   41 2    
    83   40   42 1    
    84   42   43 1    
    85   42   44 1    
    86   42  165 1    
    87   43  166 1    
    88   43  167 1    
    89   43  168 1    
    90   44   45 am   BACKBONE|DICT|INTERRES
    91   44  169 1    
    92   45   46 2    
    93   45   47 1    
    94   47   48 1    
    95   47   49 1    
    96   47  170 1    
    97   48  171 1    
    98   48  172 1    
    99   48  173 1    
   100   49   50 am   BACKBONE|DICT|INTERRES
   101   49  174 1    
   102   50   51 2    
   103   50   52 1    
   104   52   53 1    
   105   52   54 1    
   106   52  175 1    
   107   53  176 1    
   108   53  177 1    
   109   53  178 1    
   110   54   55 am   BACKBONE|DICT|INTERRES
   111   54  179 1    
   112   55   56 2    
   113   55   57 1    
   114   57   58 1    
   115   57   59 1    
   116   57  180 1    
   117   58  181 1    
   118   58  182 1    
   119   58  183 1    
   120   59   60 am   BACKBONE|DICT|INTERRES
   121   59  184 1    
   122   60   61 2    
   123   60   62 1    
   124   62   63 1    
   125   62   64 1    
   126   62  185 1    
   127   63  186 1    
   128   63  187 1    
   129   63  188 1    
   130   64   65 am   BACKBONE|DICT|INTERRES
   131   64  189 1    
   132   65   66 2    
   133   67   68 2    
   134   67   69 am   BACKBONE|DICT|INTERRES
   135   69   70 1    
   136   69  190 1    
   137   70   71 1    
   138   70   72 1    
   139   70  191 1    
   140   71  192 1    
   141   71  193 1    
   142   71  194 1    
   143   72   73 2    
   144   72   74 am   BACKBONE|DICT|INTERRES
   145   74   75 1    
   146   74  195 1    
   147   75   76 1    
   148   75   77 1    
   149   75  196 1    
   150   76  197 1    
   151   76  198 1    
   152   76  199 1    
   153   77   78 2    
   154   77   79 am   BACKBONE|DICT|INTERRES
   155   79   80 1    
   156   79  200 1    
   157   80   81 1    
   158   80   82 1    
   159   80  201 1    
   160   81  202 1    
   161   81  203 1    
   162   81  204 1    
   163   82   83 2    
   164   82   84 am   BACKBONE|DICT|INTERRES
   165   84   85 1    
   166   84  205 1    
   167   85   86 1    
   168   85   87 1    
   169   85  206 1    
   170   86  207 1    
   171   86  208 1    
   172   86  209 1    
   173   87   88 2    
   174   87   89 am   BACKBONE|DICT|INTERRES
   175   89   90 1    
   176   89  210 1    
   177   90   91 1    
   178   90   92 1    
   179   90  211 1    
   180   91  212 1    
   181   91  213 1    
   182   91  214 1    
   183   92   93 2    
   184   92   94 am   BACKBONE|DICT|INTERRES
   185   94   95 1    
   186   94  215 1    
   187   95   96 1    
   188   95   97 1    
   189   95  216 1    
   190   96  217 1    
   191   96  218 1    
   192   96  219 1    
   193   97   98 2    
   194   97   99 am   BACKBONE|DICT|INTERRES
   195   99  100 1    
   196   99  220 1    
   197  100  101 1    
   198  100  102 1    
   199  100  221 1    
   200  101  222 1    
   201  101  223 1    
   202  101  224 1    
   203  102  103 2    
   204  102  104 am   BACKBONE|DICT|INTERRES
   205  104  105 1    
   206  104  225 1    
   207  105  106 1    
   208  105  107 1    
   209  105  226 1    
   210  106  227 1    
   211  106  228 1    
   212  106  229 1    
   213  107  108 2    
   214  107  109 am   BACKBONE|DICT|INTERRES
   215  109  110 1    
   216  109  230 1    
   217  110  111 1    
   218  110  112 1    
   219  110  231 1    
   220  111  232 1    
   221  111  233 1    
   222  111  234 1    
   223  112  113 2    
   224  112  114 am   BACKBONE|DICT|INTERRES
   225  114  115 1    
   226  114  235 1    
   227  115  116 1    
   228  115  117 1    
   229  115  236 1    
   230  116  237 1    
   231  116  238 1    
   232  116  239 1    
   233  117  118 2    
   234  117  119 am   BACKBONE|DICT|INTERRES
   235  119  120 1    
   236  119  240 1    
   237  120  121 1    
   238  120  124 1    
   239  120  241 1    
   240  121  122 am   BACKBONE|DICT|INTERRES
   241  121  123 2    
   242  122  242 1    
   243  122  243 1    
   244  124  125 1    
   245  124  244 1    
   246  124  245 1    
   247  125  126 1    
   248  126  246 1    
   249  126  247 1    
@<TRIPOS>SUBSTRUCTURE
     1 UNK         1 GROUP             0       ****    0 ROOT    
