@<TRIPOS>MOLECULE
3R540
247   249    1
SMALL
USER_CHARGES


@<TRIPOS>ATOM
      1 CA         -3.9414  -14.1970  -51.9590 C.3       0 UNK        -0.1800 
      2 C          -3.1494  -13.6467  -50.7817 C.2       0 UNK         0.5000 
      3 O          -2.5919  -12.5521  -50.8728 O.2       0 UNK        -0.5000 
      4 N          -3.0994  -14.3987  -49.6793 N.am      1 UNK        -0.5000 
      5 CA         -2.3612  -14.0550  -48.4650 C.3       1 UNK         0.1400 
      6 C6         -0.8277  -14.2559  -48.6009 C.3       23 UNK        -0.0398 
      7 S7         -0.3337  -15.9163  -49.1829 S.3       23 UNK        -0.2404 
      8 C8          1.2040  -15.5299  -50.0702 C.3       23 UNK        -0.0205 
      9 C9          1.9415  -16.8054  -50.4398 C.ar      23 UNK        -0.0193 
     10 C10         1.8377  -17.3435  -51.7269 C.ar      23 UNK        -0.1150 
     11 C11         2.4893  -18.5389  -52.0462 C.ar      23 UNK        -0.0193 
     12 C12         3.2664  -19.1785  -51.0787 C.ar      23 UNK        -0.1150 
     13 C13         3.3331  -18.6784  -49.7781 C.ar      23 UNK        -0.0193 
     14 C14         2.6934  -17.4754  -49.4703 C.ar      23 UNK        -0.1150 
     15 C15         3.9913  -19.5044  -48.6842 C.3       23 UNK        -0.0205 
     16 S16         3.0787  -21.0609  -48.3895 S.3       23 UNK        -0.2404 
     17 C17         1.3738  -20.4486  -48.1488 C.3       23 UNK        -0.0398 
     18 CA          0.3326  -21.5784  -47.9987 C.3       11 UNK         0.1400 
     19 N           0.6384  -22.4530  -46.8667 N.am      11 UNK        -0.5000 
     20 C           0.0334  -23.6189  -46.6075 C.2       10 UNK         0.5000 
     21 O          -0.8046  -24.1342  -47.3465 O.2       10 UNK        -0.5000 
     22 CA          0.4035  -24.3007  -45.2758 C.3       10 UNK         0.1400 
     23 CB          1.5507  -25.2998  -45.4843 C.3       10 UNK        -0.1800 
     24 N           0.7816  -23.3529  -44.2228 N.am      10 UNK        -0.5000 
     25 C          -0.0059  -22.4013  -43.7068 C.2       9 UNK         0.5000 
     26 O          -1.1666  -22.2186  -44.0710 O.2       9 UNK        -0.5000 
     27 CA          0.6039  -21.4602  -42.6507 C.3       9 UNK         0.1400 
     28 CB          0.4794  -22.0547  -41.2365 C.3       9 UNK        -0.1800 
     29 N           1.9776  -21.0190  -42.9305 N.am      9 UNK        -0.5000 
     30 C           3.1185  -21.7287  -42.9442 C.2       8 UNK         0.5000 
     31 O           3.1683  -22.9481  -42.7793 O.2       8 UNK        -0.5000 
     32 CA          4.4297  -20.9563  -43.2066 C.3       8 UNK         0.1400 
     33 CB          4.8443  -21.1091  -44.6789 C.3       8 UNK        -0.1800 
     34 N           4.3429  -19.5295  -42.8907 N.am      8 UNK        -0.5000 
     35 C           4.1365  -19.0114  -41.6715 C.2       7 UNK         0.5000 
     36 O           4.1518  -19.6808  -40.6379 O.2       7 UNK        -0.5000 
     37 CA          3.8304  -17.4997  -41.5887 C.3       7 UNK         0.1400 
     38 CB          5.0281  -16.7379  -41.0007 C.3       7 UNK        -0.1800 
     39 N           3.4455  -16.8599  -42.8534 N.am      7 UNK        -0.5000 
     40 C           2.4121  -17.1939  -43.6376 C.2       6 UNK         0.5000 
     41 O           1.6795  -18.1648  -43.4357 O.2       6 UNK        -0.5000 
     42 CA          2.1733  -16.2783  -44.8495 C.3       6 UNK         0.1400 
     43 CB          1.1896  -16.8842  -45.8598 C.3       6 UNK        -0.1800 
     44 N           1.6549  -14.9867  -44.4161 N.am      6 UNK        -0.5000 
     45 C           2.3903  -13.9571  -43.9799 C.2       5 UNK         0.5000 
     46 O           3.6192  -13.9810  -43.8982 O.2       5 UNK        -0.5000 
     47 CA          1.6131  -12.7094  -43.5348 C.3       5 UNK         0.1400 
     48 CB          0.9940  -11.9878  -44.7437 C.3       5 UNK        -0.1800 
     49 N           0.5541  -13.0876  -42.6020 N.am      5 UNK        -0.5000 
     50 C           0.6625  -13.0489  -41.2667 C.2       4 UNK         0.5000 
     51 O           1.6419  -12.6000  -40.6703 O.2       4 UNK        -0.5000 
     52 CA         -0.5205  -13.6153  -40.4546 C.3       4 UNK         0.1400 
     53 CB         -1.5222  -12.5013  -40.1144 C.3       4 UNK        -0.1800 
     54 N          -1.2251  -14.6921  -41.1516 N.am      4 UNK        -0.5000 
     55 C          -0.7089  -15.9030  -41.4053 C.2       3 UNK         0.5000 
     56 O           0.3781  -16.2805  -40.9697 O.2       3 UNK        -0.5000 
     57 CA         -1.5341  -16.8435  -42.3093 C.3       3 UNK         0.1400 
     58 CB         -2.2255  -17.9234  -41.4624 C.3       3 UNK        -0.1800 
     59 N          -2.5417  -16.1680  -43.1399 N.am      3 UNK        -0.5000 
     60 C          -2.2791  -15.2639  -44.0936 C.2       2 UNK         0.5000 
     61 O          -1.1470  -14.8387  -44.3368 O.2       2 UNK        -0.5000 
     62 CA         -3.4891  -14.6869  -44.8459 C.3       2 UNK         0.1400 
     63 CB         -4.1488  -13.5784  -44.0105 C.3       2 UNK        -0.1800 
     64 N          -3.0723  -14.1188  -46.1269 N.am      2 UNK        -0.5000 
     65 C          -2.9490  -14.8158  -47.2624 C.2       1 UNK         0.5000 
     66 O          -3.2709  -16.0002  -47.3739 O.2       1 UNK        -0.5000 
     67 C          -1.0814  -20.9745  -47.8723 C.2       11 UNK         0.5000 
     68 O          -1.8444  -20.9885  -48.8371 O.2       11 UNK        -0.5000 
     69 N          -1.4099  -20.4795  -46.6705 N.am      12 UNK        -0.5000 
     70 CA         -2.7031  -19.8781  -46.3476 C.3       12 UNK         0.1400 
     71 CB         -2.5713  -19.0573  -45.0594 C.3       12 UNK        -0.1800 
     72 C          -3.8306  -20.9182  -46.2218 C.2       12 UNK         0.5000 
     73 O          -4.9889  -20.5853  -46.4697 O.2       12 UNK        -0.5000 
     74 N          -3.4808  -22.1659  -45.8793 N.am      13 UNK        -0.5000 
     75 CA         -4.3980  -23.3066  -45.8219 C.3       13 UNK         0.1400 
     76 CB         -3.6700  -24.5207  -45.2270 C.3       13 UNK        -0.1800 
     77 C          -5.0272  -23.6586  -47.1861 C.2       13 UNK         0.5000 
     78 O          -6.1353  -24.1948  -47.2174 O.2       13 UNK        -0.5000 
     79 N          -4.3542  -23.3004  -48.2898 N.am      14 UNK        -0.5000 
     80 CA         -4.8451  -23.4118  -49.6657 C.3       14 UNK         0.1400 
     81 CB         -3.6368  -23.4791  -50.6180 C.3       14 UNK        -0.1800 
     82 C          -5.8258  -22.2710  -50.0249 C.2       14 UNK         0.5000 
     83 O          -5.6470  -21.6006  -51.0432 O.2       14 UNK        -0.5000 
     84 N          -6.8370  -22.0614  -49.1688 N.am      15 UNK        -0.5000 
     85 CA         -7.9058  -21.0600  -49.2651 C.3       15 UNK         0.1400 
     86 CB         -8.8651  -21.4165  -50.4201 C.3       15 UNK        -0.1800 
     87 C          -7.3655  -19.6186  -49.3670 C.2       15 UNK         0.5000 
     88 O          -7.7180  -18.8918  -50.2948 O.2       15 UNK        -0.5000 
     89 N          -6.4706  -19.2477  -48.4398 N.am      16 UNK        -0.5000 
     90 CA         -5.7078  -17.9920  -48.4146 C.3       16 UNK         0.1400 
     91 CB         -6.6339  -16.7785  -48.1850 C.3       16 UNK        -0.1800 
     92 C          -4.8037  -17.8421  -49.6570 C.2       16 UNK         0.5000 
     93 O          -4.6767  -16.7472  -50.2019 O.2       16 UNK        -0.5000 
     94 N          -4.2426  -18.9740  -50.1062 N.am      17 UNK        -0.5000 
     95 CA         -3.4462  -19.1852  -51.3197 C.3       17 UNK         0.1400 
     96 CB         -2.1652  -18.3268  -51.3069 C.3       17 UNK        -0.1800 
     97 C          -4.2328  -19.0462  -52.6433 C.2       17 UNK         0.5000 
     98 O          -3.6413  -19.2292  -53.7086 O.2       17 UNK        -0.5000 
     99 N          -5.5455  -18.7709  -52.5857 N.am      18 UNK        -0.5000 
    100 CA        -6.4052  -18.5783  -53.7561 C.3       18 UNK         0.1400 
    101 CB        -7.7074  -17.8810  -53.3364 C.3       18 UNK        -0.1800 
    102 C         -6.7110  -19.8798  -54.5206 C.2       18 UNK         0.5000 
    103 O         -7.0694  -19.8070  -55.6968 O.2       18 UNK        -0.5000 
    104 N         -6.5438  -21.0431  -53.8722 N.am      19 UNK        -0.5000 
    105 CA        -6.6517  -22.3571  -54.5152 C.3       19 UNK         0.1400 
    106 CB        -6.9373  -23.4283  -53.4505 C.3       19 UNK        -0.1800 
    107 C         -5.3996  -22.7293  -55.3391 C.2       19 UNK         0.5000 
    108 O         -5.4330  -23.7353  -56.0498 O.2       19 UNK        -0.5000 
    109 N         -4.3315  -21.9226  -55.2300 N.am      20 UNK        -0.5000 
    110 CA        -3.0050  -22.1009  -55.8244 C.3       20 UNK         0.1400 
    111 CB        -3.0825  -22.1115  -57.3676 C.3       20 UNK        -0.1800 
    112 C         -2.2546  -23.3167  -55.2392 C.2       20 UNK         0.5000 
    113 O         -2.6439  -23.8394  -54.1922 O.2       20 UNK        -0.5000 
    114 N         -1.1491  -23.7021  -55.8954 N.am      21 UNK        -0.5000 
    115 CA        -0.2053  -24.7597  -55.4990 C.3       21 UNK         0.1400 
    116 CB        -0.8816  -26.1463  -55.5407 C.3       21 UNK        -0.1800 
    117 C          0.5106  -24.4832  -54.1556 C.2       21 UNK         0.5000 
    118 O          0.9897  -25.4145  -53.5059 O.2       21 UNK        -0.5000 
    119 N          0.5709  -23.2042  -53.7688 N.am      22 UNK        -0.5000 
    120 CA         1.2529  -22.6932  -52.5767 C.3       22 UNK         0.1400 
    121 C          2.8033  -22.7577  -52.6825 C.2       22 UNK         0.5000 
    122 N          3.5045  -22.8275  -51.5589 N.am      22 UNK        -0.7600 
    123 O          3.3816  -22.7240  -53.7669 O.2       22 UNK        -0.5000 
    124 C124        0.7388  -21.2764  -52.2056 C.3       23 UNK        -0.0398 
    125 S125        0.7240  -20.0578  -53.5787 S.3       23 UNK        -0.2404 
    126 C126        2.3170  -19.1792  -53.4144 C.3       23 UNK        -0.0205 
    127 H127       -4.9870  -14.3354  -51.6835 H         1 UNK         0.0600 
    128 H128       -3.8997  -13.5165  -52.8095 H         1 UNK         0.0600 
    129 H129       -3.5379  -15.1597  -52.2735 H         1 UNK         0.0600 
    130 H130       -3.5837  -15.2955  -49.6573 H         1 UNK         0.3000 
    131 H131       -2.5359  -12.9935  -48.2749 H         1 UNK         0.0600 
    132 H132       -0.3270  -14.0576  -47.6513 H         1 UNK         0.0800 
    133 H133       -0.4359  -13.5149  -49.2988 H         1 UNK         0.0800 
    134 H134        1.8431  -14.9074  -49.4421 H         1 UNK         0.0800 
    135 H135        0.9729  -14.9452  -50.9618 H         1 UNK         0.0800 
    136 H136        1.2264  -16.8512  -52.4701 H         1 UNK         0.1150 
    137 H137        3.7537  -20.1138  -51.3128 H         1 UNK         0.1150 
    138 H138        2.7341  -17.0845  -48.4638 H         1 UNK         0.1150 
    139 H139        5.0178  -19.7373  -48.9704 H         1 UNK         0.0800 
    140 H140        4.0475  -18.9414  -47.7513 H         1 UNK         0.0800 
    141 H141        1.3702  -19.8042  -47.2708 H         1 UNK         0.0800 
    142 H142        1.0973  -19.8199  -48.9966 H         1 UNK         0.0800 
    143 H143        0.3514  -22.1844  -48.9073 H         1 UNK         0.0600 
    144 H144        1.3413  -22.1272  -46.2206 H         1 UNK         0.3000 
    145 H145       -0.4746  -24.8497  -44.9303 H         1 UNK         0.0600 
    146 H146        1.7690  -25.8463  -44.5666 H         1 UNK         0.0600 
    147 H147        1.2950  -26.0359  -46.2476 H         1 UNK         0.0600 
    148 H148        2.4664  -24.7994  -45.8023 H         1 UNK         0.0600 
    149 H149        1.7201  -23.4328  -43.8391 H         1 UNK         0.3000 
    150 H150        0.0033  -20.5490  -42.6705 H         1 UNK         0.0600 
    151 H151       -0.5622  -22.2731  -40.9978 H         1 UNK         0.0600 
    152 H152        0.8462  -21.3567  -40.4837 H         1 UNK         0.0600 
    153 H153        1.0386  -22.9849  -41.1328 H         1 UNK         0.0600 
    154 H154        2.0519  -20.0207  -43.1116 H         1 UNK         0.3000 
    155 H155        5.2054  -21.3978  -42.5778 H         1 UNK         0.0600 
    156 H156        4.9422  -22.1608  -44.9521 H         1 UNK         0.0600 
    157 H157        5.8073  -20.6353  -44.8698 H         1 UNK         0.0600 
    158 H158        4.1111  -20.6632  -45.3523 H         1 UNK         0.0600 
    159 H159        4.3246  -18.8955  -43.6750 H         1 UNK         0.3000 
    160 H160        2.9868  -17.3880  -40.9047 H         1 UNK         0.0600 
    161 H161        5.8955  -16.7845  -41.6602 H         1 UNK         0.0600 
    162 H162        5.3247  -17.1544  -40.0370 H         1 UNK         0.0600 
    163 H163        4.7856  -15.6876  -40.8370 H         1 UNK         0.0600 
    164 H164        3.9554  -16.0194  -43.0976 H         1 UNK         0.3000 
    165 H165        3.1283  -16.1362  -45.3599 H         1 UNK         0.0600 
    166 H166        0.2038  -17.0472  -45.4246 H         1 UNK         0.0600 
    167 H167        1.0704  -16.2268  -46.7183 H         1 UNK         0.0600 
    168 H168        1.5552  -17.8404  -46.2281 H         1 UNK         0.0600 
    169 H169        0.6407  -14.8975  -44.4184 H         1 UNK         0.3000 
    170 H170        2.3151  -12.0233  -43.0560 H         1 UNK         0.0600 
    171 H171        1.7629  -11.7027  -45.4628 H         1 UNK         0.0600 
    172 H172        0.2701  -12.6132  -45.2674 H         1 UNK         0.0600 
    173 H173        0.4834  -11.0755  -44.4351 H         1 UNK         0.0600 
    174 H174       -0.2624  -13.5266  -43.0100 H         1 UNK         0.3000 
    175 H175       -0.1214  -14.0159  -39.5202 H         1 UNK         0.0600 
    176 H176       -1.9700  -12.0738  -41.0125 H         1 UNK         0.0600 
    177 H177       -2.3276  -12.8744  -39.4816 H         1 UNK         0.0600 
    178 H178       -1.0342  -11.6899  -39.5728 H         1 UNK         0.0600 
    179 H179       -2.1360  -14.4734  -41.5256 H         1 UNK         0.3000 
    180 H180       -0.8325  -17.3376  -42.9834 H         1 UNK         0.0600 
    181 H181       -1.4957  -18.4899  -40.8822 H         1 UNK         0.0600 
    182 H182       -2.9370  -17.4875  -40.7601 H         1 UNK         0.0600 
    183 H183       -2.7644  -18.6366  -42.0851 H         1 UNK         0.0600 
    184 H184       -3.5011  -16.4370  -42.9757 H         1 UNK         0.3000 
    185 H185       -4.2162  -15.4846  -45.0138 H         1 UNK         0.0600 
    186 H186       -4.5116  -13.9651  -43.0574 H         1 UNK         0.0600 
    187 H187       -3.4526  -12.7672  -43.7924 H         1 UNK         0.0600 
    188 H188       -5.0062  -13.1518  -44.5315 H         1 UNK         0.0600 
    189 H189       -2.7488  -13.1631  -46.0988 H         1 UNK         0.3000 
    190 H190       -0.7550  -20.5669  -45.9081 H         1 UNK         0.3000 
    191 H191       -2.9699  -19.1951  -47.1567 H         1 UNK         0.0600 
    192 H192       -3.5202  -18.5888  -44.7954 H         1 UNK         0.0600 
    193 H193       -1.8399  -18.2591  -45.1799 H         1 UNK         0.0600 
    194 H194       -2.2611  -19.6765  -44.2175 H         1 UNK         0.0600 
    195 H195       -2.5229  -22.3329  -45.5920 H         1 UNK         0.3000 
    196 H196       -5.2126  -23.0366  -45.1470 H         1 UNK         0.0600 
    197 H197       -4.3602  -25.3517  -45.0770 H         1 UNK         0.0600 
    198 H198       -3.2298  -24.2843  -44.2580 H         1 UNK         0.0600 
    199 H199       -2.8743  -24.8739  -45.8819 H         1 UNK         0.0600 
    200 H200       -3.4612  -22.8404  -48.1735 H         1 UNK         0.3000 
    201 H201       -5.3962  -24.3488  -49.7678 H         1 UNK         0.0600 
    202 H202       -2.9746  -24.3051  -50.3582 H         1 UNK         0.0600 
    203 H203       -3.0495  -22.5619  -50.5929 H         1 UNK         0.0600 
    204 H204       -3.9541  -23.6334  -51.6496 H         1 UNK         0.0600 
    205 H205       -6.8781  -22.6716  -48.3595 H         1 UNK         0.3000 
    206 H206       -8.4707  -21.1153  -48.3336 H         1 UNK         0.0600 
    207 H207       -9.2336  -22.4381  -50.3283 H         1 UNK         0.0600 
    208 H208       -9.7332  -20.7565  -50.4229 H         1 UNK         0.0600 
    209 H209       -8.3811  -21.3197  -51.3922 H         1 UNK         0.0600 
    210 H210       -6.1979  -19.9176  -47.7234 H         1 UNK         0.3000 
    211 H211       -5.0407  -18.0541  -47.5552 H         1 UNK         0.0600 
    212 H212       -7.2881  -16.5964  -49.0378 H         1 UNK         0.0600 
    213 H213       -6.0507  -15.8710  -48.0244 H         1 UNK         0.0600 
    214 H214       -7.2594  -16.9213  -47.3042 H         1 UNK         0.0600 
    215 H215       -4.4599  -19.8233  -49.6055 H         1 UNK         0.3000 
    216 H216       -3.1306  -20.2281  -51.2806 H         1 UNK         0.0600 
    217 H217       -2.3829  -17.2609  -51.3684 H         1 UNK         0.0600 
    218 H218       -1.5190  -18.5728  -52.1494 H         1 UNK         0.0600 
    219 H219       -1.5873  -18.4999  -50.3990 H         1 UNK         0.0600 
    220 H220       -5.9918  -18.6881  -51.6803 H         1 UNK         0.3000 
    221 H221       -5.8797  -17.9124  -54.4438 H         1 UNK         0.0600 
    222 H222       -8.3536  -18.5462  -52.7636 H         1 UNK         0.0600 
    223 H223       -7.5099  -16.9956  -52.7315 H         1 UNK         0.0600 
    224 H224       -8.2726  -17.5592  -54.2119 H         1 UNK         0.0600 
    225 H225       -6.2418  -21.0344  -52.9017 H         1 UNK         0.3000 
    226 H226       -7.5000  -22.3395  -55.2026 H         1 UNK         0.0600 
    227 H227       -7.8025  -23.1674  -52.8418 H         1 UNK         0.0600 
    228 H228       -7.1486  -24.3914  -53.9164 H         1 UNK         0.0600 
    229 H229       -6.0851  -23.5719  -52.7877 H         1 UNK         0.0600 
    230 H230       -4.4075  -21.1315  -54.6030 H         1 UNK         0.3000 
    231 H231       -2.4330  -21.2204  -55.5279 H         1 UNK         0.0600 
    232 H232       -3.5007  -23.0438  -57.7484 H         1 UNK         0.0600 
    233 H233       -3.7026  -21.2935  -57.7349 H         1 UNK         0.0600 
    234 H234       -2.0970  -21.9868  -57.8165 H         1 UNK         0.0600 
    235 H235       -0.9045  -23.2046  -56.7403 H         1 UNK         0.3000 
    236 H236        0.5801  -24.7591  -56.2561 H         1 UNK         0.0600 
    237 H237       -1.3727  -26.3169  -56.4987 H         1 UNK         0.0600 
    238 H238       -0.1494  -26.9434  -55.4070 H         1 UNK         0.0600 
    239 H239       -1.6298  -26.2569  -54.7555 H         1 UNK         0.0600 
    240 H240        0.1849  -22.5005  -54.3797 H         1 UNK         0.3000 
    241 H241        0.9759  -23.3563  -51.7544 H         1 UNK         0.0600 
    242 H242        4.5096  -22.8710  -51.6186 H         1 UNK         0.3800 
    243 H243        3.0661  -22.8482  -50.6516 H         1 UNK         0.3800 
    244 H244        1.2686  -20.8846  -51.3398 H         1 UNK         0.0800 
    245 H245       -0.2954  -21.3660  -51.8692 H         1 UNK         0.0800 
    246 H246        3.1342  -19.8719  -53.6204 H         1 UNK         0.0800 
    247 H247        2.3741  -18.4082  -54.1839 H         1 UNK         0.0800 
@<TRIPOS>BOND
     1    1    2 1    
     2    1  127 1    
     3    1  128 1    
     4    1  129 1    
     5    2    3 2    
     6    2    4 am   BACKBONE|DICT|INTERRES
     7    4    5 1    
     8    4  130 1    
     9    5    6 1    
    10    5   65 1    
    11    5  131 1    
    12    6    7 1    
    13    6  132 1    
    14    6  133 1    
    15    7    8 1    
    16    8    9 1    
    17    8  134 1    
    18    8  135 1    
    19    9   10 ar   
    20    9   14 ar   
    21   10   11 ar   
    22   10  136 1    
    23   11   12 ar   
    24   11  126 1    
    25   12   13 ar   
    26   12  137 1    
    27   13   14 ar   
    28   13   15 1    
    29   14  138 1    
    30   15   16 1    
    31   15  139 1    
    32   15  140 1    
    33   16   17 1    
    34   17   18 1    
    35   17  141 1    
    36   17  142 1    
    37   18   19 1    
    38   18   67 1    
    39   18  143 1    
    40   19   20 am   BACKBONE|DICT|INTERRES
    41   19  144 1    
    42   20   21 2    
    43   20   22 1    
    44   22   23 1    
    45   22   24 1    
    46   22  145 1    
    47   23  146 1    
    48   23  147 1    
    49   23  148 1    
    50   24   25 am   BACKBONE|DICT|INTERRES
    51   24  149 1    
    52   25   26 2    
    53   25   27 1    
    54   27   28 1    
    55   27   29 1    
    56   27  150 1    
    57   28  151 1    
    58   28  152 1    
    59   28  153 1    
    60   29   30 am   BACKBONE|DICT|INTERRES
    61   29  154 1    
    62   30   31 2    
    63   30   32 1    
    64   32   33 1    
    65   32   34 1    
    66   32  155 1    
    67   33  156 1    
    68   33  157 1    
    69   33  158 1    
    70   34   35 am   BACKBONE|DICT|INTERRES
    71   34  159 1    
    72   35   36 2    
    73   35   37 1    
    74   37   38 1    
    75   37   39 1    
    76   37  160 1    
    77   38  161 1    
    78   38  162 1    
    79   38  163 1    
    80   39   40 am   BACKBONE|DICT|INTERRES
    81   39  164 1    
    82   40   41 2    
    83   40   42 1    
    84   42   43 1    
    85   42   44 1    
    86   42  165 1    
    87   43  166 1    
    88   43  167 1    
    89   43  168 1    
    90   44   45 am   BACKBONE|DICT|INTERRES
    91   44  169 1    
    92   45   46 2    
    93   45   47 1    
    94   47   48 1    
    95   47   49 1    
    96   47  170 1    
    97   48  171 1    
    98   48  172 1    
    99   48  173 1    
   100   49   50 am   BACKBONE|DICT|INTERRES
   101   49  174 1    
   102   50   51 2    
   103   50   52 1    
   104   52   53 1    
   105   52   54 1    
   106   52  175 1    
   107   53  176 1    
   108   53  177 1    
   109   53  178 1    
   110   54   55 am   BACKBONE|DICT|INTERRES
   111   54  179 1    
   112   55   56 2    
   113   55   57 1    
   114   57   58 1    
   115   57   59 1    
   116   57  180 1    
   117   58  181 1    
   118   58  182 1    
   119   58  183 1    
   120   59   60 am   BACKBONE|DICT|INTERRES
   121   59  184 1    
   122   60   61 2    
   123   60   62 1    
   124   62   63 1    
   125   62   64 1    
   126   62  185 1    
   127   63  186 1    
   128   63  187 1    
   129   63  188 1    
   130   64   65 am   BACKBONE|DICT|INTERRES
   131   64  189 1    
   132   65   66 2    
   133   67   68 2    
   134   67   69 am   BACKBONE|DICT|INTERRES
   135   69   70 1    
   136   69  190 1    
   137   70   71 1    
   138   70   72 1    
   139   70  191 1    
   140   71  192 1    
   141   71  193 1    
   142   71  194 1    
   143   72   73 2    
   144   72   74 am   BACKBONE|DICT|INTERRES
   145   74   75 1    
   146   74  195 1    
   147   75   76 1    
   148   75   77 1    
   149   75  196 1    
   150   76  197 1    
   151   76  198 1    
   152   76  199 1    
   153   77   78 2    
   154   77   79 am   BACKBONE|DICT|INTERRES
   155   79   80 1    
   156   79  200 1    
   157   80   81 1    
   158   80   82 1    
   159   80  201 1    
   160   81  202 1    
   161   81  203 1    
   162   81  204 1    
   163   82   83 2    
   164   82   84 am   BACKBONE|DICT|INTERRES
   165   84   85 1    
   166   84  205 1    
   167   85   86 1    
   168   85   87 1    
   169   85  206 1    
   170   86  207 1    
   171   86  208 1    
   172   86  209 1    
   173   87   88 2    
   174   87   89 am   BACKBONE|DICT|INTERRES
   175   89   90 1    
   176   89  210 1    
   177   90   91 1    
   178   90   92 1    
   179   90  211 1    
   180   91  212 1    
   181   91  213 1    
   182   91  214 1    
   183   92   93 2    
   184   92   94 am   BACKBONE|DICT|INTERRES
   185   94   95 1    
   186   94  215 1    
   187   95   96 1    
   188   95   97 1    
   189   95  216 1    
   190   96  217 1    
   191   96  218 1    
   192   96  219 1    
   193   97   98 2    
   194   97   99 am   BACKBONE|DICT|INTERRES
   195   99  100 1    
   196   99  220 1    
   197  100  101 1    
   198  100  102 1    
   199  100  221 1    
   200  101  222 1    
   201  101  223 1    
   202  101  224 1    
   203  102  103 2    
   204  102  104 am   BACKBONE|DICT|INTERRES
   205  104  105 1    
   206  104  225 1    
   207  105  106 1    
   208  105  107 1    
   209  105  226 1    
   210  106  227 1    
   211  106  228 1    
   212  106  229 1    
   213  107  108 2    
   214  107  109 am   BACKBONE|DICT|INTERRES
   215  109  110 1    
   216  109  230 1    
   217  110  111 1    
   218  110  112 1    
   219  110  231 1    
   220  111  232 1    
   221  111  233 1    
   222  111  234 1    
   223  112  113 2    
   224  112  114 am   BACKBONE|DICT|INTERRES
   225  114  115 1    
   226  114  235 1    
   227  115  116 1    
   228  115  117 1    
   229  115  236 1    
   230  116  237 1    
   231  116  238 1    
   232  116  239 1    
   233  117  118 2    
   234  117  119 am   BACKBONE|DICT|INTERRES
   235  119  120 1    
   236  119  240 1    
   237  120  121 1    
   238  120  124 1    
   239  120  241 1    
   240  121  122 am   BACKBONE|DICT|INTERRES
   241  121  123 2    
   242  122  242 1    
   243  122  243 1    
   244  124  125 1    
   245  124  244 1    
   246  124  245 1    
   247  125  126 1    
   248  126  246 1    
   249  126  247 1    
@<TRIPOS>SUBSTRUCTURE
     1 UNK         1 GROUP             0       ****    0 ROOT    
