@<TRIPOS>MOLECULE
3R540
247   249    1
SMALL
USER_CHARGES


@<TRIPOS>ATOM
      1 CA         -1.9479  -11.0481  -48.3612 C.3       0 UNK        -0.1800 
      2 C          -1.2452  -12.2775  -47.8053 C.2       0 UNK         0.5000 
      3 O          -0.7229  -12.2341  -46.6928 O.2       0 UNK        -0.5000 
      4 N          -1.2438  -13.3809  -48.5644 N.am      1 UNK        -0.5000 
      5 CA         -0.5851  -14.6533  -48.2281 C.3       1 UNK         0.1400 
      6 C6         -0.6468  -15.6600  -49.3990 C.3       23 UNK        -0.0398 
      7 S7          0.0071  -14.9914  -50.9707 S.3       23 UNK        -0.2404 
      8 C8          1.7127  -15.6384  -51.0119 C.3       23 UNK        -0.0205 
      9 C9          1.7648  -17.1576  -50.9354 C.ar      23 UNK        -0.0193 
     10 C10         1.1150  -17.9390  -51.8950 C.ar      23 UNK        -0.1150 
     11 C11         1.0992  -19.3318  -51.7852 C.ar      23 UNK        -0.0193 
     12 C12         1.7589  -19.9436  -50.7163 C.ar      23 UNK        -0.1150 
     13 C13         2.4165  -19.1739  -49.7517 C.ar      23 UNK        -0.0193 
     14 C14         2.4294  -17.7819  -49.8768 C.ar      23 UNK        -0.1150 
     15 C15         3.0774  -19.8470  -48.5551 C.3       23 UNK        -0.0205 
     16 S16         2.4430  -19.2554  -46.9451 S.3       23 UNK        -0.2404 
     17 C17         0.6313  -19.3047  -47.1678 C.3       23 UNK        -0.0398 
     18 CA          0.0536  -20.7376  -47.2203 C.3       11 UNK         0.1400 
     19 N           0.2205  -21.4767  -45.9679 N.am      11 UNK        -0.5000 
     20 C          -0.1015  -22.7677  -45.8094 C.2       10 UNK         0.5000 
     21 O          -0.4753  -23.4943  -46.7279 O.2       10 UNK        -0.5000 
     22 CA         -0.0677  -23.3289  -44.3794 C.3       10 UNK         0.1400 
     23 CB          1.3455  -23.7913  -43.9950 C.3       10 UNK        -0.1800 
     24 N          -0.5654  -22.3573  -43.4062 N.am      10 UNK        -0.5000 
     25 C          -1.8458  -21.9679  -43.3181 C.2       9 UNK         0.5000 
     26 O          -2.7500  -22.4245  -44.0184 O.2       9 UNK        -0.5000 
     27 CA         -2.1591  -20.8517  -42.3055 C.3       9 UNK         0.1400 
     28 CB         -2.3438  -21.4338  -40.8966 C.3       9 UNK        -0.1800 
     29 N          -1.1229  -19.8183  -42.2747 N.am      9 UNK        -0.5000 
     30 C          -0.8767  -18.9693  -43.2822 C.2       8 UNK         0.5000 
     31 O          -1.5253  -18.9444  -44.3274 O.2       8 UNK        -0.5000 
     32 CA          0.3231  -18.0205  -43.1109 C.3       8 UNK         0.1400 
     33 CB         -0.0952  -16.7513  -42.3599 C.3       8 UNK        -0.1800 
     34 N           1.4645  -18.6175  -42.4156 N.am      8 UNK        -0.5000 
     35 C           2.1512  -19.6929  -42.8249 C.2       7 UNK         0.5000 
     36 O           1.8043  -20.3864  -43.7801 O.2       7 UNK        -0.5000 
     37 CA          3.4098  -20.0803  -42.0154 C.3       7 UNK         0.1400 
     38 CB          4.5246  -20.6540  -42.9145 C.3       7 UNK        -0.1800 
     39 N           3.9300  -19.0096  -41.1491 N.am      7 UNK        -0.5000 
     40 C           4.4218  -17.8194  -41.5269 C.2       6 UNK         0.5000 
     41 O           4.5089  -17.4534  -42.7005 O.2       6 UNK        -0.5000 
     42 CA          4.8460  -16.8876  -40.3738 C.3       6 UNK         0.1400 
     43 CB          6.1916  -17.3162  -39.7536 C.3       6 UNK        -0.1800 
     44 N           4.8354  -15.4718  -40.7588 N.am      6 UNK        -0.5000 
     45 C           5.6987  -14.7962  -41.5295 C.2       5 UNK         0.5000 
     46 O           6.7512  -15.2552  -41.9779 O.2       5 UNK        -0.5000 
     47 CA          5.2761  -13.3541  -41.8788 C.3       5 UNK         0.1400 
     48 CB          6.4726  -12.4687  -42.2713 C.3       5 UNK        -0.1800 
     49 N           4.3039  -13.3428  -42.9722 N.am      5 UNK        -0.5000 
     50 C           3.0217  -13.7169  -42.8770 C.2       4 UNK         0.5000 
     51 O           2.4911  -14.0765  -41.8218 O.2       4 UNK        -0.5000 
     52 CA          2.2220  -13.7135  -44.1961 C.3       4 UNK         0.1400 
     53 CB          2.5489  -14.9710  -45.0185 C.3       4 UNK        -0.1800 
     54 N           0.7727  -13.6426  -43.9985 N.am      4 UNK        -0.5000 
     55 C           0.1129  -12.6146  -43.4422 C.2       3 UNK         0.5000 
     56 O           0.6655  -11.5805  -43.0613 O.2       3 UNK        -0.5000 
     57 CA         -1.4173  -12.7610  -43.3056 C.3       3 UNK         0.1400 
     58 CB         -2.1494  -11.4068  -43.3382 C.3       3 UNK        -0.1800 
     59 N          -1.9483  -13.6123  -44.3682 N.am      3 UNK        -0.5000 
     60 C          -2.7788  -14.6503  -44.2050 C.2       2 UNK         0.5000 
     61 O          -3.2554  -14.9703  -43.1158 O.2       2 UNK        -0.5000 
     62 CA         -3.1340  -15.4897  -45.4527 C.3       2 UNK         0.1400 
     63 CB         -4.6473  -15.4728  -45.7221 C.3       2 UNK        -0.1800 
     64 N          -2.4382  -15.0616  -46.6676 N.am      2 UNK        -0.5000 
     65 C          -1.1506  -15.3067  -46.9469 C.2       1 UNK         0.5000 
     66 O          -0.4149  -15.9764  -46.2234 O.2       1 UNK        -0.5000 
     67 C          -1.4241  -20.7131  -47.6602 C.2       11 UNK         0.5000 
     68 O          -1.7314  -21.1135  -48.7831 O.2       11 UNK        -0.5000 
     69 N          -2.3104  -20.2718  -46.7569 N.am      12 UNK        -0.5000 
     70 CA         -3.7478  -20.1533  -46.9853 C.3       12 UNK         0.1400 
     71 CB         -4.4177  -19.5196  -45.7562 C.3       12 UNK        -0.1800 
     72 C          -4.4269  -21.4829  -47.3520 C.2       12 UNK         0.5000 
     73 O          -5.0736  -21.5508  -48.3982 O.2       12 UNK        -0.5000 
     74 N          -4.2811  -22.4931  -46.4846 N.am      13 UNK        -0.5000 
     75 CA         -5.0109  -23.7542  -46.5779 C.3       13 UNK         0.1400 
     76 CB         -5.3332  -24.2662  -45.1637 C.3       13 UNK        -0.1800 
     77 C          -4.2576  -24.8163  -47.3918 C.2       13 UNK         0.5000 
     78 O          -4.7824  -25.2817  -48.4029 O.2       13 UNK        -0.5000 
     79 N          -3.0636  -25.2103  -46.9263 N.am      14 UNK        -0.5000 
     80 CA         -2.3216  -26.3625  -47.4505 C.3       14 UNK         0.1400 
     81 CB         -1.2353  -26.7931  -46.4514 C.3       14 UNK        -0.1800 
     82 C          -1.7350  -26.1199  -48.8516 C.2       14 UNK         0.5000 
     83 O          -1.8751  -26.9775  -49.7243 O.2       14 UNK        -0.5000 
     84 N          -1.1257  -24.9448  -49.0528 N.am      15 UNK        -0.5000 
     85 CA         -0.6365  -24.4807  -50.3547 C.3       15 UNK         0.1400 
     86 CB          0.5397  -23.5196  -50.1454 C.3       15 UNK        -0.1800 
     87 C          -1.7449  -23.8242  -51.2038 C.2       15 UNK         0.5000 
     88 O          -1.5009  -23.5153  -52.3690 O.2       15 UNK        -0.5000 
     89 N          -2.9361  -23.6487  -50.6140 N.am      16 UNK        -0.5000 
     90 CA         -4.1889  -23.2149  -51.2317 C.3       16 UNK         0.1400 
     91 CB         -4.6713  -24.2601  -52.2567 C.3       16 UNK        -0.1800 
     92 C          -4.1572  -21.7817  -51.7992 C.2       16 UNK         0.5000 
     93 O          -4.8198  -21.5064  -52.8037 O.2       16 UNK        -0.5000 
     94 N          -3.4366  -20.8676  -51.1303 N.am      17 UNK        -0.5000 
     95 CA         -3.4045  -19.4440  -51.4789 C.3       17 UNK         0.1400 
     96 CB         -2.3299  -18.7137  -50.6616 C.3       17 UNK        -0.1800 
     97 C          -4.7647  -18.7486  -51.2903 C.2       17 UNK         0.5000 
     98 O          -5.0693  -17.8216  -52.0395 O.2       17 UNK        -0.5000 
     99 N          -5.5780  -19.2271  -50.3349 N.am      18 UNK        -0.5000 
    100 CA        -6.9330  -18.7252  -50.0837 C.3       18 UNK         0.1400 
    101 CB        -7.4374  -19.2675  -48.7387 C.3       18 UNK        -0.1800 
    102 C         -7.9220  -19.0719  -51.2148 C.2       18 UNK         0.5000 
    103 O         -8.8795  -18.3294  -51.4331 O.2       18 UNK        -0.5000 
    104 N         -7.6565  -20.1753  -51.9268 N.am      19 UNK        -0.5000 
    105 CA        -8.3913  -20.6052  -53.1176 C.3       19 UNK         0.1400 
    106 CB        -8.3999  -22.1422  -53.1521 C.3       19 UNK        -0.1800 
    107 C         -7.7792  -20.0453  -54.4184 C.2       19 UNK         0.5000 
    108 O         -8.3575  -20.2500  -55.4862 O.2       19 UNK        -0.5000 
    109 N         -6.6165  -19.3812  -54.3113 N.am      20 UNK        -0.5000 
    110 CA        -5.7572  -18.8925  -55.3946 C.3       20 UNK         0.1400 
    111 CB        -6.4453  -17.7509  -56.1712 C.3       20 UNK        -0.1800 
    112 C         -5.2474  -20.0308  -56.3061 C.2       20 UNK         0.5000 
    113 O         -5.1207  -19.8453  -57.5177 O.2       20 UNK        -0.5000 
    114 N         -4.9643  -21.1917  -55.7016 N.am      21 UNK        -0.5000 
    115 CA        -4.5594  -22.4262  -56.3729 C.3       21 UNK         0.1400 
    116 CB        -5.5964  -23.5188  -56.0554 C.3       21 UNK        -0.1800 
    117 C         -3.1266  -22.8156  -55.9637 C.2       21 UNK         0.5000 
    118 O         -2.8578  -23.9846  -55.6828 O.2       21 UNK        -0.5000 
    119 N         -2.2376  -21.8144  -55.9299 N.am      22 UNK        -0.5000 
    120 CA        -0.8125  -21.9379  -55.5896 C.3       22 UNK         0.1400 
    121 C         -0.0295  -22.8866  -56.5421 C.2       22 UNK         0.5000 
    122 N          0.8465  -23.7292  -56.0122 N.am      22 UNK        -0.7600 
    123 O         -0.1837  -22.8348  -57.7606 O.2       22 UNK        -0.5000 
    124 C124       -0.1492  -20.5367  -55.5192 C.3       23 UNK        -0.0398 
    125 S125        1.2240  -20.4520  -54.3193 S.3       23 UNK        -0.2404 
    126 C126        0.3013  -20.1592  -52.7802 C.3       23 UNK        -0.0205 
    127 H127       -2.7523  -10.7422  -47.6923 H         1 UNK         0.0600 
    128 H128       -2.3760  -11.2361  -49.3461 H         1 UNK         0.0600 
    129 H129       -1.2427  -10.2216  -48.4484 H         1 UNK         0.0600 
    130 H130       -1.6729  -13.3481  -49.4786 H         1 UNK         0.3000 
    131 H131        0.4656  -14.4293  -48.0319 H         1 UNK         0.0600 
    132 H132       -1.6823  -15.9517  -49.5799 H         1 UNK         0.0800 
    133 H133       -0.1209  -16.5790  -49.1401 H         1 UNK         0.0800 
    134 H134        2.1921  -15.3140  -51.9364 H         1 UNK         0.0800 
    135 H135        2.2792  -15.1868  -50.1960 H         1 UNK         0.0800 
    136 H136        0.5893  -17.4594  -52.7089 H         1 UNK         0.1150 
    137 H137        1.7413  -21.0186  -50.6241 H         1 UNK         0.1150 
    138 H138        2.9260  -17.1856  -49.1241 H         1 UNK         0.1150 
    139 H139        2.9511  -20.9296  -48.6022 H         1 UNK         0.0800 
    140 H140        4.1519  -19.6646  -48.5968 H         1 UNK         0.0800 
    141 H141        0.3750  -18.7499  -48.0708 H         1 UNK         0.0800 
    142 H142        0.1828  -18.7428  -46.3485 H         1 UNK         0.0800 
    143 H143        0.6053  -21.2836  -47.9840 H         1 UNK         0.0600 
    144 H144        0.5992  -20.9646  -45.1758 H         1 UNK         0.3000 
    145 H145       -0.7240  -24.2013  -44.3498 H         1 UNK         0.0600 
    146 H146        1.3630  -24.2145  -42.9907 H         1 UNK         0.0600 
    147 H147        1.6977  -24.5642  -44.6794 H         1 UNK         0.0600 
    148 H148        2.0666  -22.9752  -44.0288 H         1 UNK         0.0600 
    149 H149        0.1276  -21.8806  -42.8484 H         1 UNK         0.3000 
    150 H150       -3.0987  -20.3834  -42.6060 H         1 UNK         0.0600 
    151 H151       -3.1240  -22.1962  -40.8895 H         1 UNK         0.0600 
    152 H152       -2.6398  -20.6611  -40.1869 H         1 UNK         0.0600 
    153 H153       -1.4283  -21.8972  -40.5267 H         1 UNK         0.0600 
    154 H154       -0.5402  -19.7737  -41.4518 H         1 UNK         0.3000 
    155 H155        0.6587  -17.7346  -44.1097 H         1 UNK         0.0600 
    156 H156        0.7291  -16.0430  -42.2908 H         1 UNK         0.0600 
    157 H157       -0.4349  -16.9715  -41.3473 H         1 UNK         0.0600 
    158 H158       -0.9095  -16.2509  -42.8773 H         1 UNK         0.0600 
    159 H159        1.8130  -18.1163  -41.6129 H         1 UNK         0.3000 
    160 H160        3.0918  -20.8795  -41.3446 H         1 UNK         0.0600 
    161 H161        4.8386  -19.9394  -43.6759 H         1 UNK         0.0600 
    162 H162        4.1871  -21.5518  -43.4335 H         1 UNK         0.0600 
    163 H163        5.4017  -20.9300  -42.3294 H         1 UNK         0.0600 
    164 H164        3.8925  -19.2114  -40.1591 H         1 UNK         0.3000 
    165 H165        4.0845  -16.9739  -39.5971 H         1 UNK         0.0600 
    166 H166        6.9864  -17.3737  -40.4975 H         1 UNK         0.0600 
    167 H167        6.5078  -16.6227  -38.9743 H         1 UNK         0.0600 
    168 H168        6.1117  -18.3026  -39.2957 H         1 UNK         0.0600 
    169 H169        3.9620  -14.9945  -40.5654 H         1 UNK         0.3000 
    170 H170        4.8149  -12.9119  -40.9929 H         1 UNK         0.0600 
    171 H171        7.2241  -12.4571  -41.4809 H         1 UNK         0.0600 
    172 H172        6.9582  -12.8220  -43.1818 H         1 UNK         0.0600 
    173 H173        6.1611  -11.4371  -42.4369 H         1 UNK         0.0600 
    174 H174        4.6696  -13.0968  -43.8805 H         1 UNK         0.3000 
    175 H175        2.5197  -12.8343  -44.7712 H         1 UNK         0.0600 
    176 H176        2.2221  -15.8797  -44.5121 H         1 UNK         0.0600 
    177 H177        2.0700  -14.9392  -45.9968 H         1 UNK         0.0600 
    178 H178        3.6217  -15.0653  -45.1912 H         1 UNK         0.0600 
    179 H179        0.2433  -14.4511  -44.2913 H         1 UNK         0.3000 
    180 H180       -1.5905  -13.2218  -42.3312 H         1 UNK         0.0600 
    181 H181       -1.9688  -10.8793  -44.2758 H         1 UNK         0.0600 
    182 H182       -1.8203  -10.7596  -42.5245 H         1 UNK         0.0600 
    183 H183       -3.2260  -11.5391  -43.2300 H         1 UNK         0.0600 
    184 H184       -1.5985  -13.3950  -45.2965 H         1 UNK         0.3000 
    185 H185       -2.8375  -16.5171  -45.2329 H         1 UNK         0.0600 
    186 H186       -5.2039  -15.8396  -44.8587 H         1 UNK         0.0600 
    187 H187       -5.0052  -14.4660  -45.9408 H         1 UNK         0.0600 
    188 H188       -4.9049  -16.1133  -46.5660 H         1 UNK         0.0600 
    189 H189       -2.9625  -14.4803  -47.3054 H         1 UNK         0.3000 
    190 H190       -1.9734  -19.9445  -45.8544 H         1 UNK         0.3000 
    191 H191       -3.8901  -19.4718  -47.8252 H         1 UNK         0.0600 
    192 H192       -4.2432  -20.1058  -44.8538 H         1 UNK         0.0600 
    193 H193       -5.4967  -19.4386  -45.8908 H         1 UNK         0.0600 
    194 H194       -4.0380  -18.5152  -45.5770 H         1 UNK         0.0600 
    195 H195       -3.7032  -22.3619  -45.6576 H         1 UNK         0.3000 
    196 H196       -5.9664  -23.5773  -47.0773 H         1 UNK         0.0600 
    197 H197       -5.9023  -25.1957  -45.2059 H         1 UNK         0.0600 
    198 H198       -5.9343  -23.5425  -44.6129 H         1 UNK         0.0600 
    199 H199       -4.4324  -24.4603  -44.5810 H         1 UNK         0.0600 
    200 H200       -2.6650  -24.7338  -46.1306 H         1 UNK         0.3000 
    201 H201       -3.0268  -27.1923  -47.5363 H         1 UNK         0.0600 
    202 H202       -1.6622  -27.0064  -45.4714 H         1 UNK         0.0600 
    203 H203       -0.4663  -26.0326  -46.3241 H         1 UNK         0.0600 
    204 H204       -0.7369  -27.7014  -46.7920 H         1 UNK         0.0600 
    205 H205       -1.0049  -24.3146  -48.2605 H         1 UNK         0.3000 
    206 H206       -0.2632  -25.3391  -50.9169 H         1 UNK         0.0600 
    207 H207        1.2878  -23.9385  -49.4722 H         1 UNK         0.0600 
    208 H208        1.0340  -23.3033  -51.0931 H         1 UNK         0.0600 
    209 H209        0.2010  -22.5738  -49.7319 H         1 UNK         0.0600 
    210 H210       -3.0076  -23.9223  -49.6446 H         1 UNK         0.3000 
    211 H211       -4.9252  -23.1994  -50.4284 H         1 UNK         0.0600 
    212 H212       -4.0316  -24.2852  -53.1392 H         1 UNK         0.0600 
    213 H213       -5.6861  -24.0439  -52.5888 H         1 UNK         0.0600 
    214 H214       -4.6833  -25.2599  -51.8224 H         1 UNK         0.0600 
    215 H215       -2.9051  -21.1501  -50.3099 H         1 UNK         0.3000 
    216 H216       -3.1344  -19.3730  -52.5346 H         1 UNK         0.0600 
    217 H217       -1.3912  -19.2627  -50.6510 H         1 UNK         0.0600 
    218 H218       -2.6338  -18.5644  -49.6258 H         1 UNK         0.0600 
    219 H219       -2.1272  -17.7326  -51.0910 H         1 UNK         0.0600 
    220 H220       -5.2752  -20.0192  -49.7774 H         1 UNK         0.3000 
    221 H221       -6.8835  -17.6366  -50.0123 H         1 UNK         0.0600 
    222 H222       -7.5088  -20.3558  -48.7439 H         1 UNK         0.0600 
    223 H223       -6.7751  -18.9764  -47.9241 H         1 UNK         0.0600 
    224 H224       -8.4284  -18.8754  -48.5065 H         1 UNK         0.0600 
    225 H225       -6.8362  -20.7161  -51.6912 H         1 UNK         0.3000 
    226 H226       -9.4251  -20.2585  -53.0607 H         1 UNK         0.0600 
    227 H227       -8.8250  -22.5573  -52.2382 H         1 UNK         0.0600 
    228 H228       -8.9986  -22.5119  -53.9855 H         1 UNK         0.0600 
    229 H229       -7.3941  -22.5449  -53.2701 H         1 UNK         0.0600 
    230 H230       -6.2421  -19.2520  -53.3815 H         1 UNK         0.3000 
    231 H231       -4.8726  -18.4740  -54.9126 H         1 UNK         0.0600 
    232 H232       -5.7570  -17.2911  -56.8813 H         1 UNK         0.0600 
    233 H233       -6.7854  -16.9655  -55.4962 H         1 UNK         0.0600 
    234 H234       -7.3079  -18.1053  -56.7360 H         1 UNK         0.0600 
    235 H235       -5.0349  -21.2481  -54.6876 H         1 UNK         0.3000 
    236 H236       -4.5445  -22.2896  -57.4559 H         1 UNK         0.0600 
    237 H237       -6.5926  -23.2195  -56.3819 H         1 UNK         0.0600 
    238 H238       -5.3552  -24.4529  -56.5640 H         1 UNK         0.0600 
    239 H239       -5.6461  -23.7255  -54.9871 H         1 UNK         0.0600 
    240 H240       -2.5542  -20.8980  -56.2076 H         1 UNK         0.3000 
    241 H241       -0.7924  -22.3767  -54.5916 H         1 UNK         0.0600 
    242 H242        0.9924  -23.7737  -55.0155 H         1 UNK         0.3800 
    243 H243        1.3712  -24.3403  -56.6185 H         1 UNK         0.3800 
    244 H244        0.2208  -20.2249  -56.4979 H         1 UNK         0.0800 
    245 H245       -0.8800  -19.7759  -55.2423 H         1 UNK         0.0800 
    246 H246        0.0163  -21.1177  -52.3433 H         1 UNK         0.0800 
    247 H247       -0.6324  -19.6391  -52.9942 H         1 UNK         0.0800 
@<TRIPOS>BOND
     1    1    2 1    
     2    1  127 1    
     3    1  128 1    
     4    1  129 1    
     5    2    3 2    
     6    2    4 am   BACKBONE|DICT|INTERRES
     7    4    5 1    
     8    4  130 1    
     9    5    6 1    
    10    5   65 1    
    11    5  131 1    
    12    6    7 1    
    13    6  132 1    
    14    6  133 1    
    15    7    8 1    
    16    8    9 1    
    17    8  134 1    
    18    8  135 1    
    19    9   10 ar   
    20    9   14 ar   
    21   10   11 ar   
    22   10  136 1    
    23   11   12 ar   
    24   11  126 1    
    25   12   13 ar   
    26   12  137 1    
    27   13   14 ar   
    28   13   15 1    
    29   14  138 1    
    30   15   16 1    
    31   15  139 1    
    32   15  140 1    
    33   16   17 1    
    34   17   18 1    
    35   17  141 1    
    36   17  142 1    
    37   18   19 1    
    38   18   67 1    
    39   18  143 1    
    40   19   20 am   BACKBONE|DICT|INTERRES
    41   19  144 1    
    42   20   21 2    
    43   20   22 1    
    44   22   23 1    
    45   22   24 1    
    46   22  145 1    
    47   23  146 1    
    48   23  147 1    
    49   23  148 1    
    50   24   25 am   BACKBONE|DICT|INTERRES
    51   24  149 1    
    52   25   26 2    
    53   25   27 1    
    54   27   28 1    
    55   27   29 1    
    56   27  150 1    
    57   28  151 1    
    58   28  152 1    
    59   28  153 1    
    60   29   30 am   BACKBONE|DICT|INTERRES
    61   29  154 1    
    62   30   31 2    
    63   30   32 1    
    64   32   33 1    
    65   32   34 1    
    66   32  155 1    
    67   33  156 1    
    68   33  157 1    
    69   33  158 1    
    70   34   35 am   BACKBONE|DICT|INTERRES
    71   34  159 1    
    72   35   36 2    
    73   35   37 1    
    74   37   38 1    
    75   37   39 1    
    76   37  160 1    
    77   38  161 1    
    78   38  162 1    
    79   38  163 1    
    80   39   40 am   BACKBONE|DICT|INTERRES
    81   39  164 1    
    82   40   41 2    
    83   40   42 1    
    84   42   43 1    
    85   42   44 1    
    86   42  165 1    
    87   43  166 1    
    88   43  167 1    
    89   43  168 1    
    90   44   45 am   BACKBONE|DICT|INTERRES
    91   44  169 1    
    92   45   46 2    
    93   45   47 1    
    94   47   48 1    
    95   47   49 1    
    96   47  170 1    
    97   48  171 1    
    98   48  172 1    
    99   48  173 1    
   100   49   50 am   BACKBONE|DICT|INTERRES
   101   49  174 1    
   102   50   51 2    
   103   50   52 1    
   104   52   53 1    
   105   52   54 1    
   106   52  175 1    
   107   53  176 1    
   108   53  177 1    
   109   53  178 1    
   110   54   55 am   BACKBONE|DICT|INTERRES
   111   54  179 1    
   112   55   56 2    
   113   55   57 1    
   114   57   58 1    
   115   57   59 1    
   116   57  180 1    
   117   58  181 1    
   118   58  182 1    
   119   58  183 1    
   120   59   60 am   BACKBONE|DICT|INTERRES
   121   59  184 1    
   122   60   61 2    
   123   60   62 1    
   124   62   63 1    
   125   62   64 1    
   126   62  185 1    
   127   63  186 1    
   128   63  187 1    
   129   63  188 1    
   130   64   65 am   BACKBONE|DICT|INTERRES
   131   64  189 1    
   132   65   66 2    
   133   67   68 2    
   134   67   69 am   BACKBONE|DICT|INTERRES
   135   69   70 1    
   136   69  190 1    
   137   70   71 1    
   138   70   72 1    
   139   70  191 1    
   140   71  192 1    
   141   71  193 1    
   142   71  194 1    
   143   72   73 2    
   144   72   74 am   BACKBONE|DICT|INTERRES
   145   74   75 1    
   146   74  195 1    
   147   75   76 1    
   148   75   77 1    
   149   75  196 1    
   150   76  197 1    
   151   76  198 1    
   152   76  199 1    
   153   77   78 2    
   154   77   79 am   BACKBONE|DICT|INTERRES
   155   79   80 1    
   156   79  200 1    
   157   80   81 1    
   158   80   82 1    
   159   80  201 1    
   160   81  202 1    
   161   81  203 1    
   162   81  204 1    
   163   82   83 2    
   164   82   84 am   BACKBONE|DICT|INTERRES
   165   84   85 1    
   166   84  205 1    
   167   85   86 1    
   168   85   87 1    
   169   85  206 1    
   170   86  207 1    
   171   86  208 1    
   172   86  209 1    
   173   87   88 2    
   174   87   89 am   BACKBONE|DICT|INTERRES
   175   89   90 1    
   176   89  210 1    
   177   90   91 1    
   178   90   92 1    
   179   90  211 1    
   180   91  212 1    
   181   91  213 1    
   182   91  214 1    
   183   92   93 2    
   184   92   94 am   BACKBONE|DICT|INTERRES
   185   94   95 1    
   186   94  215 1    
   187   95   96 1    
   188   95   97 1    
   189   95  216 1    
   190   96  217 1    
   191   96  218 1    
   192   96  219 1    
   193   97   98 2    
   194   97   99 am   BACKBONE|DICT|INTERRES
   195   99  100 1    
   196   99  220 1    
   197  100  101 1    
   198  100  102 1    
   199  100  221 1    
   200  101  222 1    
   201  101  223 1    
   202  101  224 1    
   203  102  103 2    
   204  102  104 am   BACKBONE|DICT|INTERRES
   205  104  105 1    
   206  104  225 1    
   207  105  106 1    
   208  105  107 1    
   209  105  226 1    
   210  106  227 1    
   211  106  228 1    
   212  106  229 1    
   213  107  108 2    
   214  107  109 am   BACKBONE|DICT|INTERRES
   215  109  110 1    
   216  109  230 1    
   217  110  111 1    
   218  110  112 1    
   219  110  231 1    
   220  111  232 1    
   221  111  233 1    
   222  111  234 1    
   223  112  113 2    
   224  112  114 am   BACKBONE|DICT|INTERRES
   225  114  115 1    
   226  114  235 1    
   227  115  116 1    
   228  115  117 1    
   229  115  236 1    
   230  116  237 1    
   231  116  238 1    
   232  116  239 1    
   233  117  118 2    
   234  117  119 am   BACKBONE|DICT|INTERRES
   235  119  120 1    
   236  119  240 1    
   237  120  121 1    
   238  120  124 1    
   239  120  241 1    
   240  121  122 am   BACKBONE|DICT|INTERRES
   241  121  123 2    
   242  122  242 1    
   243  122  243 1    
   244  124  125 1    
   245  124  244 1    
   246  124  245 1    
   247  125  126 1    
   248  126  246 1    
   249  126  247 1    
@<TRIPOS>SUBSTRUCTURE
     1 UNK         1 GROUP             0       ****    0 ROOT    
