@<TRIPOS>MOLECULE
3R540
247   249    1
SMALL
USER_CHARGES


@<TRIPOS>ATOM
      1 CA         -2.0007  -18.0675  -50.4873 C.3       0 UNK        -0.1800 
      2 C          -0.9883  -17.2017  -51.2239 C.2       0 UNK         0.5000 
      3 O          -0.6351  -17.4817  -52.3690 O.2       0 UNK        -0.5000 
      4 N          -0.5182  -16.1456  -50.5641 N.am      1 UNK        -0.5000 
      5 CA          0.4319  -15.1651  -51.0904 C.3       1 UNK         0.1400 
      6 C6          1.9267  -15.5648  -50.9424 C.3       23 UNK        -0.0398 
      7 S7          2.4055  -16.2550  -49.3141 S.3       23 UNK        -0.2404 
      8 C8          3.7844  -17.3674  -49.7652 C.3       23 UNK        -0.0205 
      9 C9          3.3892  -18.8258  -50.0064 C.ar      23 UNK        -0.0193 
     10 C10         2.2351  -19.1715  -50.7195 C.ar      23 UNK        -0.1150 
     11 C11         1.9167  -20.5111  -50.9604 C.ar      23 UNK        -0.0193 
     12 C12         2.7704  -21.5146  -50.5024 C.ar      23 UNK        -0.1150 
     13 C13         3.9205  -21.1912  -49.7801 C.ar      23 UNK        -0.0193 
     14 C14         4.2242  -19.8476  -49.5375 C.ar      23 UNK        -0.1150 
     15 C15         4.8356  -22.2967  -49.2733 C.3       23 UNK        -0.0205 
     16 S16         4.3982  -22.8342  -47.5891 S.3       23 UNK        -0.2404 
     17 C17         2.7779  -23.6306  -47.8627 C.3       23 UNK        -0.0398 
     18 CA          2.2346  -24.3340  -46.5965 C.3       11 UNK         0.1400 
     19 N           2.0966  -23.3911  -45.4872 N.am      11 UNK        -0.5000 
     20 C           1.9175  -23.7146  -44.2017 C.2       10 UNK         0.5000 
     21 O           1.9156  -24.8747  -43.7860 O.2       10 UNK        -0.5000 
     22 CA          1.6812  -22.5398  -43.2292 C.3       10 UNK         0.1400 
     23 CB          2.1581  -22.8334  -41.7922 C.3       10 UNK        -0.1800 
     24 N           2.2095  -21.2574  -43.7098 N.am      10 UNK        -0.5000 
     25 C           3.4922  -20.9213  -43.9214 C.2       9 UNK         0.5000 
     26 O           4.4469  -21.6752  -43.7332 O.2       9 UNK        -0.5000 
     27 CA          3.7467  -19.4835  -44.4018 C.3       9 UNK         0.1400 
     28 CB          3.4674  -19.3433  -45.9091 C.3       9 UNK        -0.1800 
     29 N           2.9072  -18.5479  -43.6500 N.am      9 UNK        -0.5000 
     30 C           3.3615  -17.7165  -42.7032 C.2       8 UNK         0.5000 
     31 O           4.5537  -17.5788  -42.4258 O.2       8 UNK        -0.5000 
     32 CA          2.3164  -16.9018  -41.9181 C.3       8 UNK         0.1400 
     33 CB          2.0358  -15.5570  -42.6073 C.3       8 UNK        -0.1800 
     34 N           1.0538  -17.6098  -41.6948 N.am      8 UNK        -0.5000 
     35 C           0.9034  -18.6327  -40.8392 C.2       7 UNK         0.5000 
     36 O           1.8362  -19.1489  -40.2236 O.2       7 UNK        -0.5000 
     37 CA         -0.5246  -19.1573  -40.6141 C.3       7 UNK         0.1400 
     38 CB         -1.2781  -18.2509  -39.6278 C.3       7 UNK        -0.1800 
     39 N          -1.2695  -19.2171  -41.8689 N.am      7 UNK        -0.5000 
     40 C          -1.6739  -20.3443  -42.4690 C.2       6 UNK         0.5000 
     41 O          -1.5432  -21.4673  -41.9825 O.2       6 UNK        -0.5000 
     42 CA         -2.3230  -20.2053  -43.8622 C.3       6 UNK         0.1400 
     43 CB         -3.8530  -20.1969  -43.7306 C.3       6 UNK        -0.1800 
     44 N          -1.9017  -19.0166  -44.6059 N.am      6 UNK        -0.5000 
     45 C          -0.6369  -18.7274  -44.9388 C.2       5 UNK         0.5000 
     46 O           0.3118  -19.4787  -44.7197 O.2       5 UNK        -0.5000 
     47 CA         -0.3601  -17.3368  -45.5369 C.3       5 UNK         0.1400 
     48 CB         -0.2093  -17.4269  -47.0586 C.3       5 UNK        -0.1800 
     49 N          -1.3479  -16.3057  -45.1895 N.am      5 UNK        -0.5000 
     50 C          -1.6866  -15.9408  -43.9403 C.2       4 UNK         0.5000 
     51 O          -1.2223  -16.4856  -42.9370 O.2       4 UNK        -0.5000 
     52 CA         -2.6973  -14.7905  -43.7544 C.3       4 UNK         0.1400 
     53 CB         -2.0828  -13.6724  -42.8963 C.3       4 UNK        -0.1800 
     54 N          -3.1621  -14.2051  -45.0106 N.am      4 UNK        -0.5000 
     55 C          -4.1085  -14.7088  -45.8152 C.2       3 UNK         0.5000 
     56 O          -4.7396  -15.7366  -45.5708 O.2       3 UNK        -0.5000 
     57 CA         -4.3483  -13.9455  -47.1366 C.3       3 UNK         0.1400 
     58 CB         -5.5076  -12.9499  -46.9843 C.3       3 UNK        -0.1800 
     59 N          -3.1496  -13.2299  -47.5997 N.am      3 UNK        -0.5000 
     60 C          -2.0394  -13.8557  -48.0084 C.2       2 UNK         0.5000 
     61 O          -1.9568  -15.0837  -48.0991 O.2       2 UNK        -0.5000 
     62 CA         -0.7954  -12.9936  -48.2956 C.3       2 UNK         0.1400 
     63 CB         -0.0819  -12.6397  -46.9808 C.3       2 UNK        -0.1800 
     64 N           0.1139  -13.7831  -49.1210 N.am      2 UNK        -0.5000 
     65 C           0.0535  -13.8218  -50.4556 C.2       1 UNK         0.5000 
     66 O          -0.4110  -12.9192  -51.1527 O.2       1 UNK        -0.5000 
     67 C           0.8701  -24.9857  -46.8970 C.2       11 UNK         0.5000 
     68 O          -0.1585  -24.3172  -46.7763 O.2       11 UNK        -0.5000 
     69 N           0.8696  -26.2505  -47.3387 N.am      12 UNK        -0.5000 
     70 CA         -0.3430  -27.0277  -47.6345 C.3       12 UNK         0.1400 
     71 CB          0.0580  -28.4554  -48.0345 C.3       12 UNK        -0.1800 
     72 C          -1.2543  -26.4019  -48.7118 C.2       12 UNK         0.5000 
     73 O          -2.4747  -26.5379  -48.6311 O.2       12 UNK        -0.5000 
     74 N          -0.6458  -25.6965  -49.6744 N.am      13 UNK        -0.5000 
     75 CA         -1.3354  -24.9646  -50.7389 C.3       13 UNK         0.1400 
     76 CB         -0.3943  -24.8779  -51.9504 C.3       13 UNK        -0.1800 
     77 C          -1.8136  -23.5595  -50.3091 C.2       13 UNK         0.5000 
     78 O          -2.5466  -22.9207  -51.0675 O.2       13 UNK        -0.5000 
     79 N          -1.3791  -23.0898  -49.1302 N.am      14 UNK        -0.5000 
     80 CA         -1.7678  -21.8087  -48.5362 C.3       14 UNK         0.1400 
     81 CB         -0.5160  -21.1050  -47.9922 C.3       14 UNK        -0.1800 
     82 C          -2.7882  -21.9848  -47.3982 C.2       14 UNK         0.5000 
     83 O          -3.5322  -21.0470  -47.1142 O.2       14 UNK        -0.5000 
     84 N          -2.8106  -23.1737  -46.7756 N.am      15 UNK        -0.5000 
     85 CA         -3.5968  -23.5680  -45.5990 C.3       15 UNK         0.1400 
     86 CB         -3.3102  -25.0472  -45.2984 C.3       15 UNK        -0.1800 
     87 C          -5.1171  -23.3231  -45.6819 C.2       15 UNK         0.5000 
     88 O          -5.7693  -23.2233  -44.6427 O.2       15 UNK        -0.5000 
     89 N          -5.6508  -23.2062  -46.9036 N.am      16 UNK        -0.5000 
     90 CA         -7.0358  -22.8297  -47.1878 C.3       16 UNK         0.1400 
     91 CB         -7.3335  -23.1688  -48.6576 C.3       16 UNK        -0.1800 
     92 C          -7.3538  -21.3432  -46.9068 C.2       16 UNK         0.5000 
     93 O          -8.5305  -20.9803  -46.9228 O.2       16 UNK        -0.5000 
     94 N          -6.3180  -20.5135  -46.6912 N.am      17 UNK        -0.5000 
     95 CA         -6.3551  -19.0486  -46.5779 C.3       17 UNK         0.1400 
     96 CB         -7.1680  -18.5909  -45.3492 C.3       17 UNK        -0.1800 
     97 C          -6.8090  -18.4047  -47.9029 C.2       17 UNK         0.5000 
     98 O          -7.6609  -17.5138  -47.9207 O.2       17 UNK        -0.5000 
     99 N          -6.2455  -18.9285  -48.9981 N.am      18 UNK        -0.5000 
    100 CA        -6.5304  -18.5475  -50.3766 C.3       18 UNK         0.1400 
    101 CB        -5.9494  -19.6377  -51.2953 C.3       18 UNK        -0.1800 
    102 C         -5.9668  -17.1626  -50.7481 C.2       18 UNK         0.5000 
    103 O         -5.1567  -16.5895  -50.0151 O.2       18 UNK        -0.5000 
    104 N         -6.3872  -16.6741  -51.9208 N.am      19 UNK        -0.5000 
    105 CA        -5.8010  -15.5216  -52.6046 C.3       19 UNK         0.1400 
    106 CB        -6.7454  -15.1042  -53.7450 C.3       19 UNK        -0.1800 
    107 C         -4.3876  -15.8339  -53.1432 C.2       19 UNK         0.5000 
    108 O         -3.9529  -16.9877  -53.1152 O.2       19 UNK        -0.5000 
    109 N         -3.7011  -14.7925  -53.6322 N.am      20 UNK        -0.5000 
    110 CA        -2.3479  -14.8592  -54.1890 C.3       20 UNK         0.1400 
    111 CB        -1.9222  -13.4533  -54.6383 C.3       20 UNK        -0.1800 
    112 C         -2.1966  -15.8702  -55.3453 C.2       20 UNK         0.5000 
    113 O         -3.1343  -16.0582  -56.1242 O.2       20 UNK        -0.5000 
    114 N         -1.0034  -16.4746  -55.4277 N.am      21 UNK        -0.5000 
    115 CA        -0.6213  -17.5822  -56.3134 C.3       21 UNK         0.1400 
    116 CB        -0.8300  -17.2419  -57.8052 C.3       21 UNK        -0.1800 
    117 C         -1.2405  -18.9342  -55.8933 C.2       21 UNK         0.5000 
    118 O         -1.4061  -19.8207  -56.7337 O.2       21 UNK        -0.5000 
    119 N         -1.4997  -19.0781  -54.5874 N.am      22 UNK        -0.5000 
    120 CA        -1.9123  -20.2950  -53.8734 C.3       22 UNK         0.1400 
    121 C         -3.3523  -20.8001  -54.1796 C.2       22 UNK         0.5000 
    122 N         -3.8552  -21.7446  -53.3925 N.am      22 UNK        -0.7600 
    123 O         -4.0305  -20.3550  -55.1024 O.2       22 UNK        -0.5000 
    124 C124       -0.8582  -21.4349  -53.9692 C.3       23 UNK        -0.0398 
    125 S125        0.8269  -20.9257  -53.4754 S.3       23 UNK        -0.2404 
    126 C126        0.6286  -20.8827  -51.6723 C.3       23 UNK        -0.0205 
    127 H127       -2.5259  -17.4954  -49.7218 H         1 UNK         0.0600 
    128 H128       -1.5017  -18.9045  -50.0020 H         1 UNK         0.0600 
    129 H129       -2.7460  -18.4578  -51.1787 H         1 UNK         0.0600 
    130 H130       -0.9071  -15.9239  -49.6523 H         1 UNK         0.3000 
    131 H131        0.2474  -15.0446  -52.1591 H         1 UNK         0.0600 
    132 H132        2.5723  -14.7124  -51.1602 H         1 UNK         0.0800 
    133 H133        2.1613  -16.3018  -51.7106 H         1 UNK         0.0800 
    134 H134        4.5120  -17.3177  -48.9537 H         1 UNK         0.0800 
    135 H135        4.2951  -16.9856  -50.6499 H         1 UNK         0.0800 
    136 H136        1.5767  -18.4026  -51.0893 H         1 UNK         0.1150 
    137 H137        2.5294  -22.5506  -50.6941 H         1 UNK         0.1150 
    138 H138        5.1202  -19.5990  -48.9862 H         1 UNK         0.1150 
    139 H139        4.8092  -23.1529  -49.9491 H         1 UNK         0.0800 
    140 H140        5.8685  -21.9454  -49.2716 H         1 UNK         0.0800 
    141 H141        2.8832  -24.3439  -48.6821 H         1 UNK         0.0800 
    142 H142        2.0735  -22.8680  -48.1983 H         1 UNK         0.0800 
    143 H143        2.9365  -25.1156  -46.2981 H         1 UNK         0.0600 
    144 H144        2.0802  -22.4139  -45.7348 H         1 UNK         0.3000 
    145 H145        0.5996  -22.4153  -43.1927 H         1 UNK         0.0600 
    146 H146        1.9554  -21.9900  -41.1318 H         1 UNK         0.0600 
    147 H147        1.6406  -23.6991  -41.3775 H         1 UNK         0.0600 
    148 H148        3.2273  -23.0423  -41.7537 H         1 UNK         0.0600 
    149 H149        1.4981  -20.5777  -43.9725 H         1 UNK         0.3000 
    150 H150        4.8043  -19.2637  -44.2424 H         1 UNK         0.0600 
    151 H151        4.1469  -19.9717  -46.4851 H         1 UNK         0.0600 
    152 H152        3.6145  -18.3168  -46.2453 H         1 UNK         0.0600 
    153 H153        2.4528  -19.6378  -46.1757 H         1 UNK         0.0600 
    154 H154        1.9087  -18.6329  -43.7909 H         1 UNK         0.3000 
    155 H155        2.7486  -16.6830  -40.9391 H         1 UNK         0.0600 
    156 H156        2.9541  -14.9800  -42.7226 H         1 UNK         0.0600 
    157 H157        1.3432  -14.9512  -42.0225 H         1 UNK         0.0600 
    158 H158        1.6072  -15.6876  -43.5995 H         1 UNK         0.0600 
    159 H159        0.2294  -17.2092  -42.1355 H         1 UNK         0.3000 
    160 H160       -0.4418  -20.1495  -40.1656 H         1 UNK         0.0600 
    161 H161       -1.4002  -17.2402  -40.0200 H         1 UNK         0.0600 
    162 H162       -0.7442  -18.1749  -38.6797 H         1 UNK         0.0600 
    163 H163       -2.2704  -18.6471  -39.4116 H         1 UNK         0.0600 
    164 H164       -1.4134  -18.3330  -42.3458 H         1 UNK         0.3000 
    165 H165       -2.0210  -21.0742  -44.4480 H         1 UNK         0.0600 
    166 H166       -4.3318  -20.2074  -44.7071 H         1 UNK         0.0600 
    167 H167       -4.2069  -21.0763  -43.1908 H         1 UNK         0.0600 
    168 H168       -4.2065  -19.3163  -43.1929 H         1 UNK         0.0600 
    169 H169       -2.6172  -18.3378  -44.8197 H         1 UNK         0.3000 
    170 H170        0.6001  -17.0124  -45.1364 H         1 UNK         0.0600 
    171 H171        0.5371  -18.1710  -47.3407 H         1 UNK         0.0600 
    172 H172       -1.1495  -17.6922  -47.5427 H         1 UNK         0.0600 
    173 H173        0.1274  -16.4763  -47.4669 H         1 UNK         0.0600 
    174 H174       -1.7825  -15.8284  -45.9688 H         1 UNK         0.3000 
    175 H175       -3.5558  -15.2003  -43.2186 H         1 UNK         0.0600 
    176 H176       -1.7728  -14.0489  -41.9204 H         1 UNK         0.0600 
    177 H177       -1.2041  -13.2361  -43.3732 H         1 UNK         0.0600 
    178 H178       -2.8011  -12.8720  -42.7178 H         1 UNK         0.0600 
    179 H179       -2.7016  -13.3561  -45.3017 H         1 UNK         0.3000 
    180 H180       -4.6258  -14.6803  -47.8960 H         1 UNK         0.0600 
    181 H181       -6.4178  -13.4589  -46.6640 H         1 UNK         0.0600 
    182 H182       -5.2840  -12.1796  -46.2452 H         1 UNK         0.0600 
    183 H183       -5.7293  -12.4557  -47.9303 H         1 UNK         0.0600 
    184 H184       -3.1688  -12.2212  -47.5483 H         1 UNK         0.3000 
    185 H185       -1.0941  -12.0773  -48.8090 H         1 UNK         0.0600 
    186 H186       -0.7142  -12.0203  -46.3439 H         1 UNK         0.0600 
    187 H187        0.1859  -13.5316  -46.4118 H         1 UNK         0.0600 
    188 H188        0.8334  -12.0786  -47.1705 H         1 UNK         0.0600 
    189 H189        0.5265  -14.5809  -48.6574 H         1 UNK         0.3000 
    190 H190        1.7474  -26.7423  -47.4281 H         1 UNK         0.3000 
    191 H191       -0.9269  -27.0843  -46.7134 H         1 UNK         0.0600 
    192 H192        0.6781  -28.4631  -48.9318 H         1 UNK         0.0600 
    193 H193       -0.8224  -29.0664  -48.2385 H         1 UNK         0.0600 
    194 H194        0.6144  -28.9476  -47.2366 H         1 UNK         0.0600 
    195 H195        0.3622  -25.6513  -49.6710 H         1 UNK         0.3000 
    196 H196       -2.2200  -25.5294  -51.0408 H         1 UNK         0.0600 
    197 H197       -0.9120  -24.4683  -52.8170 H         1 UNK         0.0600 
    198 H198       -0.0319  -25.8648  -52.2387 H         1 UNK         0.0600 
    199 H199        0.4736  -24.2491  -51.7492 H         1 UNK         0.0600 
    200 H200       -0.7998  -23.6853  -48.5505 H         1 UNK         0.3000 
    201 H201       -2.2223  -21.1632  -49.2902 H         1 UNK         0.0600 
    202 H202       -0.7791  -20.1302  -47.5872 H         1 UNK         0.0600 
    203 H203       -0.0419  -21.6705  -47.1897 H         1 UNK         0.0600 
    204 H204        0.2254  -20.9425  -48.7716 H         1 UNK         0.0600 
    205 H205       -2.0913  -23.8357  -47.0405 H         1 UNK         0.3000 
    206 H206       -3.2313  -22.9837  -44.7550 H         1 UNK         0.0600 
    207 H207       -2.2497  -25.2133  -45.1077 H         1 UNK         0.0600 
    208 H208       -3.8531  -25.3823  -44.4136 H         1 UNK         0.0600 
    209 H209       -3.6064  -25.6888  -46.1292 H         1 UNK         0.0600 
    210 H210       -5.0360  -23.3066  -47.6976 H         1 UNK         0.3000 
    211 H211       -7.6935  -23.4299  -46.5558 H         1 UNK         0.0600 
    212 H212       -8.3698  -22.9417  -48.9113 H         1 UNK         0.0600 
    213 H213       -7.1776  -24.2290  -48.8580 H         1 UNK         0.0600 
    214 H214       -6.6976  -22.6006  -49.3378 H         1 UNK         0.0600 
    215 H215       -5.3814  -20.9073  -46.7321 H         1 UNK         0.3000 
    216 H216       -5.3242  -18.7256  -46.4237 H         1 UNK         0.0600 
    217 H217       -7.0658  -17.5154  -45.1994 H         1 UNK         0.0600 
    218 H218       -6.8168  -19.0798  -44.4406 H         1 UNK         0.0600 
    219 H219       -8.2314  -18.8043  -45.4573 H         1 UNK         0.0600 
    220 H220       -5.5389  -19.6368  -48.8700 H         1 UNK         0.3000 
    221 H221       -7.6143  -18.5190  -50.5057 H         1 UNK         0.0600 
    222 H222       -4.8666  -19.7160  -51.1915 H         1 UNK         0.0600 
    223 H223       -6.3777  -20.6146  -51.0703 H         1 UNK         0.0600 
    224 H224       -6.1587  -19.4308  -52.3455 H         1 UNK         0.0600 
    225 H225       -7.0275  -17.2282  -52.4695 H         1 UNK         0.3000 
    226 H226       -5.7208  -14.6985  -51.8915 H         1 UNK         0.0600 
    227 H227       -6.8329  -15.8868  -54.4999 H         1 UNK         0.0600 
    228 H228       -7.7455  -14.8864  -53.3696 H         1 UNK         0.0600 
    229 H229       -6.3889  -14.2042  -54.2472 H         1 UNK         0.0600 
    230 H230       -4.1419  -13.8850  -53.6480 H         1 UNK         0.3000 
    231 H231       -1.6933  -15.1711  -53.3763 H         1 UNK         0.0600 
    232 H232       -1.9391  -12.7503  -53.8049 H         1 UNK         0.0600 
    233 H233       -2.5767  -13.0670  -55.4206 H         1 UNK         0.0600 
    234 H234       -0.9057  -13.4591  -55.0338 H         1 UNK         0.0600 
    235 H235       -0.3150  -16.2481  -54.7231 H         1 UNK         0.3000 
    236 H236        0.4531  -17.7043  -56.1683 H         1 UNK         0.0600 
    237 H237       -0.4053  -16.2693  -58.0533 H         1 UNK         0.0600 
    238 H238       -0.3419  -17.9802  -58.4423 H         1 UNK         0.0600 
    239 H239       -1.8852  -17.2304  -58.0782 H         1 UNK         0.0600 
    240 H240       -1.3143  -18.2899  -53.9740 H         1 UNK         0.3000 
    241 H241       -1.9594  -19.9820  -52.8318 H         1 UNK         0.0600 
    242 H242       -3.3450  -22.1218  -52.5972 H         1 UNK         0.3800 
    243 H243       -4.7859  -22.0812  -53.5786 H         1 UNK         0.3800 
    244 H244       -0.8109  -21.8227  -54.9876 H         1 UNK         0.0800 
    245 H245       -1.1509  -22.2766  -53.3445 H         1 UNK         0.0800 
    246 H246       -0.1492  -20.1693  -51.4088 H         1 UNK         0.0800 
    247 H247        0.2830  -21.8546  -51.3243 H         1 UNK         0.0800 
@<TRIPOS>BOND
     1    1    2 1    
     2    1  127 1    
     3    1  128 1    
     4    1  129 1    
     5    2    3 2    
     6    2    4 am   BACKBONE|DICT|INTERRES
     7    4    5 1    
     8    4  130 1    
     9    5    6 1    
    10    5   65 1    
    11    5  131 1    
    12    6    7 1    
    13    6  132 1    
    14    6  133 1    
    15    7    8 1    
    16    8    9 1    
    17    8  134 1    
    18    8  135 1    
    19    9   10 ar   
    20    9   14 ar   
    21   10   11 ar   
    22   10  136 1    
    23   11   12 ar   
    24   11  126 1    
    25   12   13 ar   
    26   12  137 1    
    27   13   14 ar   
    28   13   15 1    
    29   14  138 1    
    30   15   16 1    
    31   15  139 1    
    32   15  140 1    
    33   16   17 1    
    34   17   18 1    
    35   17  141 1    
    36   17  142 1    
    37   18   19 1    
    38   18   67 1    
    39   18  143 1    
    40   19   20 am   BACKBONE|DICT|INTERRES
    41   19  144 1    
    42   20   21 2    
    43   20   22 1    
    44   22   23 1    
    45   22   24 1    
    46   22  145 1    
    47   23  146 1    
    48   23  147 1    
    49   23  148 1    
    50   24   25 am   BACKBONE|DICT|INTERRES
    51   24  149 1    
    52   25   26 2    
    53   25   27 1    
    54   27   28 1    
    55   27   29 1    
    56   27  150 1    
    57   28  151 1    
    58   28  152 1    
    59   28  153 1    
    60   29   30 am   BACKBONE|DICT|INTERRES
    61   29  154 1    
    62   30   31 2    
    63   30   32 1    
    64   32   33 1    
    65   32   34 1    
    66   32  155 1    
    67   33  156 1    
    68   33  157 1    
    69   33  158 1    
    70   34   35 am   BACKBONE|DICT|INTERRES
    71   34  159 1    
    72   35   36 2    
    73   35   37 1    
    74   37   38 1    
    75   37   39 1    
    76   37  160 1    
    77   38  161 1    
    78   38  162 1    
    79   38  163 1    
    80   39   40 am   BACKBONE|DICT|INTERRES
    81   39  164 1    
    82   40   41 2    
    83   40   42 1    
    84   42   43 1    
    85   42   44 1    
    86   42  165 1    
    87   43  166 1    
    88   43  167 1    
    89   43  168 1    
    90   44   45 am   BACKBONE|DICT|INTERRES
    91   44  169 1    
    92   45   46 2    
    93   45   47 1    
    94   47   48 1    
    95   47   49 1    
    96   47  170 1    
    97   48  171 1    
    98   48  172 1    
    99   48  173 1    
   100   49   50 am   BACKBONE|DICT|INTERRES
   101   49  174 1    
   102   50   51 2    
   103   50   52 1    
   104   52   53 1    
   105   52   54 1    
   106   52  175 1    
   107   53  176 1    
   108   53  177 1    
   109   53  178 1    
   110   54   55 am   BACKBONE|DICT|INTERRES
   111   54  179 1    
   112   55   56 2    
   113   55   57 1    
   114   57   58 1    
   115   57   59 1    
   116   57  180 1    
   117   58  181 1    
   118   58  182 1    
   119   58  183 1    
   120   59   60 am   BACKBONE|DICT|INTERRES
   121   59  184 1    
   122   60   61 2    
   123   60   62 1    
   124   62   63 1    
   125   62   64 1    
   126   62  185 1    
   127   63  186 1    
   128   63  187 1    
   129   63  188 1    
   130   64   65 am   BACKBONE|DICT|INTERRES
   131   64  189 1    
   132   65   66 2    
   133   67   68 2    
   134   67   69 am   BACKBONE|DICT|INTERRES
   135   69   70 1    
   136   69  190 1    
   137   70   71 1    
   138   70   72 1    
   139   70  191 1    
   140   71  192 1    
   141   71  193 1    
   142   71  194 1    
   143   72   73 2    
   144   72   74 am   BACKBONE|DICT|INTERRES
   145   74   75 1    
   146   74  195 1    
   147   75   76 1    
   148   75   77 1    
   149   75  196 1    
   150   76  197 1    
   151   76  198 1    
   152   76  199 1    
   153   77   78 2    
   154   77   79 am   BACKBONE|DICT|INTERRES
   155   79   80 1    
   156   79  200 1    
   157   80   81 1    
   158   80   82 1    
   159   80  201 1    
   160   81  202 1    
   161   81  203 1    
   162   81  204 1    
   163   82   83 2    
   164   82   84 am   BACKBONE|DICT|INTERRES
   165   84   85 1    
   166   84  205 1    
   167   85   86 1    
   168   85   87 1    
   169   85  206 1    
   170   86  207 1    
   171   86  208 1    
   172   86  209 1    
   173   87   88 2    
   174   87   89 am   BACKBONE|DICT|INTERRES
   175   89   90 1    
   176   89  210 1    
   177   90   91 1    
   178   90   92 1    
   179   90  211 1    
   180   91  212 1    
   181   91  213 1    
   182   91  214 1    
   183   92   93 2    
   184   92   94 am   BACKBONE|DICT|INTERRES
   185   94   95 1    
   186   94  215 1    
   187   95   96 1    
   188   95   97 1    
   189   95  216 1    
   190   96  217 1    
   191   96  218 1    
   192   96  219 1    
   193   97   98 2    
   194   97   99 am   BACKBONE|DICT|INTERRES
   195   99  100 1    
   196   99  220 1    
   197  100  101 1    
   198  100  102 1    
   199  100  221 1    
   200  101  222 1    
   201  101  223 1    
   202  101  224 1    
   203  102  103 2    
   204  102  104 am   BACKBONE|DICT|INTERRES
   205  104  105 1    
   206  104  225 1    
   207  105  106 1    
   208  105  107 1    
   209  105  226 1    
   210  106  227 1    
   211  106  228 1    
   212  106  229 1    
   213  107  108 2    
   214  107  109 am   BACKBONE|DICT|INTERRES
   215  109  110 1    
   216  109  230 1    
   217  110  111 1    
   218  110  112 1    
   219  110  231 1    
   220  111  232 1    
   221  111  233 1    
   222  111  234 1    
   223  112  113 2    
   224  112  114 am   BACKBONE|DICT|INTERRES
   225  114  115 1    
   226  114  235 1    
   227  115  116 1    
   228  115  117 1    
   229  115  236 1    
   230  116  237 1    
   231  116  238 1    
   232  116  239 1    
   233  117  118 2    
   234  117  119 am   BACKBONE|DICT|INTERRES
   235  119  120 1    
   236  119  240 1    
   237  120  121 1    
   238  120  124 1    
   239  120  241 1    
   240  121  122 am   BACKBONE|DICT|INTERRES
   241  121  123 2    
   242  122  242 1    
   243  122  243 1    
   244  124  125 1    
   245  124  244 1    
   246  124  245 1    
   247  125  126 1    
   248  126  246 1    
   249  126  247 1    
@<TRIPOS>SUBSTRUCTURE
     1 UNK         1 GROUP             0       ****    0 ROOT    
