@<TRIPOS>MOLECULE
3R540
247   249    1
SMALL
USER_CHARGES


@<TRIPOS>ATOM
      1 CA         -0.5759   -9.5734  -45.3269 C.3       0 UNK        -0.1800 
      2 C           0.3561  -10.3015  -46.2858 C.2       0 UNK         0.5000 
      3 O           1.4398   -9.8007  -46.5863 O.2       0 UNK        -0.5000 
      4 N          -0.0626  -11.4794  -46.7646 N.am      1 UNK        -0.5000 
      5 CA          0.7257  -12.3618  -47.6305 C.3       1 UNK         0.1400 
      6 C6         -0.1803  -13.4298  -48.2924 C.3       23 UNK        -0.0398 
      7 S7          0.5369  -14.1114  -49.8265 S.3       23 UNK        -0.2404 
      8 C8          0.0717  -15.8671  -49.7013 C.3       23 UNK        -0.0205 
      9 C9         -1.4143  -16.0745  -49.9579 C.ar      23 UNK        -0.0193 
     10 C10        -1.8953  -16.1643  -51.2676 C.ar      23 UNK        -0.1150 
     11 C11        -3.2609  -16.3359  -51.5149 C.ar      23 UNK        -0.0193 
     12 C12        -4.1463  -16.4335  -50.4363 C.ar      23 UNK        -0.1150 
     13 C13        -3.6761  -16.3620  -49.1206 C.ar      23 UNK        -0.0193 
     14 C14        -2.3098  -16.1732  -48.8898 C.ar      23 UNK        -0.1150 
     15 C15        -4.6482  -16.4552  -47.9513 C.3       23 UNK        -0.0205 
     16 S16        -5.0430  -18.1754  -47.4917 S.3       23 UNK        -0.2404 
     17 C17        -3.5056  -18.7335  -46.6822 C.3       23 UNK        -0.0398 
     18 CA         -3.3191  -20.2711  -46.7848 C.3       11 UNK         0.1400 
     19 N          -1.9750  -20.6376  -47.2371 N.am      11 UNK        -0.5000 
     20 C          -1.5735  -21.8637  -47.6026 C.2       10 UNK         0.5000 
     21 O          -2.3239  -22.8372  -47.6697 O.2       10 UNK        -0.5000 
     22 CA         -0.0755  -22.0383  -47.9306 C.3       10 UNK         0.1400 
     23 CB          0.1272  -22.0887  -49.4512 C.3       10 UNK        -0.1800 
     24 N           0.7823  -20.9897  -47.3691 N.am      10 UNK        -0.5000 
     25 C           0.8988  -20.6988  -46.0659 C.2       9 UNK         0.5000 
     26 O           0.3256  -21.3291  -45.1723 O.2       9 UNK        -0.5000 
     27 CA          1.7041  -19.4296  -45.7432 C.3       9 UNK         0.1400 
     28 CB          1.0259  -18.2031  -46.3756 C.3       9 UNK        -0.1800 
     29 N           1.7837  -19.2127  -44.3030 N.am      9 UNK        -0.5000 
     30 C           2.7538  -19.6774  -43.5062 C.2       8 UNK         0.5000 
     31 O           3.7321  -20.2998  -43.9221 O.2       8 UNK        -0.5000 
     32 CA          2.6124  -19.3978  -41.9971 C.3       8 UNK         0.1400 
     33 CB          3.9363  -18.9445  -41.3572 C.3       8 UNK        -0.1800 
     34 N           1.5860  -18.3857  -41.7388 N.am      8 UNK        -0.5000 
     35 C           0.4994  -18.5757  -40.9806 C.2       7 UNK         0.5000 
     36 O           0.2828  -19.6081  -40.3455 O.2       7 UNK        -0.5000 
     37 CA         -0.5315  -17.4331  -40.9127 C.3       7 UNK         0.1400 
     38 CB         -0.4077  -16.6835  -39.5781 C.3       7 UNK        -0.1800 
     39 N          -0.4515  -16.4772  -42.0221 N.am      7 UNK        -0.5000 
     40 C          -0.8183  -16.7462  -43.2838 C.2       6 UNK         0.5000 
     41 O          -1.1536  -17.8713  -43.6577 O.2       6 UNK        -0.5000 
     42 CA         -0.7869  -15.6067  -44.3244 C.3       6 UNK         0.1400 
     43 CB         -2.1849  -15.3249  -44.9058 C.3       6 UNK        -0.1800 
     44 N          -0.1306  -14.3751  -43.8860 N.am      6 UNK        -0.5000 
     45 C          -0.5410  -13.4457  -43.0158 C.2       5 UNK         0.5000 
     46 O          -1.6159  -13.4761  -42.4158 O.2       5 UNK        -0.5000 
     47 CA          0.4882  -12.3268  -42.7498 C.3       5 UNK         0.1400 
     48 CB          0.0222  -11.3043  -41.6927 C.3       5 UNK        -0.1800 
     49 N           1.8095  -12.8764  -42.4105 N.am      5 UNK        -0.5000 
     50 C           2.0840  -13.6974  -41.3858 C.2       4 UNK         0.5000 
     51 O           1.2411  -14.0618  -40.5663 O.2       4 UNK        -0.5000 
     52 CA          3.5380  -14.1983  -41.2602 C.3       4 UNK         0.1400 
     53 CB          3.6727  -15.3679  -40.2620 C.3       4 UNK        -0.1800 
     54 N           4.1772  -14.5480  -42.5358 N.am      4 UNK        -0.5000 
     55 C           3.7796  -15.4711  -43.4232 C.2       3 UNK         0.5000 
     56 O           2.7176  -16.0969  -43.3531 O.2       3 UNK        -0.5000 
     57 CA          4.7948  -15.7923  -44.5370 C.3       3 UNK         0.1400 
     58 CB          5.7442  -16.9090  -44.0776 C.3       3 UNK        -0.1800 
     59 N           4.1209  -16.2463  -45.7512 N.am      3 UNK        -0.5000 
     60 C           3.7618  -15.5315  -46.8252 C.2       2 UNK         0.5000 
     61 O           3.1645  -16.0600  -47.7631 O.2       2 UNK        -0.5000 
     62 CA          4.1192  -14.0310  -46.9358 C.3       2 UNK         0.1400 
     63 CB          5.3695  -13.8347  -47.8059 C.3       2 UNK        -0.1800 
     64 N           3.0046  -13.2874  -47.5186 N.am      2 UNK        -0.5000 
     65 C           1.8855  -13.0095  -46.8420 C.2       1 UNK         0.5000 
     66 O           1.7464  -13.2684  -45.6439 O.2       1 UNK        -0.5000 
     67 C          -3.7046  -20.9867  -45.4765 C.2       11 UNK         0.5000 
     68 O          -4.8320  -21.4653  -45.3519 O.2       11 UNK        -0.5000 
     69 N          -2.7455  -21.0856  -44.5467 N.am      12 UNK        -0.5000 
     70 CA         -2.9019  -21.8126  -43.2898 C.3       12 UNK         0.1400 
     71 CB         -1.8456  -21.3161  -42.2926 C.3       12 UNK        -0.1800 
     72 C          -2.7985  -23.3362  -43.4832 C.2       12 UNK         0.5000 
     73 O          -3.4388  -24.0832  -42.7426 O.2       12 UNK        -0.5000 
     74 N          -1.9941  -23.7680  -44.4647 N.am      13 UNK        -0.5000 
     75 CA         -1.7500  -25.1759  -44.7700 C.3       13 UNK         0.1400 
     76 CB         -0.4616  -25.3111  -45.5967 C.3       13 UNK        -0.1800 
     77 C          -2.9331  -25.8445  -45.4919 C.2       13 UNK         0.5000 
     78 O          -3.3892  -26.8993  -45.0481 O.2       13 UNK        -0.5000 
     79 N          -3.3938  -25.2407  -46.5960 N.am      14 UNK        -0.5000 
     80 CA         -4.3873  -25.8237  -47.4985 C.3       14 UNK         0.1400 
     81 CB         -3.7522  -26.9566  -48.3346 C.3       14 UNK        -0.1800 
     82 C          -5.0630  -24.7444  -48.3622 C.2       14 UNK         0.5000 
     83 O          -5.1931  -24.9150  -49.5746 O.2       14 UNK        -0.5000 
     84 N          -5.4804  -23.6408  -47.7242 N.am      15 UNK        -0.5000 
     85 CA         -6.3179  -22.5593  -48.2703 C.3       15 UNK         0.1400 
     86 CB         -7.7167  -23.1024  -48.6311 C.3       15 UNK        -0.1800 
     87 C          -5.7114  -21.7512  -49.4402 C.2       15 UNK         0.5000 
     88 O          -6.4163  -20.9229  -50.0181 O.2       15 UNK        -0.5000 
     89 N          -4.4301  -21.9876  -49.7598 N.am      16 UNK        -0.5000 
     90 CA         -3.5895  -21.3767  -50.7971 C.3       16 UNK         0.1400 
     91 CB         -3.3605  -19.8804  -50.5330 C.3       16 UNK        -0.1800 
     92 C          -4.0636  -21.6180  -52.2422 C.2       16 UNK         0.5000 
     93 O          -3.2599  -22.0311  -53.0770 O.2       16 UNK        -0.5000 
     94 N          -5.3490  -21.3827  -52.5206 N.am      17 UNK        -0.5000 
     95 CA         -5.9797  -21.5878  -53.8219 C.3       17 UNK         0.1400 
     96 CB         -7.3658  -20.9275  -53.8273 C.3       17 UNK        -0.1800 
     97 C          -6.0726  -23.0790  -54.1836 C.2       17 UNK         0.5000 
     98 O          -5.7407  -23.4529  -55.3081 O.2       17 UNK        -0.5000 
     99 N          -6.4618  -23.9111  -53.2061 N.am      18 UNK        -0.5000 
    100 CA        -6.5050  -25.3709  -53.3351 C.3       18 UNK         0.1400 
    101 CB        -7.3747  -25.9603  -52.2148 C.3       18 UNK        -0.1800 
    102 C         -5.1000  -26.0063  -53.3475 C.2       18 UNK         0.5000 
    103 O         -4.9174  -27.0642  -53.9503 O.2       18 UNK        -0.5000 
    104 N         -4.1261  -25.3277  -52.7245 N.am      19 UNK        -0.5000 
    105 CA        -2.7018  -25.6671  -52.7672 C.3       19 UNK         0.1400 
    106 CB        -1.9941  -24.9786  -51.5878 C.3       19 UNK        -0.1800 
    107 C         -2.0257  -25.2671  -54.0973 C.2       19 UNK         0.5000 
    108 O         -0.8941  -25.6869  -54.3411 O.2       19 UNK        -0.5000 
    109 N         -2.7141  -24.4508  -54.9120 N.am      20 UNK        -0.5000 
    110 CA        -2.2661  -23.8371  -56.1666 C.3       20 UNK         0.1400 
    111 CB        -1.9898  -24.9083  -57.2422 C.3       20 UNK        -0.1800 
    112 C         -1.0940  -22.8498  -55.9731 C.2       20 UNK         0.5000 
    113 O         -0.2595  -22.6968  -56.8672 O.2       20 UNK        -0.5000 
    114 N         -1.0544  -22.1925  -54.8068 N.am      21 UNK        -0.5000 
    115 CA        -0.0600  -21.1834  -54.4489 C.3       21 UNK         0.1400 
    116 CB         0.0802  -21.1405  -52.9193 C.3       21 UNK        -0.1800 
    117 C         -0.4281  -19.7929  -54.9956 C.2       21 UNK         0.5000 
    118 O          0.4705  -19.0112  -55.3098 O.2       21 UNK        -0.5000 
    119 N         -1.7331  -19.5065  -55.0927 N.am      22 UNK        -0.5000 
    120 CA        -2.2755  -18.2496  -55.6309 C.3       22 UNK         0.1400 
    121 C         -2.0862  -18.1389  -57.1686 C.2       22 UNK         0.5000 
    122 N         -1.7662  -16.9576  -57.6790 N.am      22 UNK        -0.7600 
    123 O         -2.2715  -19.1039  -57.9071 O.2       22 UNK        -0.5000 
    124 C124       -3.7667  -18.0462  -55.2569 C.3       23 UNK        -0.0398 
    125 S125       -4.0589  -18.1261  -53.4600 S.3       23 UNK        -0.2404 
    126 C126       -3.7750  -16.4052  -52.9464 C.3       23 UNK        -0.0205 
    127 H127       -1.4515  -10.1734  -45.0775 H         1 UNK         0.0600 
    128 H128       -0.9177   -8.6395  -45.7729 H         1 UNK         0.0600 
    129 H129       -0.0525   -9.3376  -44.4002 H         1 UNK         0.0600 
    130 H130       -0.9560  -11.8418  -46.4665 H         1 UNK         0.3000 
    131 H131        1.1551  -11.7362  -48.4165 H         1 UNK         0.0600 
    132 H132       -0.4124  -14.2303  -47.5883 H         1 UNK         0.0800 
    133 H133       -1.1393  -12.9902  -48.5710 H         1 UNK         0.0800 
    134 H134        0.3566  -16.2531  -48.7217 H         1 UNK         0.0800 
    135 H135        0.6503  -16.4370  -50.4297 H         1 UNK         0.0800 
    136 H136       -1.2046  -16.0882  -52.0957 H         1 UNK         0.1150 
    137 H137       -5.2019  -16.5740  -50.6220 H         1 UNK         0.1150 
    138 H138       -1.9422  -16.0997  -47.8769 H         1 UNK         0.1150 
    139 H139       -4.2585  -15.9236  -47.0829 H         1 UNK         0.0800 
    140 H140       -5.5768  -15.9483  -48.2175 H         1 UNK         0.0800 
    141 H141       -3.5038  -18.3841  -45.6478 H         1 UNK         0.0800 
    142 H142       -2.6698  -18.2249  -47.1581 H         1 UNK         0.0800 
    143 H143       -3.9986  -20.6503  -47.5423 H         1 UNK         0.0600 
    144 H144       -1.2816  -19.9065  -47.2267 H         1 UNK         0.3000 
    145 H145        0.2500  -22.9890  -47.5086 H         1 UNK         0.0600 
    146 H146        1.1711  -22.2711  -49.7066 H         1 UNK         0.0600 
    147 H147       -0.4573  -22.8943  -49.8969 H         1 UNK         0.0600 
    148 H148       -0.1778  -21.1560  -49.9273 H         1 UNK         0.0600 
    149 H149        1.2854  -20.4257  -48.0389 H         1 UNK         0.3000 
    150 H150        2.7078  -19.5340  -46.1605 H         1 UNK         0.0600 
    151 H151        1.1264  -18.2113  -47.4611 H         1 UNK         0.0600 
    152 H152        1.4799  -17.2798  -46.0210 H         1 UNK         0.0600 
    153 H153       -0.0385  -18.1612  -46.1432 H         1 UNK         0.0600 
    154 H154        0.9729  -18.7903  -43.8709 H         1 UNK         0.3000 
    155 H155        2.3338  -20.3521  -41.5464 H         1 UNK         0.0600 
    156 H156        4.2744  -17.9924  -41.7627 H         1 UNK         0.0600 
    157 H157        4.7290  -19.6750  -41.5221 H         1 UNK         0.0600 
    158 H158        3.8272  -18.8249  -40.2793 H         1 UNK         0.0600 
    159 H159        1.7073  -17.5016  -42.2248 H         1 UNK         0.3000 
    160 H160       -1.5225  -17.8904  -40.9466 H         1 UNK         0.0600 
    161 H161        0.6016  -16.3020  -39.4239 H         1 UNK         0.0600 
    162 H162       -0.6339  -17.3442  -38.7404 H         1 UNK         0.0600 
    163 H163       -1.0995  -15.8425  -39.5261 H         1 UNK         0.0600 
    164 H164       -0.1542  -15.5380  -41.7899 H         1 UNK         0.3000 
    165 H165       -0.1694  -15.9646  -45.1454 H         1 UNK         0.0600 
    166 H166       -2.8920  -15.0129  -44.1371 H         1 UNK         0.0600 
    167 H167       -2.1498  -14.5471  -45.6684 H         1 UNK         0.0600 
    168 H168       -2.5933  -16.2194  -45.3726 H         1 UNK         0.0600 
    169 H169        0.7705  -14.2023  -44.3263 H         1 UNK         0.3000 
    170 H170        0.6100  -11.7889  -43.6892 H         1 UNK         0.0600 
    171 H171       -0.9074  -10.8244  -42.0008 H         1 UNK         0.0600 
    172 H172       -0.1575  -11.7707  -40.7237 H         1 UNK         0.0600 
    173 H173        0.7629  -10.5170  -41.5539 H         1 UNK         0.0600 
    174 H174        2.5510  -12.6689  -43.0648 H         1 UNK         0.3000 
    175 H175        4.1070  -13.3598  -40.8563 H         1 UNK         0.0600 
    176 H176        3.0505  -16.2148  -40.5497 H         1 UNK         0.0600 
    177 H177        4.7034  -15.7154  -40.1924 H         1 UNK         0.0600 
    178 H178        3.3650  -15.0655  -39.2604 H         1 UNK         0.0600 
    179 H179        5.0634  -14.0898  -42.6976 H         1 UNK         0.3000 
    180 H180        5.4143  -14.9168  -44.7293 H         1 UNK         0.0600 
    181 H181        5.2203  -17.8541  -43.9360 H         1 UNK         0.0600 
    182 H182        6.2299  -16.6556  -43.1342 H         1 UNK         0.0600 
    183 H183        6.5327  -17.0774  -44.8114 H         1 UNK         0.0600 
    184 H184        3.8196  -17.2075  -45.7170 H         1 UNK         0.3000 
    185 H185        4.3094  -13.5941  -45.9565 H         1 UNK         0.0600 
    186 H186        5.2241  -14.2250  -48.8142 H         1 UNK         0.0600 
    187 H187        5.6318  -12.7798  -47.8887 H         1 UNK         0.0600 
    188 H188        6.2282  -14.3507  -47.3747 H         1 UNK         0.0600 
    189 H189        3.0414  -13.1162  -48.5130 H         1 UNK         0.3000 
    190 H190       -1.8265  -20.7052  -44.7338 H         1 UNK         0.3000 
    191 H191       -3.8883  -21.5932  -42.8752 H         1 UNK         0.0600 
    192 H192       -1.9455  -21.8199  -41.3305 H         1 UNK         0.0600 
    193 H193       -1.9524  -20.2466  -42.1117 H         1 UNK         0.0600 
    194 H194       -0.8314  -21.4934  -42.6527 H         1 UNK         0.0600 
    195 H195       -1.4918  -23.0825  -45.0103 H         1 UNK         0.3000 
    196 H196       -1.5916  -25.7026  -43.8263 H         1 UNK         0.0600 
    197 H197       -0.5781  -24.8997  -46.5984 H         1 UNK         0.0600 
    198 H198        0.3758  -24.8042  -45.1166 H         1 UNK         0.0600 
    199 H199       -0.1858  -26.3602  -45.7104 H         1 UNK         0.0600 
    200 H200       -2.9761  -24.3634  -46.9032 H         1 UNK         0.3000 
    201 H201       -5.1886  -26.2591  -46.8981 H         1 UNK         0.0600 
    202 H202       -2.8859  -26.6035  -48.8926 H         1 UNK         0.0600 
    203 H203       -4.4631  -27.3710  -49.0506 H         1 UNK         0.0600 
    204 H204       -3.4239  -27.7813  -47.7024 H         1 UNK         0.0600 
    205 H205       -5.2722  -23.5592  -46.7376 H         1 UNK         0.3000 
    206 H206       -6.4492  -21.8430  -47.4588 H         1 UNK         0.0600 
    207 H207       -8.1604  -23.6375  -47.7916 H         1 UNK         0.0600 
    208 H208       -8.3994  -22.2928  -48.8917 H         1 UNK         0.0600 
    209 H209       -7.6805  -23.7837  -49.4818 H         1 UNK         0.0600 
    210 H210       -3.9641  -22.6980  -49.2085 H         1 UNK         0.3000 
    211 H211       -2.6204  -21.8665  -50.7065 H         1 UNK         0.0600 
    212 H212       -2.6690  -19.4581  -51.2622 H         1 UNK         0.0600 
    213 H213       -2.9246  -19.7006  -49.5545 H         1 UNK         0.0600 
    214 H214       -4.2889  -19.3125  -50.5907 H         1 UNK         0.0600 
    215 H215       -5.9365  -21.0549  -51.7565 H         1 UNK         0.3000 
    216 H216       -5.3646  -21.0960  -54.5785 H         1 UNK         0.0600 
    217 H217       -8.0177  -21.3490  -53.0612 H         1 UNK         0.0600 
    218 H218       -7.8586  -21.0606  -54.7912 H         1 UNK         0.0600 
    219 H219       -7.2879  -19.8550  -53.6471 H         1 UNK         0.0600 
    220 H220       -6.7006  -23.5250  -52.3046 H         1 UNK         0.3000 
    221 H221       -6.9793  -25.6150  -54.2881 H         1 UNK         0.0600 
    222 H222       -8.3927  -25.5737  -52.2622 H         1 UNK         0.0600 
    223 H223       -6.9764  -25.7313  -51.2277 H         1 UNK         0.0600 
    224 H224       -7.4356  -27.0460  -52.2988 H         1 UNK         0.0600 
    225 H225       -4.3767  -24.4911  -52.2192 H         1 UNK         0.3000 
    226 H226       -2.5989  -26.7475  -52.6473 H         1 UNK         0.0600 
    227 H227       -1.9135  -23.9033  -51.7392 H         1 UNK         0.0600 
    228 H228       -2.5213  -25.1442  -50.6495 H         1 UNK         0.0600 
    229 H229       -0.9808  -25.3630  -51.4663 H         1 UNK         0.0600 
    230 H230       -3.6313  -24.1577  -54.6034 H         1 UNK         0.3000 
    231 H231       -3.1048  -23.2341  -56.5172 H         1 UNK         0.0600 
    232 H232       -1.1111  -25.5077  -57.0033 H         1 UNK         0.0600 
    233 H233       -1.8153  -24.4483  -58.2154 H         1 UNK         0.0600 
    234 H234       -2.8382  -25.5839  -57.3518 H         1 UNK         0.0600 
    235 H235       -1.8107  -22.3372  -54.1408 H         1 UNK         0.3000 
    236 H236        0.9066  -21.4680  -54.8700 H         1 UNK         0.0600 
    237 H237        0.3528  -22.1182  -52.5216 H         1 UNK         0.0600 
    238 H238        0.8574  -20.4372  -52.6181 H         1 UNK         0.0600 
    239 H239       -0.8469  -20.8288  -52.4380 H         1 UNK         0.0600 
    240 H240       -2.4053  -20.2044  -54.8109 H         1 UNK         0.3000 
    241 H241       -1.7101  -17.4375  -55.1692 H         1 UNK         0.0600 
    242 H242       -1.6566  -16.8704  -58.6777 H         1 UNK         0.3800 
    243 H243       -1.6144  -16.1495  -57.0950 H         1 UNK         0.3800 
    244 H244       -4.3837  -18.8125  -55.7293 H         1 UNK         0.0800 
    245 H245       -4.1338  -17.0885  -55.6304 H         1 UNK         0.0800 
    246 H246       -4.7052  -15.8430  -53.0383 H         1 UNK         0.0800 
    247 H247       -3.0602  -15.9295  -53.6194 H         1 UNK         0.0800 
@<TRIPOS>BOND
     1    1    2 1    
     2    1  127 1    
     3    1  128 1    
     4    1  129 1    
     5    2    3 2    
     6    2    4 am   BACKBONE|DICT|INTERRES
     7    4    5 1    
     8    4  130 1    
     9    5    6 1    
    10    5   65 1    
    11    5  131 1    
    12    6    7 1    
    13    6  132 1    
    14    6  133 1    
    15    7    8 1    
    16    8    9 1    
    17    8  134 1    
    18    8  135 1    
    19    9   10 ar   
    20    9   14 ar   
    21   10   11 ar   
    22   10  136 1    
    23   11   12 ar   
    24   11  126 1    
    25   12   13 ar   
    26   12  137 1    
    27   13   14 ar   
    28   13   15 1    
    29   14  138 1    
    30   15   16 1    
    31   15  139 1    
    32   15  140 1    
    33   16   17 1    
    34   17   18 1    
    35   17  141 1    
    36   17  142 1    
    37   18   19 1    
    38   18   67 1    
    39   18  143 1    
    40   19   20 am   BACKBONE|DICT|INTERRES
    41   19  144 1    
    42   20   21 2    
    43   20   22 1    
    44   22   23 1    
    45   22   24 1    
    46   22  145 1    
    47   23  146 1    
    48   23  147 1    
    49   23  148 1    
    50   24   25 am   BACKBONE|DICT|INTERRES
    51   24  149 1    
    52   25   26 2    
    53   25   27 1    
    54   27   28 1    
    55   27   29 1    
    56   27  150 1    
    57   28  151 1    
    58   28  152 1    
    59   28  153 1    
    60   29   30 am   BACKBONE|DICT|INTERRES
    61   29  154 1    
    62   30   31 2    
    63   30   32 1    
    64   32   33 1    
    65   32   34 1    
    66   32  155 1    
    67   33  156 1    
    68   33  157 1    
    69   33  158 1    
    70   34   35 am   BACKBONE|DICT|INTERRES
    71   34  159 1    
    72   35   36 2    
    73   35   37 1    
    74   37   38 1    
    75   37   39 1    
    76   37  160 1    
    77   38  161 1    
    78   38  162 1    
    79   38  163 1    
    80   39   40 am   BACKBONE|DICT|INTERRES
    81   39  164 1    
    82   40   41 2    
    83   40   42 1    
    84   42   43 1    
    85   42   44 1    
    86   42  165 1    
    87   43  166 1    
    88   43  167 1    
    89   43  168 1    
    90   44   45 am   BACKBONE|DICT|INTERRES
    91   44  169 1    
    92   45   46 2    
    93   45   47 1    
    94   47   48 1    
    95   47   49 1    
    96   47  170 1    
    97   48  171 1    
    98   48  172 1    
    99   48  173 1    
   100   49   50 am   BACKBONE|DICT|INTERRES
   101   49  174 1    
   102   50   51 2    
   103   50   52 1    
   104   52   53 1    
   105   52   54 1    
   106   52  175 1    
   107   53  176 1    
   108   53  177 1    
   109   53  178 1    
   110   54   55 am   BACKBONE|DICT|INTERRES
   111   54  179 1    
   112   55   56 2    
   113   55   57 1    
   114   57   58 1    
   115   57   59 1    
   116   57  180 1    
   117   58  181 1    
   118   58  182 1    
   119   58  183 1    
   120   59   60 am   BACKBONE|DICT|INTERRES
   121   59  184 1    
   122   60   61 2    
   123   60   62 1    
   124   62   63 1    
   125   62   64 1    
   126   62  185 1    
   127   63  186 1    
   128   63  187 1    
   129   63  188 1    
   130   64   65 am   BACKBONE|DICT|INTERRES
   131   64  189 1    
   132   65   66 2    
   133   67   68 2    
   134   67   69 am   BACKBONE|DICT|INTERRES
   135   69   70 1    
   136   69  190 1    
   137   70   71 1    
   138   70   72 1    
   139   70  191 1    
   140   71  192 1    
   141   71  193 1    
   142   71  194 1    
   143   72   73 2    
   144   72   74 am   BACKBONE|DICT|INTERRES
   145   74   75 1    
   146   74  195 1    
   147   75   76 1    
   148   75   77 1    
   149   75  196 1    
   150   76  197 1    
   151   76  198 1    
   152   76  199 1    
   153   77   78 2    
   154   77   79 am   BACKBONE|DICT|INTERRES
   155   79   80 1    
   156   79  200 1    
   157   80   81 1    
   158   80   82 1    
   159   80  201 1    
   160   81  202 1    
   161   81  203 1    
   162   81  204 1    
   163   82   83 2    
   164   82   84 am   BACKBONE|DICT|INTERRES
   165   84   85 1    
   166   84  205 1    
   167   85   86 1    
   168   85   87 1    
   169   85  206 1    
   170   86  207 1    
   171   86  208 1    
   172   86  209 1    
   173   87   88 2    
   174   87   89 am   BACKBONE|DICT|INTERRES
   175   89   90 1    
   176   89  210 1    
   177   90   91 1    
   178   90   92 1    
   179   90  211 1    
   180   91  212 1    
   181   91  213 1    
   182   91  214 1    
   183   92   93 2    
   184   92   94 am   BACKBONE|DICT|INTERRES
   185   94   95 1    
   186   94  215 1    
   187   95   96 1    
   188   95   97 1    
   189   95  216 1    
   190   96  217 1    
   191   96  218 1    
   192   96  219 1    
   193   97   98 2    
   194   97   99 am   BACKBONE|DICT|INTERRES
   195   99  100 1    
   196   99  220 1    
   197  100  101 1    
   198  100  102 1    
   199  100  221 1    
   200  101  222 1    
   201  101  223 1    
   202  101  224 1    
   203  102  103 2    
   204  102  104 am   BACKBONE|DICT|INTERRES
   205  104  105 1    
   206  104  225 1    
   207  105  106 1    
   208  105  107 1    
   209  105  226 1    
   210  106  227 1    
   211  106  228 1    
   212  106  229 1    
   213  107  108 2    
   214  107  109 am   BACKBONE|DICT|INTERRES
   215  109  110 1    
   216  109  230 1    
   217  110  111 1    
   218  110  112 1    
   219  110  231 1    
   220  111  232 1    
   221  111  233 1    
   222  111  234 1    
   223  112  113 2    
   224  112  114 am   BACKBONE|DICT|INTERRES
   225  114  115 1    
   226  114  235 1    
   227  115  116 1    
   228  115  117 1    
   229  115  236 1    
   230  116  237 1    
   231  116  238 1    
   232  116  239 1    
   233  117  118 2    
   234  117  119 am   BACKBONE|DICT|INTERRES
   235  119  120 1    
   236  119  240 1    
   237  120  121 1    
   238  120  124 1    
   239  120  241 1    
   240  121  122 am   BACKBONE|DICT|INTERRES
   241  121  123 2    
   242  122  242 1    
   243  122  243 1    
   244  124  125 1    
   245  124  244 1    
   246  124  245 1    
   247  125  126 1    
   248  126  246 1    
   249  126  247 1    
@<TRIPOS>SUBSTRUCTURE
     1 UNK         1 GROUP             0       ****    0 ROOT    
