@<TRIPOS>MOLECULE
3R540
247   249    1
SMALL
USER_CHARGES


@<TRIPOS>ATOM
      1 CA          6.4379  -13.6962  -45.7946 C.3       0 UNK        -0.1800 
      2 C           4.9480  -13.8337  -46.0679 C.2       0 UNK         0.5000 
      3 O           4.1423  -13.6696  -45.1513 O.2       0 UNK        -0.5000 
      4 N           4.5726  -14.1058  -47.3257 N.am      1 UNK        -0.5000 
      5 CA          3.1991  -14.3260  -47.8092 C.3       1 UNK         0.1400 
      6 C6          3.2019  -15.1255  -49.1441 C.3       23 UNK        -0.0398 
      7 S7          1.8406  -16.3335  -49.2518 S.3       23 UNK        -0.2404 
      8 C8          0.7315  -15.5616  -50.4657 C.3       23 UNK        -0.0205 
      9 C9         -0.4446  -16.4714  -50.7874 C.ar      23 UNK        -0.0193 
     10 C10        -0.5025  -17.1536  -52.0054 C.ar      23 UNK        -0.1150 
     11 C11        -1.6022  -17.9583  -52.3191 C.ar      23 UNK        -0.0193 
     12 C12        -2.6381  -18.0938  -51.3871 C.ar      23 UNK        -0.1150 
     13 C13        -2.5897  -17.4320  -50.1555 C.ar      23 UNK        -0.0193 
     14 C14        -1.4910  -16.6106  -49.8723 C.ar      23 UNK        -0.1150 
     15 C15        -3.7638  -17.5617  -49.1845 C.3       23 UNK        -0.0205 
     16 S16        -3.2914  -17.4597  -47.4221 S.3       23 UNK        -0.2404 
     17 C17        -3.5755  -19.1540  -46.8152 C.3       23 UNK        -0.0398 
     18 CA         -2.4573  -20.1619  -47.1756 C.3       11 UNK         0.1400 
     19 N          -1.1355  -19.8074  -46.6390 N.am      11 UNK        -0.5000 
     20 C          -0.0025  -20.4592  -46.9458 C.2       10 UNK         0.5000 
     21 O           0.0464  -21.3904  -47.7470 O.2       10 UNK        -0.5000 
     22 CA          1.2817  -20.0692  -46.1921 C.3       10 UNK         0.1400 
     23 CB          1.9250  -18.8124  -46.7876 C.3       10 UNK        -0.1800 
     24 N           1.0628  -19.8924  -44.7587 N.am      10 UNK        -0.5000 
     25 C           0.7146  -20.8817  -43.9247 C.2       9 UNK         0.5000 
     26 O           0.5883  -22.0550  -44.2749 O.2       9 UNK        -0.5000 
     27 CA          0.4135  -20.4918  -42.4662 C.3       9 UNK         0.1400 
     28 CB          1.7099  -20.3805  -41.6504 C.3       9 UNK        -0.1800 
     29 N          -0.3388  -19.2420  -42.3628 N.am      9 UNK        -0.5000 
     30 C          -1.5726  -19.0522  -42.8514 C.2       8 UNK         0.5000 
     31 O          -2.2401  -19.9334  -43.3937 O.2       8 UNK        -0.5000 
     32 CA         -2.1279  -17.6190  -42.7762 C.3       8 UNK         0.1400 
     33 CB         -2.6690  -17.3061  -41.3730 C.3       8 UNK        -0.1800 
     34 N          -1.1341  -16.6146  -43.1610 N.am      8 UNK        -0.5000 
     35 C          -0.5924  -16.5225  -44.3841 C.2       7 UNK         0.5000 
     36 O          -0.8710  -17.2784  -45.3105 O.2       7 UNK        -0.5000 
     37 CA          0.4755  -15.4374  -44.5942 C.3       7 UNK         0.1400 
     38 CB         -0.1843  -14.0684  -44.8071 C.3       7 UNK        -0.1800 
     39 N           1.4227  -15.3671  -43.4822 N.am      7 UNK        -0.5000 
     40 C           2.2581  -16.3610  -43.1455 C.2       6 UNK         0.5000 
     41 O           2.3428  -17.4221  -43.7635 O.2       6 UNK        -0.5000 
     42 CA          3.0951  -16.1663  -41.8700 C.3       6 UNK         0.1400 
     43 CB          4.3002  -15.2558  -42.1403 C.3       6 UNK        -0.1800 
     44 N           2.3162  -15.6235  -40.7573 N.am      6 UNK        -0.5000 
     45 C           1.2565  -16.2081  -40.1854 C.2       5 UNK         0.5000 
     46 O           0.8145  -17.3013  -40.5378 O.2       5 UNK        -0.5000 
     47 CA          0.5377  -15.4380  -39.0581 C.3       5 UNK         0.1400 
     48 CB          1.2075  -15.6888  -37.6938 C.3       5 UNK        -0.1800 
     49 N           0.3581  -14.0032  -39.3269 N.am      5 UNK        -0.5000 
     50 C           1.2888  -13.0437  -39.4170 C.2       4 UNK         0.5000 
     51 O           2.4915  -13.2196  -39.2066 O.2       4 UNK        -0.5000 
     52 CA          0.7893  -11.6560  -39.8594 C.3       4 UNK         0.1400 
     53 CB          0.6625  -10.7168  -38.6506 C.3       4 UNK        -0.1800 
     54 N           1.6697  -11.0419  -40.8559 N.am      4 UNK        -0.5000 
     55 C           1.9820  -11.5742  -42.0452 C.2       3 UNK         0.5000 
     56 O           1.5510  -12.6582  -42.4489 O.2       3 UNK        -0.5000 
     57 CA          2.9621  -10.7616  -42.9103 C.3       3 UNK         0.1400 
     58 CB          4.4181  -11.0676  -42.5253 C.3       3 UNK        -0.1800 
     59 N           2.7861  -11.0400  -44.3341 N.am      3 UNK        -0.5000 
     60 C           1.7900  -10.5462  -45.0859 C.2       2 UNK         0.5000 
     61 O           0.9365   -9.7700  -44.6543 O.2       2 UNK        -0.5000 
     62 CA          1.7319  -10.9701  -46.5650 C.3       2 UNK         0.1400 
     63 CB          2.3729   -9.8824  -47.4498 C.3       2 UNK        -0.1800 
     64 N           2.3863  -12.2605  -46.7730 N.am      2 UNK        -0.5000 
     65 C           2.3723  -13.0140  -47.8750 C.2       1 UNK         0.5000 
     66 O           1.7681  -12.6987  -48.9008 O.2       1 UNK        -0.5000 
     67 C          -2.8882  -21.5826  -46.7512 C.2       11 UNK         0.5000 
     68 O          -3.4466  -22.3108  -47.5705 O.2       11 UNK        -0.5000 
     69 N          -2.6067  -21.9602  -45.4946 N.am      12 UNK        -0.5000 
     70 CA         -2.8718  -23.2951  -44.9553 C.3       12 UNK         0.1400 
     71 CB         -2.6625  -23.2953  -43.4338 C.3       12 UNK        -0.1800 
     72 C          -2.0247  -24.3894  -45.6306 C.2       12 UNK         0.5000 
     73 O          -2.5496  -25.4628  -45.9232 O.2       12 UNK        -0.5000 
     74 N          -0.7465  -24.0943  -45.9052 N.am      13 UNK        -0.5000 
     75 CA          0.1530  -24.9615  -46.6701 C.3       13 UNK         0.1400 
     76 CB          1.5924  -24.4382  -46.5536 C.3       13 UNK        -0.1800 
     77 C          -0.2692  -25.0859  -48.1473 C.2       13 UNK         0.5000 
     78 O          -0.2082  -26.1778  -48.7140 O.2       13 UNK        -0.5000 
     79 N          -0.7319  -23.9724  -48.7306 N.am      14 UNK        -0.5000 
     80 CA         -1.2268  -23.8708  -50.1033 C.3       14 UNK         0.1400 
     81 CB         -1.2852  -22.3943  -50.5125 C.3       14 UNK        -0.1800 
     82 C          -2.5906  -24.5447  -50.3470 C.2       14 UNK         0.5000 
     83 O          -3.0197  -24.6087  -51.4997 O.2       14 UNK        -0.5000 
     84 N          -3.2462  -25.0639  -49.2979 N.am      15 UNK        -0.5000 
     85 CA         -4.5161  -25.7949  -49.3712 C.3       15 UNK         0.1400 
     86 CB         -4.9940  -26.1370  -47.9544 C.3       15 UNK        -0.1800 
     87 C          -4.4593  -27.0641  -50.2469 C.2       15 UNK         0.5000 
     88 O          -5.4921  -27.4790  -50.7718 O.2       15 UNK        -0.5000 
     89 N          -3.2541  -27.6147  -50.4564 N.am      16 UNK        -0.5000 
     90 CA         -2.9661  -28.6741  -51.4283 C.3       16 UNK         0.1400 
     91 CB         -1.5141  -29.1374  -51.2378 C.3       16 UNK        -0.1800 
     92 C          -3.2090  -28.2497  -52.8950 C.2       16 UNK         0.5000 
     93 O          -3.4878  -29.1072  -53.7331 O.2       16 UNK        -0.5000 
     94 N          -3.1295  -26.9402  -53.1687 N.am      17 UNK        -0.5000 
     95 CA         -3.4617  -26.2986  -54.4420 C.3       17 UNK         0.1400 
     96 CB         -2.3043  -25.3614  -54.8331 C.3       17 UNK        -0.1800 
     97 C          -4.7994  -25.5315  -54.3458 C.2       17 UNK         0.5000 
     98 O          -5.0588  -24.6615  -55.1769 O.2       17 UNK        -0.5000 
     99 N          -5.6092  -25.8495  -53.3220 N.am      18 UNK        -0.5000 
    100 CA        -6.9009  -25.2566  -52.9511 C.3       18 UNK         0.1400 
    101 CB        -7.9264  -25.3859  -54.0968 C.3       18 UNK        -0.1800 
    102 C         -6.8179  -23.8158  -52.4006 C.2       18 UNK         0.5000 
    103 O         -7.8648  -23.2131  -52.1566 O.2       18 UNK        -0.5000 
    104 N         -5.5968  -23.3022  -52.1823 N.am      19 UNK        -0.5000 
    105 CA        -5.2655  -21.9441  -51.7389 C.3       19 UNK         0.1400 
    106 CB        -5.6162  -21.7686  -50.2456 C.3       19 UNK        -0.1800 
    107 C         -5.8674  -20.8556  -52.6589 C.2       19 UNK         0.5000 
    108 O         -6.0297  -21.0989  -53.8570 O.2       19 UNK        -0.5000 
    109 N         -6.1749  -19.6769  -52.0962 N.am      20 UNK        -0.5000 
    110 CA        -6.7535  -18.5004  -52.7561 C.3       20 UNK         0.1400 
    111 CB        -8.2190  -18.7708  -53.1635 C.3       20 UNK        -0.1800 
    112 C         -5.8747  -17.9898  -53.9170 C.2       20 UNK         0.5000 
    113 O         -4.9220  -17.2526  -53.6681 O.2       20 UNK        -0.5000 
    114 N         -6.2002  -18.3906  -55.1522 N.am      21 UNK        -0.5000 
    115 CA        -5.4168  -18.1057  -56.3549 C.3       21 UNK         0.1400 
    116 CB        -6.3485  -18.1710  -57.5753 C.3       21 UNK        -0.1800 
    117 C         -4.2231  -19.0657  -56.5390 C.2       21 UNK         0.5000 
    118 O         -3.2955  -18.7279  -57.2750 O.2       21 UNK        -0.5000 
    119 N         -4.2675  -20.2361  -55.8855 N.am      22 UNK        -0.5000 
    120 CA        -3.2666  -21.3182  -55.9384 C.3       22 UNK         0.1400 
    121 C         -3.1340  -22.0130  -57.3300 C.2       22 UNK         0.5000 
    122 N         -4.1203  -21.9143  -58.2134 N.am      22 UNK        -0.7600 
    123 O         -2.1363  -22.6708  -57.6136 O.2       22 UNK        -0.5000 
    124 C124       -1.8921  -20.9095  -55.3367 C.3       23 UNK        -0.0398 
    125 S125       -2.0042  -20.4141  -53.5835 S.3       23 UNK        -0.2404 
    126 C126       -1.6889  -18.6256  -53.6879 C.3       23 UNK        -0.0205 
    127 H127        6.6577  -12.6990  -45.4135 H         1 UNK         0.0600 
    128 H128        7.0326  -13.8575  -46.6939 H         1 UNK         0.0600 
    129 H129        6.7479  -14.4243  -45.0451 H         1 UNK         0.0600 
    130 H130        5.2901  -14.1771  -48.0331 H         1 UNK         0.3000 
    131 H131        2.7142  -14.9465  -47.0529 H         1 UNK         0.0600 
    132 H132        3.2187  -14.4766  -50.0213 H         1 UNK         0.0800 
    133 H133        4.1142  -15.7190  -49.2187 H         1 UNK         0.0800 
    134 H134        1.2914  -15.3244  -51.3716 H         1 UNK         0.0800 
    135 H135        0.3590  -14.6153  -50.0723 H         1 UNK         0.0800 
    136 H136        0.2999  -17.0374  -52.7203 H         1 UNK         0.1150 
    137 H137       -3.4954  -18.7013  -51.6377 H         1 UNK         0.1150 
    138 H138       -1.4429  -16.0685  -48.9388 H         1 UNK         0.1150 
    139 H139       -4.4675  -16.7562  -49.3971 H         1 UNK         0.0800 
    140 H140       -4.3012  -18.4928  -49.3660 H         1 UNK         0.0800 
    141 H141       -4.5405  -19.4917  -47.1984 H         1 UNK         0.0800 
    142 H142       -3.6885  -19.0965  -45.7311 H         1 UNK         0.0800 
    143 H143       -2.3637  -20.1683  -48.2631 H         1 UNK         0.0600 
    144 H144       -1.0918  -19.0000  -46.0207 H         1 UNK         0.3000 
    145 H145        1.9930  -20.8889  -46.3141 H         1 UNK         0.0600 
    146 H146        2.8648  -18.5730  -46.2902 H         1 UNK         0.0600 
    147 H147        2.1451  -18.9599  -47.8452 H         1 UNK         0.0600 
    148 H148        1.2716  -17.9447  -46.7042 H         1 UNK         0.0600 
    149 H149        1.1946  -18.9566  -44.3885 H         1 UNK         0.3000 
    150 H150       -0.1966  -21.2846  -42.0290 H         1 UNK         0.0600 
    151 H151        2.2804  -21.3090  -41.6946 H         1 UNK         0.0600 
    152 H152        1.4979  -20.1773  -40.6005 H         1 UNK         0.0600 
    153 H153        2.3520  -19.5810  -42.0212 H         1 UNK         0.0600 
    154 H154        0.1262  -18.4691  -41.8939 H         1 UNK         0.3000 
    155 H155       -2.9585  -17.5500  -43.4821 H         1 UNK         0.0600 
    156 H156       -1.8871  -17.3549  -40.6153 H         1 UNK         0.0600 
    157 H157       -3.4434  -18.0196  -41.0886 H         1 UNK         0.0600 
    158 H158       -3.1140  -16.3118  -41.3339 H         1 UNK         0.0600 
    159 H159       -0.8148  -15.9833  -42.4425 H         1 UNK         0.3000 
    160 H160        1.0358  -15.6902  -45.4961 H         1 UNK         0.0600 
    161 H161       -0.8558  -14.0867  -45.6664 H         1 UNK         0.0600 
    162 H162        0.5627  -13.2999  -44.9927 H         1 UNK         0.0600 
    163 H163       -0.7655  -13.7597  -43.9374 H         1 UNK         0.0600 
    164 H164        1.4479  -14.4964  -42.9563 H         1 UNK         0.3000 
    165 H165        3.4686  -17.1462  -41.5659 H         1 UNK         0.0600 
    166 H166        4.9466  -15.1821  -41.2659 H         1 UNK         0.0600 
    167 H167        4.9040  -15.6374  -42.9648 H         1 UNK         0.0600 
    168 H168        3.9799  -14.2497  -42.4078 H         1 UNK         0.0600 
    169 H169        2.5997  -14.7188  -40.3928 H         1 UNK         0.3000 
    170 H170       -0.4711  -15.8498  -39.0000 H         1 UNK         0.0600 
    171 H171        1.2143  -16.7535  -37.4574 H         1 UNK         0.0600 
    172 H172        2.2427  -15.3478  -37.6745 H         1 UNK         0.0600 
    173 H173        0.6712  -15.1813  -36.8920 H         1 UNK         0.0600 
    174 H174       -0.5945  -13.7395  -39.5378 H         1 UNK         0.3000 
    175 H175       -0.1957  -11.7650  -40.3179 H         1 UNK         0.0600 
    176 H176       -0.0072  -11.1361  -37.8985 H         1 UNK         0.0600 
    177 H177        0.2556   -9.7485  -38.9425 H         1 UNK         0.0600 
    178 H178        1.6276  -10.5460  -38.1715 H         1 UNK         0.0600 
    179 H179        2.0964  -10.1669  -40.5894 H         1 UNK         0.3000 
    180 H180        2.7771   -9.6995  -42.7354 H         1 UNK         0.0600 
    181 H181        4.6899  -12.0975  -42.7543 H         1 UNK         0.0600 
    182 H182        4.5866  -10.9119  -41.4589 H         1 UNK         0.0600 
    183 H183        5.1093  -10.4167  -43.0609 H         1 UNK         0.0600 
    184 H184        3.4322  -11.7123  -44.7231 H         1 UNK         0.3000 
    185 H185        0.6792  -11.0747  -46.8346 H         1 UNK         0.0600 
    186 H186        1.9272   -8.9060  -47.2548 H         1 UNK         0.0600 
    187 H187        3.4443   -9.7976  -47.2644 H         1 UNK         0.0600 
    188 H188        2.2318  -10.0895  -48.5102 H         1 UNK         0.0600 
    189 H189        2.8895  -12.6488  -45.9797 H         1 UNK         0.3000 
    190 H190       -2.1985  -21.2834  -44.8568 H         1 UNK         0.3000 
    191 H191       -3.9213  -23.5270  -45.1486 H         1 UNK         0.0600 
    192 H192       -2.8954  -24.2724  -43.0088 H         1 UNK         0.0600 
    193 H193       -1.6331  -23.0590  -43.1663 H         1 UNK         0.0600 
    194 H194       -3.3101  -22.5660  -42.9469 H         1 UNK         0.0600 
    195 H195       -0.3640  -23.2140  -45.5730 H         1 UNK         0.3000 
    196 H196        0.1183  -25.9596  -46.2285 H         1 UNK         0.0600 
    197 H197        2.2875  -25.0843  -47.0910 H         1 UNK         0.0600 
    198 H198        1.9159  -24.4047  -45.5131 H         1 UNK         0.0600 
    199 H199        1.6917  -23.4337  -46.9656 H         1 UNK         0.0600 
    200 H200       -0.6879  -23.1007  -48.2093 H         1 UNK         0.3000 
    201 H201       -0.5076  -24.3702  -50.7552 H         1 UNK         0.0600 
    202 H202       -0.3144  -21.9099  -50.4083 H         1 UNK         0.0600 
    203 H203       -2.0096  -21.8378  -49.9188 H         1 UNK         0.0600 
    204 H204       -1.5789  -22.3048  -51.5563 H         1 UNK         0.0600 
    205 H205       -2.8447  -24.9455  -48.3778 H         1 UNK         0.3000 
    206 H206       -5.2500  -25.1247  -49.8222 H         1 UNK         0.0600 
    207 H207       -5.0789  -25.2407  -47.3393 H         1 UNK         0.0600 
    208 H208       -5.9763  -26.6106  -47.9770 H         1 UNK         0.0600 
    209 H209       -4.3099  -26.8250  -47.4566 H         1 UNK         0.0600 
    210 H210       -2.4594  -27.2133  -49.9777 H         1 UNK         0.3000 
    211 H211       -3.6281  -29.5158  -51.2150 H         1 UNK         0.0600 
    212 H212       -0.8072  -28.3250  -51.4118 H         1 UNK         0.0600 
    213 H213       -1.2662  -29.9437  -51.9294 H         1 UNK         0.0600 
    214 H214       -1.3494  -29.5143  -50.2282 H         1 UNK         0.0600 
    215 H215       -2.9274  -26.2925  -52.4126 H         1 UNK         0.3000 
    216 H216       -3.5756  -27.0477  -55.2277 H         1 UNK         0.0600 
    217 H217       -2.4676  -24.9252  -55.8193 H         1 UNK         0.0600 
    218 H218       -1.3572  -25.8995  -54.8723 H         1 UNK         0.0600 
    219 H219       -2.1935  -24.5388  -54.1254 H         1 UNK         0.0600 
    220 H220       -5.2955  -26.5777  -52.6916 H         1 UNK         0.3000 
    221 H221       -7.2702  -25.8622  -52.1227 H         1 UNK         0.0600 
    222 H222       -8.9274  -25.1184  -53.7568 H         1 UNK         0.0600 
    223 H223       -7.9753  -26.4085  -54.4707 H         1 UNK         0.0600 
    224 H224       -7.6848  -24.7311  -54.9343 H         1 UNK         0.0600 
    225 H225       -4.7960  -23.8879  -52.3861 H         1 UNK         0.3000 
    226 H226       -4.1828  -21.8566  -51.8362 H         1 UNK         0.0600 
    227 H227       -5.1829  -20.8557  -49.8367 H         1 UNK         0.0600 
    228 H228       -6.6940  -21.7338  -50.0826 H         1 UNK         0.0600 
    229 H229       -5.2197  -22.5933  -49.6537 H         1 UNK         0.0600 
    230 H230       -6.0044  -19.5722  -51.1072 H         1 UNK         0.3000 
    231 H231       -6.7662  -17.7035  -52.0109 H         1 UNK         0.0600 
    232 H232       -8.8300  -18.9856  -52.2868 H         1 UNK         0.0600 
    233 H233       -8.3156  -19.6182  -53.8427 H         1 UNK         0.0600 
    234 H234       -8.6562  -17.9004  -53.6544 H         1 UNK         0.0600 
    235 H235       -6.9798  -19.0240  -55.2572 H         1 UNK         0.3000 
    236 H236       -5.0165  -17.0918  -56.2876 H         1 UNK         0.0600 
    237 H237       -5.8069  -17.9409  -58.4938 H         1 UNK         0.0600 
    238 H238       -6.7898  -19.1614  -57.6932 H         1 UNK         0.0600 
    239 H239       -7.1610  -17.4492  -57.4895 H         1 UNK         0.0600 
    240 H240       -5.0568  -20.4254  -55.2718 H         1 UNK         0.3000 
    241 H241       -3.6684  -22.1023  -55.2950 H         1 UNK         0.0600 
    242 H242       -4.0338  -22.3714  -59.1073 H         1 UNK         0.3800 
    243 H243       -4.9549  -21.3964  -57.9916 H         1 UNK         0.3800 
    244 H244       -1.4309  -20.1167  -55.9265 H         1 UNK         0.0800 
    245 H245       -1.1975  -21.7501  -55.3734 H         1 UNK         0.0800 
    246 H246       -0.7657  -18.4661  -54.2469 H         1 UNK         0.0800 
    247 H247       -2.4841  -18.1514  -54.2624 H         1 UNK         0.0800 
@<TRIPOS>BOND
     1    1    2 1    
     2    1  127 1    
     3    1  128 1    
     4    1  129 1    
     5    2    3 2    
     6    2    4 am   BACKBONE|DICT|INTERRES
     7    4    5 1    
     8    4  130 1    
     9    5    6 1    
    10    5   65 1    
    11    5  131 1    
    12    6    7 1    
    13    6  132 1    
    14    6  133 1    
    15    7    8 1    
    16    8    9 1    
    17    8  134 1    
    18    8  135 1    
    19    9   10 ar   
    20    9   14 ar   
    21   10   11 ar   
    22   10  136 1    
    23   11   12 ar   
    24   11  126 1    
    25   12   13 ar   
    26   12  137 1    
    27   13   14 ar   
    28   13   15 1    
    29   14  138 1    
    30   15   16 1    
    31   15  139 1    
    32   15  140 1    
    33   16   17 1    
    34   17   18 1    
    35   17  141 1    
    36   17  142 1    
    37   18   19 1    
    38   18   67 1    
    39   18  143 1    
    40   19   20 am   BACKBONE|DICT|INTERRES
    41   19  144 1    
    42   20   21 2    
    43   20   22 1    
    44   22   23 1    
    45   22   24 1    
    46   22  145 1    
    47   23  146 1    
    48   23  147 1    
    49   23  148 1    
    50   24   25 am   BACKBONE|DICT|INTERRES
    51   24  149 1    
    52   25   26 2    
    53   25   27 1    
    54   27   28 1    
    55   27   29 1    
    56   27  150 1    
    57   28  151 1    
    58   28  152 1    
    59   28  153 1    
    60   29   30 am   BACKBONE|DICT|INTERRES
    61   29  154 1    
    62   30   31 2    
    63   30   32 1    
    64   32   33 1    
    65   32   34 1    
    66   32  155 1    
    67   33  156 1    
    68   33  157 1    
    69   33  158 1    
    70   34   35 am   BACKBONE|DICT|INTERRES
    71   34  159 1    
    72   35   36 2    
    73   35   37 1    
    74   37   38 1    
    75   37   39 1    
    76   37  160 1    
    77   38  161 1    
    78   38  162 1    
    79   38  163 1    
    80   39   40 am   BACKBONE|DICT|INTERRES
    81   39  164 1    
    82   40   41 2    
    83   40   42 1    
    84   42   43 1    
    85   42   44 1    
    86   42  165 1    
    87   43  166 1    
    88   43  167 1    
    89   43  168 1    
    90   44   45 am   BACKBONE|DICT|INTERRES
    91   44  169 1    
    92   45   46 2    
    93   45   47 1    
    94   47   48 1    
    95   47   49 1    
    96   47  170 1    
    97   48  171 1    
    98   48  172 1    
    99   48  173 1    
   100   49   50 am   BACKBONE|DICT|INTERRES
   101   49  174 1    
   102   50   51 2    
   103   50   52 1    
   104   52   53 1    
   105   52   54 1    
   106   52  175 1    
   107   53  176 1    
   108   53  177 1    
   109   53  178 1    
   110   54   55 am   BACKBONE|DICT|INTERRES
   111   54  179 1    
   112   55   56 2    
   113   55   57 1    
   114   57   58 1    
   115   57   59 1    
   116   57  180 1    
   117   58  181 1    
   118   58  182 1    
   119   58  183 1    
   120   59   60 am   BACKBONE|DICT|INTERRES
   121   59  184 1    
   122   60   61 2    
   123   60   62 1    
   124   62   63 1    
   125   62   64 1    
   126   62  185 1    
   127   63  186 1    
   128   63  187 1    
   129   63  188 1    
   130   64   65 am   BACKBONE|DICT|INTERRES
   131   64  189 1    
   132   65   66 2    
   133   67   68 2    
   134   67   69 am   BACKBONE|DICT|INTERRES
   135   69   70 1    
   136   69  190 1    
   137   70   71 1    
   138   70   72 1    
   139   70  191 1    
   140   71  192 1    
   141   71  193 1    
   142   71  194 1    
   143   72   73 2    
   144   72   74 am   BACKBONE|DICT|INTERRES
   145   74   75 1    
   146   74  195 1    
   147   75   76 1    
   148   75   77 1    
   149   75  196 1    
   150   76  197 1    
   151   76  198 1    
   152   76  199 1    
   153   77   78 2    
   154   77   79 am   BACKBONE|DICT|INTERRES
   155   79   80 1    
   156   79  200 1    
   157   80   81 1    
   158   80   82 1    
   159   80  201 1    
   160   81  202 1    
   161   81  203 1    
   162   81  204 1    
   163   82   83 2    
   164   82   84 am   BACKBONE|DICT|INTERRES
   165   84   85 1    
   166   84  205 1    
   167   85   86 1    
   168   85   87 1    
   169   85  206 1    
   170   86  207 1    
   171   86  208 1    
   172   86  209 1    
   173   87   88 2    
   174   87   89 am   BACKBONE|DICT|INTERRES
   175   89   90 1    
   176   89  210 1    
   177   90   91 1    
   178   90   92 1    
   179   90  211 1    
   180   91  212 1    
   181   91  213 1    
   182   91  214 1    
   183   92   93 2    
   184   92   94 am   BACKBONE|DICT|INTERRES
   185   94   95 1    
   186   94  215 1    
   187   95   96 1    
   188   95   97 1    
   189   95  216 1    
   190   96  217 1    
   191   96  218 1    
   192   96  219 1    
   193   97   98 2    
   194   97   99 am   BACKBONE|DICT|INTERRES
   195   99  100 1    
   196   99  220 1    
   197  100  101 1    
   198  100  102 1    
   199  100  221 1    
   200  101  222 1    
   201  101  223 1    
   202  101  224 1    
   203  102  103 2    
   204  102  104 am   BACKBONE|DICT|INTERRES
   205  104  105 1    
   206  104  225 1    
   207  105  106 1    
   208  105  107 1    
   209  105  226 1    
   210  106  227 1    
   211  106  228 1    
   212  106  229 1    
   213  107  108 2    
   214  107  109 am   BACKBONE|DICT|INTERRES
   215  109  110 1    
   216  109  230 1    
   217  110  111 1    
   218  110  112 1    
   219  110  231 1    
   220  111  232 1    
   221  111  233 1    
   222  111  234 1    
   223  112  113 2    
   224  112  114 am   BACKBONE|DICT|INTERRES
   225  114  115 1    
   226  114  235 1    
   227  115  116 1    
   228  115  117 1    
   229  115  236 1    
   230  116  237 1    
   231  116  238 1    
   232  116  239 1    
   233  117  118 2    
   234  117  119 am   BACKBONE|DICT|INTERRES
   235  119  120 1    
   236  119  240 1    
   237  120  121 1    
   238  120  124 1    
   239  120  241 1    
   240  121  122 am   BACKBONE|DICT|INTERRES
   241  121  123 2    
   242  122  242 1    
   243  122  243 1    
   244  124  125 1    
   245  124  244 1    
   246  124  245 1    
   247  125  126 1    
   248  126  246 1    
   249  126  247 1    
@<TRIPOS>SUBSTRUCTURE
     1 UNK         1 GROUP             0       ****    0 ROOT    
