@<TRIPOS>MOLECULE
3R540
247   249    1
SMALL
USER_CHARGES


@<TRIPOS>ATOM
      1 CA          5.6049   -8.7995  -49.2661 C.3       0 UNK        -0.1800 
      2 C           4.6504   -9.9002  -48.8243 C.2       0 UNK         0.5000 
      3 O           4.1180   -9.8402  -47.7155 O.2       0 UNK        -0.5000 
      4 N           4.4402  -10.9066  -49.6818 N.am      1 UNK        -0.5000 
      5 CA          3.5026  -12.0113  -49.4599 C.3       1 UNK         0.1400 
      6 C6          3.8242  -13.2100  -50.3863 C.3       23 UNK        -0.0398 
      7 S7          3.1813  -14.7909  -49.7427 S.3       23 UNK        -0.2404 
      8 C8          3.8274  -15.9356  -50.9973 C.3       23 UNK        -0.0205 
      9 C9          3.0131  -17.2168  -51.0320 C.ar      23 UNK        -0.0193 
     10 C10         1.8345  -17.2631  -51.7805 C.ar      23 UNK        -0.1150 
     11 C11         1.0551  -18.4224  -51.8178 C.ar      23 UNK        -0.0193 
     12 C12         1.4853  -19.5495  -51.1118 C.ar      23 UNK        -0.1150 
     13 C13         2.6692  -19.5228  -50.3705 C.ar      23 UNK        -0.0193 
     14 C14         3.4278  -18.3496  -50.3252 C.ar      23 UNK        -0.1150 
     15 C15         3.1207  -20.7740  -49.6369 C.3       23 UNK        -0.0205 
     16 S16         2.1758  -21.0123  -48.1023 S.3       23 UNK        -0.2404 
     17 C17         2.2256  -22.8295  -47.9410 C.3       23 UNK        -0.0398 
     18 CA          1.1263  -23.4225  -47.0280 C.3       11 UNK         0.1400 
     19 N           1.1939  -22.9145  -45.6575 N.am      11 UNK        -0.5000 
     20 C           0.6116  -23.5004  -44.6038 C.2       10 UNK         0.5000 
     21 O          -0.0513  -24.5340  -44.6980 O.2       10 UNK        -0.5000 
     22 CA          0.7299  -22.8080  -43.2322 C.3       10 UNK         0.1400 
     23 CB          1.1226  -23.7952  -42.1154 C.3       10 UNK        -0.1800 
     24 N           1.5879  -21.6185  -43.2229 N.am      10 UNK        -0.5000 
     25 C           2.9188  -21.5359  -43.3690 C.2       9 UNK         0.5000 
     26 O           3.6541  -22.5088  -43.5367 O.2       9 UNK        -0.5000 
     27 CA          3.5351  -20.1208  -43.3551 C.3       9 UNK         0.1400 
     28 CB          3.9724  -19.7204  -44.7730 C.3       9 UNK        -0.1800 
     29 N           2.6263  -19.0944  -42.8381 N.am      9 UNK        -0.5000 
     30 C           2.2665  -18.9558  -41.5548 C.2       8 UNK         0.5000 
     31 O           2.7374  -19.6267  -40.6359 O.2       8 UNK        -0.5000 
     32 CA          1.1575  -17.9281  -41.2577 C.3       8 UNK         0.1400 
     33 CB          1.7501  -16.5216  -41.0846 C.3       8 UNK        -0.1800 
     34 N           0.1121  -17.9024  -42.2865 N.am      8 UNK        -0.5000 
     35 C          -0.7192  -18.9209  -42.5529 C.2       7 UNK         0.5000 
     36 O          -0.7106  -19.9845  -41.9348 O.2       7 UNK        -0.5000 
     37 CA         -1.6926  -18.7511  -43.7321 C.3       7 UNK         0.1400 
     38 CB         -2.9188  -17.9227  -43.3235 C.3       7 UNK        -0.1800 
     39 N          -1.0489  -18.1502  -44.8998 N.am      7 UNK        -0.5000 
     40 C          -0.1339  -18.7647  -45.6637 C.2       6 UNK         0.5000 
     41 O           0.1730  -19.9508  -45.5294 O.2       6 UNK        -0.5000 
     42 CA          0.5764  -17.9069  -46.7319 C.3       6 UNK         0.1400 
     43 CB         -0.1662  -17.9491  -48.0738 C.3       6 UNK        -0.1800 
     44 N           0.7509  -16.5138  -46.3175 N.am      6 UNK        -0.5000 
     45 C           1.5480  -16.1249  -45.3128 C.2       5 UNK         0.5000 
     46 O           2.2443  -16.8964  -44.6549 O.2       5 UNK        -0.5000 
     47 CA          1.5153  -14.6337  -44.9409 C.3       5 UNK         0.1400 
     48 CB          2.3986  -13.8097  -45.8897 C.3       5 UNK        -0.1800 
     49 N           0.1490  -14.1087  -44.9396 N.am      5 UNK        -0.5000 
     50 C          -0.7732  -14.4251  -44.0189 C.2       4 UNK         0.5000 
     51 O          -0.5535  -15.1719  -43.0665 O.2       4 UNK        -0.5000 
     52 CA         -2.1849  -13.8390  -44.2070 C.3       4 UNK         0.1400 
     53 CB         -2.2773  -12.4436  -43.5724 C.3       4 UNK        -0.1800 
     54 N          -2.5851  -13.7577  -45.6113 N.am      4 UNK        -0.5000 
     55 C          -2.7969  -14.8156  -46.4073 C.2       3 UNK         0.5000 
     56 O          -2.7154  -15.9837  -46.0308 O.2       3 UNK        -0.5000 
     57 CA         -3.0793  -14.5092  -47.8906 C.3       3 UNK         0.1400 
     58 CB         -4.5760  -14.2537  -48.1196 C.3       3 UNK        -0.1800 
     59 N          -2.3013  -13.3704  -48.3935 N.am      3 UNK        -0.5000 
     60 C          -0.9627  -13.3310  -48.4196 C.2       2 UNK         0.5000 
     61 O          -0.2529  -14.2744  -48.0509 O.2       2 UNK        -0.5000 
     62 CA         -0.3103  -12.0300  -48.9092 C.3       2 UNK         0.1400 
     63 CB         -0.6458  -10.8503  -47.9759 C.3       2 UNK        -0.1800 
     64 N           1.1298  -12.2438  -48.9359 N.am      2 UNK        -0.5000 
     65 C           2.0378  -11.5372  -49.6103 C.2       1 UNK         0.5000 
     66 O           1.7631  -10.5692  -50.3254 O.2       1 UNK        -0.5000 
     67 C          -0.2930  -23.2871  -47.6186 C.2       11 UNK         0.5000 
     68 O          -0.7294  -24.1781  -48.3473 O.2       11 UNK        -0.5000 
     69 N          -1.0163  -22.2228  -47.2349 N.am      12 UNK        -0.5000 
     70 CA         -2.4253  -22.0216  -47.5779 C.3       12 UNK         0.1400 
     71 CB         -2.8613  -20.6084  -47.1665 C.3       12 UNK        -0.1800 
     72 C          -3.3464  -23.0765  -46.9400 C.2       12 UNK         0.5000 
     73 O          -4.2938  -23.5277  -47.5843 O.2       12 UNK        -0.5000 
     74 N          -3.0328  -23.4626  -45.6953 N.am      13 UNK        -0.5000 
     75 CA         -3.7382  -24.5021  -44.9488 C.3       13 UNK         0.1400 
     76 CB         -3.3719  -24.4103  -43.4593 C.3       13 UNK        -0.1800 
     77 C          -3.4464  -25.9039  -45.5095 C.2       13 UNK         0.5000 
     78 O          -4.3769  -26.6919  -45.6754 O.2       13 UNK        -0.5000 
     79 N          -2.1730  -26.1731  -45.8340 N.am      14 UNK        -0.5000 
     80 CA         -1.7103  -27.4216  -46.4462 C.3       14 UNK         0.1400 
     81 CB         -0.1756  -27.4236  -46.5036 C.3       14 UNK        -0.1800 
     82 C          -2.3051  -27.6660  -47.8464 C.2       14 UNK         0.5000 
     83 O          -2.6359  -28.8053  -48.1763 O.2       14 UNK        -0.5000 
     84 N          -2.4607  -26.5894  -48.6291 N.am      15 UNK        -0.5000 
     85 CA         -3.1038  -26.5975  -49.9444 C.3       15 UNK         0.1400 
     86 CB         -2.7180  -25.3108  -50.6860 C.3       15 UNK        -0.1800 
     87 C          -4.6394  -26.7304  -49.8853 C.2       15 UNK         0.5000 
     88 O          -5.2542  -27.0000  -50.9181 O.2       15 UNK        -0.5000 
     89 N          -5.2319  -26.5107  -48.7022 N.am      16 UNK        -0.5000 
     90 CA         -6.6570  -26.5398  -48.3489 C.3       16 UNK         0.1400 
     91 CB         -7.2815  -27.9217  -48.6178 C.3       16 UNK        -0.1800 
     92 C          -7.4907  -25.4114  -48.9857 C.2       16 UNK         0.5000 
     93 O          -8.2154  -24.7176  -48.2728 O.2       16 UNK        -0.5000 
     94 N          -7.3502  -25.2098  -50.3006 N.am      17 UNK        -0.5000 
     95 CA         -8.0206  -24.1816  -51.1023 C.3       17 UNK         0.1400 
     96 CB         -8.1400  -24.6944  -52.5485 C.3       17 UNK        -0.1800 
     97 C          -7.3100  -22.8114  -51.0241 C.2       17 UNK         0.5000 
     98 O          -7.2144  -22.1041  -52.0300 O.2       17 UNK        -0.5000 
     99 N          -6.7697  -22.4813  -49.8413 N.am      18 UNK        -0.5000 
    100 CA        -6.0297  -21.2633  -49.4849 C.3       18 UNK         0.1400 
    101 CB        -6.9661  -20.0377  -49.5271 C.3       18 UNK        -0.1800 
    102 C         -4.7490  -21.0228  -50.3151 C.2       18 UNK         0.5000 
    103 O         -4.2264  -19.9087  -50.3071 O.2       18 UNK        -0.5000 
    104 N         -4.2947  -22.0426  -51.0602 N.am      19 UNK        -0.5000 
    105 CA        -3.2719  -21.9796  -52.1127 C.3       19 UNK         0.1400 
    106 CB        -1.8691  -21.7733  -51.5022 C.3       19 UNK        -0.1800 
    107 C         -3.6166  -20.9470  -53.2132 C.2       19 UNK         0.5000 
    108 O         -2.7215  -20.3015  -53.7541 O.2       19 UNK        -0.5000 
    109 N         -4.9201  -20.7782  -53.4901 N.am      20 UNK        -0.5000 
    110 CA        -5.5188  -19.7545  -54.3575 C.3       20 UNK         0.1400 
    111 CB        -5.0203  -19.8766  -55.8131 C.3       20 UNK        -0.1800 
    112 C         -5.4023  -18.3143  -53.8033 C.2       20 UNK         0.5000 
    113 O         -5.6273  -17.3591  -54.5477 O.2       20 UNK        -0.5000 
    114 N         -5.0977  -18.1840  -52.5026 N.am      21 UNK        -0.5000 
    115 CA        -5.0761  -16.9591  -51.6983 C.3       21 UNK         0.1400 
    116 CB        -6.4895  -16.3488  -51.5931 C.3       21 UNK        -0.1800 
    117 C         -4.0034  -15.9285  -52.1082 C.2       21 UNK         0.5000 
    118 O         -4.1684  -14.7421  -51.8196 O.2       21 UNK        -0.5000 
    119 N         -2.9072  -16.3832  -52.7343 N.am      22 UNK        -0.5000 
    120 CA        -1.7331  -15.5402  -53.0307 C.3       22 UNK         0.1400 
    121 C         -0.8829  -15.1039  -51.8019 C.2       22 UNK         0.5000 
    122 N         -1.0465  -15.7100  -50.6331 N.am      22 UNK        -0.7600 
    123 O         -0.0781  -14.1833  -51.9084 O.2       22 UNK        -0.5000 
    124 C124       -0.8720  -16.0586  -54.2169 C.3       23 UNK        -0.0398 
    125 S125       -0.2144  -17.7743  -54.2575 S.3       23 UNK        -0.2404 
    126 C126       -0.2685  -18.4772  -52.5734 C.3       23 UNK        -0.0205 
    127 H127        5.0873   -7.8404  -49.2864 H         1 UNK         0.0600 
    128 H128        6.4390   -8.7234  -48.5685 H         1 UNK         0.0600 
    129 H129        6.0098   -8.9882  -50.2607 H         1 UNK         0.0600 
    130 H130        4.8798  -10.8784  -50.5906 H         1 UNK         0.3000 
    131 H131        3.6425  -12.3373  -48.4264 H         1 UNK         0.0600 
    132 H132        4.9049  -13.3245  -50.4839 H         1 UNK         0.0800 
    133 H133        3.4433  -13.0432  -51.3959 H         1 UNK         0.0800 
    134 H134        4.8764  -16.1501  -50.7881 H         1 UNK         0.0800 
    135 H135        3.7974  -15.4638  -51.9807 H         1 UNK         0.0800 
    136 H136        1.5219  -16.3849  -52.3242 H         1 UNK         0.1150 
    137 H137        0.8937  -20.4540  -51.1277 H         1 UNK         0.1150 
    138 H138        4.3392  -18.3184  -49.7452 H         1 UNK         0.1150 
    139 H139        2.9941  -21.6309  -50.2997 H         1 UNK         0.0800 
    140 H140        4.1842  -20.7236  -49.3993 H         1 UNK         0.0800 
    141 H141        3.2074  -23.1037  -47.5528 H         1 UNK         0.0800 
    142 H142        2.1604  -23.2854  -48.9304 H         1 UNK         0.0800 
    143 H143        1.3270  -24.4943  -46.9721 H         1 UNK         0.0600 
    144 H144        1.6531  -22.0242  -45.5259 H         1 UNK         0.3000 
    145 H145       -0.2732  -22.4462  -43.0043 H         1 UNK         0.0600 
    146 H146        1.1807  -23.2936  -41.1493 H         1 UNK         0.0600 
    147 H147        0.3841  -24.5923  -42.0219 H         1 UNK         0.0600 
    148 H148        2.0857  -24.2677  -42.3089 H         1 UNK         0.0600 
    149 H149        1.0874  -20.7474  -43.1037 H         1 UNK         0.3000 
    150 H150        4.4202  -20.1528  -42.7167 H         1 UNK         0.0600 
    151 H151        4.6684  -20.4478  -45.1927 H         1 UNK         0.0600 
    152 H152        4.4743  -18.7527  -44.7728 H         1 UNK         0.0600 
    153 H153        3.1200  -19.6535  -45.4496 H         1 UNK         0.0600 
    154 H154        2.2564  -18.4349  -43.5183 H         1 UNK         0.3000 
    155 H155        0.6876  -18.2143  -40.3145 H         1 UNK         0.0600 
    156 H156        2.2123  -16.1627  -42.0042 H         1 UNK         0.0600 
    157 H157        2.5150  -16.5128  -40.3073 H         1 UNK         0.0600 
    158 H158        0.9829  -15.8041  -40.7933 H         1 UNK         0.0600 
    159 H159        0.0042  -17.0322  -42.7989 H         1 UNK         0.3000 
    160 H160       -2.0420  -19.7472  -44.0082 H         1 UNK         0.0600 
    161 H161       -3.6414  -17.8632  -44.1376 H         1 UNK         0.0600 
    162 H162       -2.6457  -16.9058  -43.0436 H         1 UNK         0.0600 
    163 H163       -3.4267  -18.3728  -42.4698 H         1 UNK         0.0600 
    164 H164       -1.3216  -17.2022  -45.1340 H         1 UNK         0.3000 
    165 H165        1.5698  -18.3317  -46.8867 H         1 UNK         0.0600 
    166 H166        0.3797  -17.3918  -48.8353 H         1 UNK         0.0600 
    167 H167       -0.2576  -18.9734  -48.4364 H         1 UNK         0.0600 
    168 H168       -1.1690  -17.5279  -47.9957 H         1 UNK         0.0600 
    169 H169        0.2336  -15.8087  -46.8322 H         1 UNK         0.3000 
    170 H170        1.9193  -14.5283  -43.9318 H         1 UNK         0.0600 
    171 H171        3.4439  -14.1068  -45.7977 H         1 UNK         0.0600 
    172 H172        2.1156  -13.9545  -46.9304 H         1 UNK         0.0600 
    173 H173        2.3414  -12.7442  -45.6665 H         1 UNK         0.0600 
    174 H174       -0.1234  -13.5422  -45.7283 H         1 UNK         0.3000 
    175 H175       -2.8893  -14.4956  -43.6922 H         1 UNK         0.0600 
    176 H176       -3.2926  -12.0507  -43.6298 H         1 UNK         0.0600 
    177 H177       -2.0021  -12.4762  -42.5173 H         1 UNK         0.0600 
    178 H178       -1.6127  -11.7316  -44.0634 H         1 UNK         0.0600 
    179 H179       -2.6730  -12.8341  -46.0079 H         1 UNK         0.3000 
    180 H180       -2.7959  -15.3920  -48.4661 H         1 UNK         0.0600 
    181 H181       -4.9220  -13.3700  -47.5823 H         1 UNK         0.0600 
    182 H182       -5.1726  -15.1011  -47.7794 H         1 UNK         0.0600 
    183 H183       -4.7937  -14.1098  -49.1779 H         1 UNK         0.0600 
    184 H184       -2.8270  -12.5765  -48.7292 H         1 UNK         0.3000 
    185 H185       -0.6656  -11.8270  -49.9214 H         1 UNK         0.0600 
    186 H186       -0.3179  -11.0420  -46.9534 H         1 UNK         0.0600 
    187 H187       -0.1653   -9.9310  -48.3110 H         1 UNK         0.0600 
    188 H188       -1.7183  -10.6562  -47.9484 H         1 UNK         0.0600 
    189 H189        1.4108  -13.0965  -48.4667 H         1 UNK         0.3000 
    190 H190       -0.5764  -21.5250  -46.6429 H         1 UNK         0.3000 
    191 H191       -2.5257  -22.1099  -48.6594 H         1 UNK         0.0600 
    192 H192       -2.6931  -20.4299  -46.1061 H         1 UNK         0.0600 
    193 H193       -3.9215  -20.4443  -47.3536 H         1 UNK         0.0600 
    194 H194       -2.3205  -19.8506  -47.7301 H         1 UNK         0.0600 
    195 H195       -2.2147  -23.0655  -45.2598 H         1 UNK         0.3000 
    196 H196       -4.8113  -24.3211  -45.0433 H         1 UNK         0.0600 
    197 H197       -3.9230  -25.1509  -42.8786 H         1 UNK         0.0600 
    198 H198       -3.6191  -23.4297  -43.0522 H         1 UNK         0.0600 
    199 H199       -2.3101  -24.5864  -43.2870 H         1 UNK         0.0600 
    200 H200       -1.4567  -25.4893  -45.6060 H         1 UNK         0.3000 
    201 H201       -2.0285  -28.2439  -45.8020 H         1 UNK         0.0600 
    202 H202        0.2577  -27.2962  -45.5113 H         1 UNK         0.0600 
    203 H203        0.2025  -26.6237  -47.1402 H         1 UNK         0.0600 
    204 H204        0.1987  -28.3664  -46.9043 H         1 UNK         0.0600 
    205 H205       -2.0892  -25.6989  -48.3139 H         1 UNK         0.3000 
    206 H206       -2.7230  -27.4482  -50.5131 H         1 UNK         0.0600 
    207 H207       -1.6381  -25.2385  -50.8160 H         1 UNK         0.0600 
    208 H208       -3.1675  -25.2767  -51.6789 H         1 UNK         0.0600 
    209 H209       -3.0488  -24.4284  -50.1379 H         1 UNK         0.0600 
    210 H210       -4.6228  -26.2727  -47.9301 H         1 UNK         0.3000 
    211 H211       -6.6889  -26.3763  -47.2706 H         1 UNK         0.0600 
    212 H212       -7.3105  -28.1606  -49.6811 H         1 UNK         0.0600 
    213 H213       -8.3069  -27.9618  -48.2486 H         1 UNK         0.0600 
    214 H214       -6.7229  -28.7095  -48.1121 H         1 UNK         0.0600 
    215 H215       -6.6967  -25.8176  -50.7888 H         1 UNK         0.3000 
    216 H216       -9.0311  -24.0364  -50.7154 H         1 UNK         0.0600 
    217 H217       -8.6993  -23.9948  -53.1710 H         1 UNK         0.0600 
    218 H218       -8.6660  -25.6485  -52.5856 H         1 UNK         0.0600 
    219 H219       -7.1599  -24.8342  -53.0064 H         1 UNK         0.0600 
    220 H220       -6.9017  -23.1402  -49.0834 H         1 UNK         0.3000 
    221 H221       -5.7112  -21.3989  -48.4524 H         1 UNK         0.0600 
    222 H222       -7.2753  -19.7987  -50.5453 H         1 UNK         0.0600 
    223 H223       -7.8651  -20.2076  -48.9348 H         1 UNK         0.0600 
    224 H224       -6.4757  -19.1525  -49.1201 H         1 UNK         0.0600 
    225 H225       -4.8048  -22.9112  -50.9969 H         1 UNK         0.3000 
    226 H226       -3.2757  -22.9511  -52.6079 H         1 UNK         0.0600 
    227 H227       -1.6299  -22.5525  -50.7801 H         1 UNK         0.0600 
    228 H228       -1.0985  -21.8141  -52.2723 H         1 UNK         0.0600 
    229 H229       -1.7825  -20.8115  -50.9961 H         1 UNK         0.0600 
    230 H230       -5.5936  -21.3433  -52.9802 H         1 UNK         0.3000 
    231 H231       -6.5870  -19.9761  -54.3650 H         1 UNK         0.0600 
    232 H232       -5.0992  -20.9023  -56.1733 H         1 UNK         0.0600 
    233 H233       -3.9820  -19.5612  -55.9173 H         1 UNK         0.0600 
    234 H234       -5.6148  -19.2531  -56.4817 H         1 UNK         0.0600 
    235 H235       -4.8736  -19.0234  -51.9789 H         1 UNK         0.3000 
    236 H236       -4.7947  -17.2763  -50.6934 H         1 UNK         0.0600 
    237 H237       -6.5145  -15.5382  -50.8639 H         1 UNK         0.0600 
    238 H238       -6.8262  -15.9409  -52.5465 H         1 UNK         0.0600 
    239 H239       -7.2169  -17.0934  -51.2697 H         1 UNK         0.0600 
    240 H240       -2.8420  -17.3625  -52.9731 H         1 UNK         0.3000 
    241 H241       -2.1426  -14.5939  -53.3908 H         1 UNK         0.0600 
    242 H242       -0.4948  -15.4026  -49.8438 H         1 UNK         0.3800 
    243 H243       -1.7066  -16.4600  -50.5288 H         1 UNK         0.3800 
    244 H244       -1.4695  -15.9576  -55.1239 H         1 UNK         0.0800 
    245 H245       -0.0258  -15.3882  -54.3771 H         1 UNK         0.0800 
    246 H246       -1.0613  -18.0539  -51.9654 H         1 UNK         0.0800 
    247 H247       -0.5377  -19.5230  -52.7051 H         1 UNK         0.0800 
@<TRIPOS>BOND
     1    1    2 1    
     2    1  127 1    
     3    1  128 1    
     4    1  129 1    
     5    2    3 2    
     6    2    4 am   BACKBONE|DICT|INTERRES
     7    4    5 1    
     8    4  130 1    
     9    5    6 1    
    10    5   65 1    
    11    5  131 1    
    12    6    7 1    
    13    6  132 1    
    14    6  133 1    
    15    7    8 1    
    16    8    9 1    
    17    8  134 1    
    18    8  135 1    
    19    9   10 ar   
    20    9   14 ar   
    21   10   11 ar   
    22   10  136 1    
    23   11   12 ar   
    24   11  126 1    
    25   12   13 ar   
    26   12  137 1    
    27   13   14 ar   
    28   13   15 1    
    29   14  138 1    
    30   15   16 1    
    31   15  139 1    
    32   15  140 1    
    33   16   17 1    
    34   17   18 1    
    35   17  141 1    
    36   17  142 1    
    37   18   19 1    
    38   18   67 1    
    39   18  143 1    
    40   19   20 am   BACKBONE|DICT|INTERRES
    41   19  144 1    
    42   20   21 2    
    43   20   22 1    
    44   22   23 1    
    45   22   24 1    
    46   22  145 1    
    47   23  146 1    
    48   23  147 1    
    49   23  148 1    
    50   24   25 am   BACKBONE|DICT|INTERRES
    51   24  149 1    
    52   25   26 2    
    53   25   27 1    
    54   27   28 1    
    55   27   29 1    
    56   27  150 1    
    57   28  151 1    
    58   28  152 1    
    59   28  153 1    
    60   29   30 am   BACKBONE|DICT|INTERRES
    61   29  154 1    
    62   30   31 2    
    63   30   32 1    
    64   32   33 1    
    65   32   34 1    
    66   32  155 1    
    67   33  156 1    
    68   33  157 1    
    69   33  158 1    
    70   34   35 am   BACKBONE|DICT|INTERRES
    71   34  159 1    
    72   35   36 2    
    73   35   37 1    
    74   37   38 1    
    75   37   39 1    
    76   37  160 1    
    77   38  161 1    
    78   38  162 1    
    79   38  163 1    
    80   39   40 am   BACKBONE|DICT|INTERRES
    81   39  164 1    
    82   40   41 2    
    83   40   42 1    
    84   42   43 1    
    85   42   44 1    
    86   42  165 1    
    87   43  166 1    
    88   43  167 1    
    89   43  168 1    
    90   44   45 am   BACKBONE|DICT|INTERRES
    91   44  169 1    
    92   45   46 2    
    93   45   47 1    
    94   47   48 1    
    95   47   49 1    
    96   47  170 1    
    97   48  171 1    
    98   48  172 1    
    99   48  173 1    
   100   49   50 am   BACKBONE|DICT|INTERRES
   101   49  174 1    
   102   50   51 2    
   103   50   52 1    
   104   52   53 1    
   105   52   54 1    
   106   52  175 1    
   107   53  176 1    
   108   53  177 1    
   109   53  178 1    
   110   54   55 am   BACKBONE|DICT|INTERRES
   111   54  179 1    
   112   55   56 2    
   113   55   57 1    
   114   57   58 1    
   115   57   59 1    
   116   57  180 1    
   117   58  181 1    
   118   58  182 1    
   119   58  183 1    
   120   59   60 am   BACKBONE|DICT|INTERRES
   121   59  184 1    
   122   60   61 2    
   123   60   62 1    
   124   62   63 1    
   125   62   64 1    
   126   62  185 1    
   127   63  186 1    
   128   63  187 1    
   129   63  188 1    
   130   64   65 am   BACKBONE|DICT|INTERRES
   131   64  189 1    
   132   65   66 2    
   133   67   68 2    
   134   67   69 am   BACKBONE|DICT|INTERRES
   135   69   70 1    
   136   69  190 1    
   137   70   71 1    
   138   70   72 1    
   139   70  191 1    
   140   71  192 1    
   141   71  193 1    
   142   71  194 1    
   143   72   73 2    
   144   72   74 am   BACKBONE|DICT|INTERRES
   145   74   75 1    
   146   74  195 1    
   147   75   76 1    
   148   75   77 1    
   149   75  196 1    
   150   76  197 1    
   151   76  198 1    
   152   76  199 1    
   153   77   78 2    
   154   77   79 am   BACKBONE|DICT|INTERRES
   155   79   80 1    
   156   79  200 1    
   157   80   81 1    
   158   80   82 1    
   159   80  201 1    
   160   81  202 1    
   161   81  203 1    
   162   81  204 1    
   163   82   83 2    
   164   82   84 am   BACKBONE|DICT|INTERRES
   165   84   85 1    
   166   84  205 1    
   167   85   86 1    
   168   85   87 1    
   169   85  206 1    
   170   86  207 1    
   171   86  208 1    
   172   86  209 1    
   173   87   88 2    
   174   87   89 am   BACKBONE|DICT|INTERRES
   175   89   90 1    
   176   89  210 1    
   177   90   91 1    
   178   90   92 1    
   179   90  211 1    
   180   91  212 1    
   181   91  213 1    
   182   91  214 1    
   183   92   93 2    
   184   92   94 am   BACKBONE|DICT|INTERRES
   185   94   95 1    
   186   94  215 1    
   187   95   96 1    
   188   95   97 1    
   189   95  216 1    
   190   96  217 1    
   191   96  218 1    
   192   96  219 1    
   193   97   98 2    
   194   97   99 am   BACKBONE|DICT|INTERRES
   195   99  100 1    
   196   99  220 1    
   197  100  101 1    
   198  100  102 1    
   199  100  221 1    
   200  101  222 1    
   201  101  223 1    
   202  101  224 1    
   203  102  103 2    
   204  102  104 am   BACKBONE|DICT|INTERRES
   205  104  105 1    
   206  104  225 1    
   207  105  106 1    
   208  105  107 1    
   209  105  226 1    
   210  106  227 1    
   211  106  228 1    
   212  106  229 1    
   213  107  108 2    
   214  107  109 am   BACKBONE|DICT|INTERRES
   215  109  110 1    
   216  109  230 1    
   217  110  111 1    
   218  110  112 1    
   219  110  231 1    
   220  111  232 1    
   221  111  233 1    
   222  111  234 1    
   223  112  113 2    
   224  112  114 am   BACKBONE|DICT|INTERRES
   225  114  115 1    
   226  114  235 1    
   227  115  116 1    
   228  115  117 1    
   229  115  236 1    
   230  116  237 1    
   231  116  238 1    
   232  116  239 1    
   233  117  118 2    
   234  117  119 am   BACKBONE|DICT|INTERRES
   235  119  120 1    
   236  119  240 1    
   237  120  121 1    
   238  120  124 1    
   239  120  241 1    
   240  121  122 am   BACKBONE|DICT|INTERRES
   241  121  123 2    
   242  122  242 1    
   243  122  243 1    
   244  124  125 1    
   245  124  244 1    
   246  124  245 1    
   247  125  126 1    
   248  126  246 1    
   249  126  247 1    
@<TRIPOS>SUBSTRUCTURE
     1 UNK         1 GROUP             0       ****    0 ROOT    
