@<TRIPOS>MOLECULE
3R540
247   249    1
SMALL
USER_CHARGES


@<TRIPOS>ATOM
      1 CA         -1.3819  -12.1133  -44.6368 C.3       0 UNK        -0.1800 
      2 C          -0.9096  -12.1101  -46.0834 C.2       0 UNK         0.5000 
      3 O          -0.6358  -11.0452  -46.6372 O.2       0 UNK        -0.5000 
      4 N          -0.8068  -13.2981  -46.6938 N.am      1 UNK        -0.5000 
      5 CA         -0.4761  -13.5175  -48.1107 C.3       1 UNK         0.1400 
      6 C6         -0.6711  -14.9952  -48.5256 C.3       23 UNK        -0.0398 
      7 S7         -2.3712  -15.5918  -48.2199 S.3       23 UNK        -0.2404 
      8 C8         -3.0865  -15.6346  -49.8930 C.3       23 UNK        -0.0205 
      9 C9         -2.3689  -16.6182  -50.8061 C.ar      23 UNK        -0.0193 
     10 C10        -1.7258  -16.1595  -51.9596 C.ar      23 UNK        -0.1150 
     11 C11        -1.0509  -17.0474  -52.8013 C.ar      23 UNK        -0.0193 
     12 C12        -1.0363  -18.4096  -52.4822 C.ar      23 UNK        -0.1150 
     13 C13        -1.6631  -18.8797  -51.3248 C.ar      23 UNK        -0.0193 
     14 C14        -2.3394  -17.9816  -50.4961 C.ar      23 UNK        -0.1150 
     15 C15        -1.5858  -20.3558  -50.9714 C.3       23 UNK        -0.0205 
     16 S16         0.0862  -20.7971  -50.4055 S.3       23 UNK        -0.2404 
     17 C17         0.0007  -20.4182  -48.6199 C.3       23 UNK        -0.0398 
     18 CA         -0.0025  -21.7190  -47.7826 C.3       11 UNK         0.1400 
     19 N           0.5058  -21.5388  -46.4216 N.am      11 UNK        -0.5000 
     20 C           0.8469  -22.5620  -45.6229 C.2       10 UNK         0.5000 
     21 O           0.7846  -23.7444  -45.9628 O.2       10 UNK        -0.5000 
     22 CA          1.2944  -22.2166  -44.1934 C.3       10 UNK         0.1400 
     23 CB          2.7424  -21.7049  -44.1857 C.3       10 UNK        -0.1800 
     24 N           0.4162  -21.2419  -43.5473 N.am      10 UNK        -0.5000 
     25 C          -0.8819  -21.4485  -43.2814 C.2       9 UNK         0.5000 
     26 O          -1.4730  -22.4996  -43.5281 O.2       9 UNK        -0.5000 
     27 CA         -1.6648  -20.2671  -42.6816 C.3       9 UNK         0.1400 
     28 CB         -1.3759  -20.1221  -41.1801 C.3       9 UNK        -0.1800 
     29 N          -1.3865  -19.0008  -43.3583 N.am      9 UNK        -0.5000 
     30 C          -1.6232  -18.7587  -44.6556 C.2       8 UNK         0.5000 
     31 O          -2.1189  -19.5736  -45.4322 O.2       8 UNK        -0.5000 
     32 CA         -1.1762  -17.3895  -45.1872 C.3       8 UNK         0.1400 
     33 CB         -2.1470  -16.2864  -44.7379 C.3       8 UNK        -0.1800 
     34 N           0.1881  -17.0632  -44.7732 N.am      8 UNK        -0.5000 
     35 C           1.2732  -17.7563  -45.1506 C.2       7 UNK         0.5000 
     36 O           1.2459  -18.7017  -45.9393 O.2       7 UNK        -0.5000 
     37 CA          2.6048  -17.3552  -44.4950 C.3       7 UNK         0.1400 
     38 CB          3.2356  -16.1647  -45.2307 C.3       7 UNK        -0.1800 
     39 N           2.4422  -17.0319  -43.0770 N.am      7 UNK        -0.5000 
     40 C           2.1459  -17.9353  -42.1301 C.2       6 UNK         0.5000 
     41 O           2.0109  -19.1373  -42.3521 O.2       6 UNK        -0.5000 
     42 CA          1.9145  -17.4036  -40.7040 C.3       6 UNK         0.1400 
     43 CB          3.2450  -17.3024  -39.9439 C.3       6 UNK        -0.1800 
     44 N           1.2472  -16.1022  -40.6859 N.am      6 UNK        -0.5000 
     45 C           0.0136  -15.8657  -41.1558 C.2       5 UNK         0.5000 
     46 O          -0.7216  -16.7429  -41.6082 O.2       5 UNK        -0.5000 
     47 CA         -0.4531  -14.3972  -41.1671 C.3       5 UNK         0.1400 
     48 CB         -1.2755  -14.0825  -39.9094 C.3       5 UNK        -0.1800 
     49 N           0.6636  -13.4516  -41.2665 N.am      5 UNK        -0.5000 
     50 C           1.4318  -13.3040  -42.3532 C.2       4 UNK         0.5000 
     51 O           1.2439  -13.9096  -43.4120 O.2       4 UNK        -0.5000 
     52 CA          2.6564  -12.3865  -42.2060 C.3       4 UNK         0.1400 
     53 CB          3.9324  -13.2302  -42.0609 C.3       4 UNK        -0.1800 
     54 N           2.7956  -11.5159  -43.3669 N.am      4 UNK        -0.5000 
     55 C           2.0587  -10.4263  -43.6049 C.2       3 UNK         0.5000 
     56 O           1.2364   -9.9768  -42.8059 O.2       3 UNK        -0.5000 
     57 CA          2.2428   -9.7308  -44.9684 C.3       3 UNK         0.1400 
     58 CB          3.3821   -8.6948  -44.9230 C.3       3 UNK        -0.1800 
     59 N           2.3872  -10.6562  -46.1016 N.am      3 UNK        -0.5000 
     60 C           3.4028  -11.4792  -46.4056 C.2       2 UNK         0.5000 
     61 O           4.4332  -11.5732  -45.7374 O.2       2 UNK        -0.5000 
     62 CA          3.1795  -12.3957  -47.6201 C.3       2 UNK         0.1400 
     63 CB          4.2378  -13.5058  -47.7506 C.3       2 UNK        -0.1800 
     64 N           1.8491  -12.9902  -47.5135 N.am      2 UNK        -0.5000 
     65 C           0.9405  -13.0362  -48.4946 C.2       1 UNK         0.5000 
     66 O           1.1688  -12.6949  -49.6557 O.2       1 UNK        -0.5000 
     67 C          -1.3775  -22.4135  -47.7945 C.2       11 UNK         0.5000 
     68 O          -1.5671  -23.3383  -48.5808 O.2       11 UNK        -0.5000 
     69 N          -2.2891  -22.0094  -46.8980 N.am      12 UNK        -0.5000 
     70 CA         -3.6040  -22.6317  -46.7334 C.3       12 UNK         0.1400 
     71 CB         -4.4433  -21.8288  -45.7298 C.3       12 UNK        -0.1800 
     72 C          -3.5190  -24.1100  -46.3139 C.2       12 UNK         0.5000 
     73 O          -4.2879  -24.9232  -46.8236 O.2       12 UNK        -0.5000 
     74 N          -2.5704  -24.4471  -45.4298 N.am      13 UNK        -0.5000 
     75 CA         -2.2773  -25.8243  -45.0342 C.3       13 UNK         0.1400 
     76 CB         -1.3078  -25.8288  -43.8425 C.3       13 UNK        -0.1800 
     77 C          -1.7249  -26.6647  -46.2010 C.2       13 UNK         0.5000 
     78 O          -2.1891  -27.7856  -46.4122 O.2       13 UNK        -0.5000 
     79 N          -0.7674  -26.1009  -46.9506 N.am      14 UNK        -0.5000 
     80 CA         -0.1319  -26.7383  -48.1052 C.3       14 UNK         0.1400 
     81 CB          1.0942  -25.9151  -48.5292 C.3       14 UNK        -0.1800 
     82 C          -1.0886  -26.9380  -49.2960 C.2       14 UNK         0.5000 
     83 O          -1.0779  -28.0036  -49.9131 O.2       14 UNK        -0.5000 
     84 N          -1.8993  -25.9150  -49.5931 N.am      15 UNK        -0.5000 
     85 CA         -2.8390  -25.8821  -50.7153 C.3       15 UNK         0.1400 
     86 CB         -3.0113  -24.4231  -51.1696 C.3       15 UNK        -0.1800 
     87 C          -4.2026  -26.5310  -50.3990 C.2       15 UNK         0.5000 
     88 O          -5.0599  -26.5664  -51.2813 O.2       15 UNK        -0.5000 
     89 N          -4.3865  -27.0275  -49.1663 N.am      16 UNK        -0.5000 
     90 CA         -5.5806  -27.7036  -48.6466 C.3       16 UNK         0.1400 
     91 CB         -5.8125  -29.0464  -49.3709 C.3       16 UNK        -0.1800 
     92 C          -6.8218  -26.7872  -48.6465 C.2       16 UNK         0.5000 
     93 O          -7.8399  -27.1035  -49.2640 O.2       16 UNK        -0.5000 
     94 N          -6.6840  -25.6518  -47.9505 N.am      17 UNK        -0.5000 
     95 CA         -7.6611  -24.5818  -47.7170 C.3       17 UNK         0.1400 
     96 CB         -8.9693  -25.1245  -47.1050 C.3       17 UNK        -0.1800 
     97 C          -7.9167  -23.6623  -48.9282 C.2       17 UNK         0.5000 
     98 O          -8.7173  -22.7324  -48.8132 O.2       17 UNK        -0.5000 
     99 N          -7.2228  -23.8956  -50.0489 N.am      18 UNK        -0.5000 
    100 CA        -7.2036  -23.0026  -51.2060 C.3       18 UNK         0.1400 
    101 CB        -6.8238  -23.8125  -52.4553 C.3       18 UNK        -0.1800 
    102 C         -6.2324  -21.8252  -50.9874 C.2       18 UNK         0.5000 
    103 O         -5.4034  -21.8550  -50.0742 O.2       18 UNK        -0.5000 
    104 N         -6.3448  -20.8143  -51.8512 N.am      19 UNK        -0.5000 
    105 CA        -5.4973  -19.6281  -51.8914 C.3       19 UNK         0.1400 
    106 CB        -6.1075  -18.5264  -51.0071 C.3       19 UNK        -0.1800 
    107 C         -5.3534  -19.1751  -53.3523 C.2       19 UNK         0.5000 
    108 O         -6.0430  -19.7072  -54.2270 O.2       19 UNK        -0.5000 
    109 N         -4.4537  -18.2087  -53.5868 N.am      20 UNK        -0.5000 
    110 CA        -4.0929  -17.6442  -54.8961 C.3       20 UNK         0.1400 
    111 CB        -5.2941  -16.9284  -55.5492 C.3       20 UNK        -0.1800 
    112 C         -3.4151  -18.6710  -55.8336 C.2       20 UNK         0.5000 
    113 O         -3.5442  -18.5799  -57.0547 O.2       20 UNK        -0.5000 
    114 N         -2.6952  -19.6308  -55.2360 N.am      21 UNK        -0.5000 
    115 CA        -2.0264  -20.7439  -55.9163 C.3       21 UNK         0.1400 
    116 CB        -1.8246  -21.8763  -54.8950 C.3       21 UNK        -0.1800 
    117 C         -0.6812  -20.3665  -56.5740 C.2       21 UNK         0.5000 
    118 O         -0.1172  -21.1882  -57.2979 O.2       21 UNK        -0.5000 
    119 N         -0.1771  -19.1603  -56.2850 N.am      22 UNK        -0.5000 
    120 CA         1.1016  -18.6066  -56.7607 C.3       22 UNK         0.1400 
    121 C          1.2049  -18.5280  -58.3104 C.2       22 UNK         0.5000 
    122 N          2.3557  -18.8578  -58.8808 N.am      22 UNK        -0.7600 
    123 O          0.2668  -18.1238  -58.9939 O.2       22 UNK        -0.5000 
    124 C124        1.3837  -17.2104  -56.1437 C.3       23 UNK        -0.0398 
    125 S125        1.2995  -17.2010  -54.3190 S.3       23 UNK        -0.2404 
    126 C126       -0.3777  -16.5288  -54.0673 C.3       23 UNK        -0.0205 
    127 H127       -2.3775  -11.6759  -44.5672 H         1 UNK         0.0600 
    128 H128       -0.7079  -11.5246  -44.0167 H         1 UNK         0.0600 
    129 H129       -1.4213  -13.1209  -44.2249 H         1 UNK         0.0600 
    130 H130       -1.0523  -14.1319  -46.1821 H         1 UNK         0.3000 
    131 H131       -1.1746  -12.9145  -48.6949 H         1 UNK         0.0600 
    132 H132       -0.4218  -15.1315  -49.5788 H         1 UNK         0.0800 
    133 H133        0.0136  -15.6399  -47.9713 H         1 UNK         0.0800 
    134 H134       -3.0709  -14.6266  -50.3106 H         1 UNK         0.0800 
    135 H135       -4.1364  -15.9194  -49.8177 H         1 UNK         0.0800 
    136 H136       -1.7480  -15.1059  -52.2011 H         1 UNK         0.1150 
    137 H137       -0.5109  -19.1068  -53.1198 H         1 UNK         0.1150 
    138 H138       -2.8260  -18.3361  -49.5979 H         1 UNK         0.1150 
    139 H139       -2.3242  -20.6246  -50.2137 H         1 UNK         0.0800 
    140 H140       -1.8283  -20.9515  -51.8516 H         1 UNK         0.0800 
    141 H141        0.8861  -19.8269  -48.3839 H         1 UNK         0.0800 
    142 H142       -0.8544  -19.7805  -48.3878 H         1 UNK         0.0800 
    143 H143        0.6972  -22.4090  -48.2605 H         1 UNK         0.0600 
    144 H144        0.6031  -20.5848  -46.0870 H         1 UNK         0.3000 
    145 H145        1.2578  -23.1358  -43.6051 H         1 UNK         0.0600 
    146 H146        3.1027  -21.5598  -43.1672 H         1 UNK         0.0600 
    147 H147        3.4122  -22.4178  -44.6681 H         1 UNK         0.0600 
    148 H148        2.8371  -20.7550  -44.7126 H         1 UNK         0.0600 
    149 H149        0.8442  -20.3636  -43.2677 H         1 UNK         0.3000 
    150 H150       -2.7289  -20.4785  -42.8040 H         1 UNK         0.0600 
    151 H151       -1.6108  -21.0440  -40.6468 H         1 UNK         0.0600 
    152 H152       -1.9769  -19.3272  -40.7381 H         1 UNK         0.0600 
    153 H153       -0.3273  -19.8914  -40.9918 H         1 UNK         0.0600 
    154 H154       -1.0042  -18.2530  -42.7860 H         1 UNK         0.3000 
    155 H155       -1.1892  -17.4395  -46.2773 H         1 UNK         0.0600 
    156 H156       -2.2127  -16.2088  -43.6535 H         1 UNK         0.0600 
    157 H157       -3.1530  -16.4846  -45.1100 H         1 UNK         0.0600 
    158 H158       -1.8480  -15.3151  -45.1229 H         1 UNK         0.0600 
    159 H159        0.3011  -16.3183  -44.1005 H         1 UNK         0.3000 
    160 H160        3.2873  -18.2040  -44.5752 H         1 UNK         0.0600 
    161 H161        2.5940  -15.2840  -45.2071 H         1 UNK         0.0600 
    162 H162        3.4140  -16.4096  -46.2785 H         1 UNK         0.0600 
    163 H163        4.1959  -15.8924  -44.7926 H         1 UNK         0.0600 
    164 H164        2.4929  -16.0561  -42.8240 H         1 UNK         0.3000 
    165 H165        1.2739  -18.1172  -40.1820 H         1 UNK         0.0600 
    166 H166        3.0862  -16.9992  -38.9089 H         1 UNK         0.0600 
    167 H167        3.7566  -18.2657  -39.9240 H         1 UNK         0.0600 
    168 H168        3.9207  -16.5813  -40.4060 H         1 UNK         0.0600 
    169 H169        1.7756  -15.3258  -40.3180 H         1 UNK         0.3000 
    170 H170       -1.0966  -14.2634  -42.0389 H         1 UNK         0.0600 
    171 H171       -2.1278  -14.7578  -39.8220 H         1 UNK         0.0600 
    172 H172       -0.6803  -14.1856  -39.0013 H         1 UNK         0.0600 
    173 H173       -1.6696  -13.0666  -39.9403 H         1 UNK         0.0600 
    174 H174        0.8744  -12.9154  -40.4368 H         1 UNK         0.3000 
    175 H175        2.5438  -11.7691  -41.3122 H         1 UNK         0.0600 
    176 H176        4.1032  -13.8576  -42.9372 H         1 UNK         0.0600 
    177 H177        4.8095  -12.5963  -41.9296 H         1 UNK         0.0600 
    178 H178        3.8739  -13.8865  -41.1917 H         1 UNK         0.0600 
    179 H179        3.4536  -11.8022  -44.0846 H         1 UNK         0.3000 
    180 H180        1.3175   -9.1854  -45.1615 H         1 UNK         0.0600 
    181 H181        4.3440   -9.1518  -44.6896 H         1 UNK         0.0600 
    182 H182        3.1889   -7.9417  -44.1582 H         1 UNK         0.0600 
    183 H183        3.4793   -8.1734  -45.8752 H         1 UNK         0.0600 
    184 H184        1.5580  -10.7192  -46.6816 H         1 UNK         0.3000 
    185 H185        3.2415  -11.7575  -48.5039 H         1 UNK         0.0600 
    186 H186        5.2293  -13.0809  -47.9112 H         1 UNK         0.0600 
    187 H187        4.2879  -14.1214  -46.8535 H         1 UNK         0.0600 
    188 H188        4.0231  -14.1592  -48.5963 H         1 UNK         0.0600 
    189 H189        1.5612  -13.2666  -46.5845 H         1 UNK         0.3000 
    190 H190       -2.0820  -21.2192  -46.2908 H         1 UNK         0.3000 
    191 H191       -4.1086  -22.5953  -47.7013 H         1 UNK         0.0600 
    192 H192       -3.9681  -21.7897  -44.7491 H         1 UNK         0.0600 
    193 H193       -5.4311  -22.2731  -45.6014 H         1 UNK         0.0600 
    194 H194       -4.5900  -20.8042  -46.0721 H         1 UNK         0.0600 
    195 H195       -2.0105  -23.7163  -45.0009 H         1 UNK         0.3000 
    196 H196       -3.2121  -26.2847  -44.7076 H         1 UNK         0.0600 
    197 H197       -1.0838  -26.8478  -43.5247 H         1 UNK         0.0600 
    198 H198       -1.7360  -25.3075  -42.9862 H         1 UNK         0.0600 
    199 H199       -0.3621  -25.3450  -44.0875 H         1 UNK         0.0600 
    200 H200       -0.4219  -25.1813  -46.6926 H         1 UNK         0.3000 
    201 H201        0.2166  -27.7247  -47.7919 H         1 UNK         0.0600 
    202 H202        1.8167  -25.8375  -47.7165 H         1 UNK         0.0600 
    203 H203        0.8163  -24.9032  -48.8260 H         1 UNK         0.0600 
    204 H204        1.6036  -26.3783  -49.3751 H         1 UNK         0.0600 
    205 H205       -1.8130  -25.0486  -49.0624 H         1 UNK         0.3000 
    206 H206       -2.4056  -26.4382  -51.5490 H         1 UNK         0.0600 
    207 H207       -2.0469  -23.9419  -51.3351 H         1 UNK         0.0600 
    208 H208       -3.5590  -24.3668  -52.1094 H         1 UNK         0.0600 
    209 H209       -3.5544  -23.8347  -50.4292 H         1 UNK         0.0600 
    210 H210       -3.6324  -26.9059  -48.5038 H         1 UNK         0.3000 
    211 H211       -5.3679  -27.9323  -47.6011 H         1 UNK         0.0600 
    212 H212       -6.0596  -28.9069  -50.4237 H         1 UNK         0.0600 
    213 H213       -6.6357  -29.5966  -48.9138 H         1 UNK         0.0600 
    214 H214       -4.9278  -29.6806  -49.3157 H         1 UNK         0.0600 
    215 H215       -5.7710  -25.4760  -47.5272 H         1 UNK         0.3000 
    216 H216       -7.1994  -23.9414  -46.9641 H         1 UNK         0.0600 
    217 H217       -9.6086  -24.3085  -46.7662 H         1 UNK         0.0600 
    218 H218       -8.7688  -25.7574  -46.2405 H         1 UNK         0.0600 
    219 H219       -9.5452  -25.7071  -47.8242 H         1 UNK         0.0600 
    220 H220       -6.5712  -24.6667  -50.0591 H         1 UNK         0.3000 
    221 H221       -8.2051  -22.5941  -51.3573 H         1 UNK         0.0600 
    222 H222       -5.8159  -24.2162  -52.3823 H         1 UNK         0.0600 
    223 H223       -7.5065  -24.6493  -52.6047 H         1 UNK         0.0600 
    224 H224       -6.8650  -23.1968  -53.3544 H         1 UNK         0.0600 
    225 H225       -6.9858  -20.8849  -52.6318 H         1 UNK         0.3000 
    226 H226       -4.5008  -19.8791  -51.5242 H         1 UNK         0.0600 
    227 H227       -6.1834  -18.8529  -49.9697 H         1 UNK         0.0600 
    228 H228       -5.4951  -17.6248  -51.0165 H         1 UNK         0.0600 
    229 H229       -7.1067  -18.2493  -51.3451 H         1 UNK         0.0600 
    230 H230       -3.9421  -17.8303  -52.8012 H         1 UNK         0.3000 
    231 H231       -3.3450  -16.8782  -54.6945 H         1 UNK         0.0600 
    232 H232       -5.7526  -16.2191  -54.8603 H         1 UNK         0.0600 
    233 H233       -6.0637  -17.6309  -55.8699 H         1 UNK         0.0600 
    234 H234       -4.9812  -16.3666  -56.4300 H         1 UNK         0.0600 
    235 H235       -2.6521  -19.6304  -54.2285 H         1 UNK         0.3000 
    236 H236       -2.6835  -21.1117  -56.7072 H         1 UNK         0.0600 
    237 H237       -1.4113  -22.7651  -55.3736 H         1 UNK         0.0600 
    238 H238       -1.1355  -21.5840  -54.1019 H         1 UNK         0.0600 
    239 H239       -2.7679  -22.1686  -54.4329 H         1 UNK         0.0600 
    240 H240       -0.7169  -18.5621  -55.6822 H         1 UNK         0.3000 
    241 H241        1.8778  -19.2889  -56.4089 H         1 UNK         0.0600 
    242 H242        2.4407  -18.7952  -59.8838 H         1 UNK         0.3800 
    243 H243        3.1419  -19.1839  -58.3393 H         1 UNK         0.3800 
    244 H244        0.6982  -16.4616  -56.5453 H         1 UNK         0.0800 
    245 H245        2.3841  -16.8761  -56.4242 H         1 UNK         0.0800 
    246 H246       -1.0111  -16.7772  -54.9172 H         1 UNK         0.0800 
    247 H247       -0.3072  -15.4401  -54.0488 H         1 UNK         0.0800 
@<TRIPOS>BOND
     1    1    2 1    
     2    1  127 1    
     3    1  128 1    
     4    1  129 1    
     5    2    3 2    
     6    2    4 am   BACKBONE|DICT|INTERRES
     7    4    5 1    
     8    4  130 1    
     9    5    6 1    
    10    5   65 1    
    11    5  131 1    
    12    6    7 1    
    13    6  132 1    
    14    6  133 1    
    15    7    8 1    
    16    8    9 1    
    17    8  134 1    
    18    8  135 1    
    19    9   10 ar   
    20    9   14 ar   
    21   10   11 ar   
    22   10  136 1    
    23   11   12 ar   
    24   11  126 1    
    25   12   13 ar   
    26   12  137 1    
    27   13   14 ar   
    28   13   15 1    
    29   14  138 1    
    30   15   16 1    
    31   15  139 1    
    32   15  140 1    
    33   16   17 1    
    34   17   18 1    
    35   17  141 1    
    36   17  142 1    
    37   18   19 1    
    38   18   67 1    
    39   18  143 1    
    40   19   20 am   BACKBONE|DICT|INTERRES
    41   19  144 1    
    42   20   21 2    
    43   20   22 1    
    44   22   23 1    
    45   22   24 1    
    46   22  145 1    
    47   23  146 1    
    48   23  147 1    
    49   23  148 1    
    50   24   25 am   BACKBONE|DICT|INTERRES
    51   24  149 1    
    52   25   26 2    
    53   25   27 1    
    54   27   28 1    
    55   27   29 1    
    56   27  150 1    
    57   28  151 1    
    58   28  152 1    
    59   28  153 1    
    60   29   30 am   BACKBONE|DICT|INTERRES
    61   29  154 1    
    62   30   31 2    
    63   30   32 1    
    64   32   33 1    
    65   32   34 1    
    66   32  155 1    
    67   33  156 1    
    68   33  157 1    
    69   33  158 1    
    70   34   35 am   BACKBONE|DICT|INTERRES
    71   34  159 1    
    72   35   36 2    
    73   35   37 1    
    74   37   38 1    
    75   37   39 1    
    76   37  160 1    
    77   38  161 1    
    78   38  162 1    
    79   38  163 1    
    80   39   40 am   BACKBONE|DICT|INTERRES
    81   39  164 1    
    82   40   41 2    
    83   40   42 1    
    84   42   43 1    
    85   42   44 1    
    86   42  165 1    
    87   43  166 1    
    88   43  167 1    
    89   43  168 1    
    90   44   45 am   BACKBONE|DICT|INTERRES
    91   44  169 1    
    92   45   46 2    
    93   45   47 1    
    94   47   48 1    
    95   47   49 1    
    96   47  170 1    
    97   48  171 1    
    98   48  172 1    
    99   48  173 1    
   100   49   50 am   BACKBONE|DICT|INTERRES
   101   49  174 1    
   102   50   51 2    
   103   50   52 1    
   104   52   53 1    
   105   52   54 1    
   106   52  175 1    
   107   53  176 1    
   108   53  177 1    
   109   53  178 1    
   110   54   55 am   BACKBONE|DICT|INTERRES
   111   54  179 1    
   112   55   56 2    
   113   55   57 1    
   114   57   58 1    
   115   57   59 1    
   116   57  180 1    
   117   58  181 1    
   118   58  182 1    
   119   58  183 1    
   120   59   60 am   BACKBONE|DICT|INTERRES
   121   59  184 1    
   122   60   61 2    
   123   60   62 1    
   124   62   63 1    
   125   62   64 1    
   126   62  185 1    
   127   63  186 1    
   128   63  187 1    
   129   63  188 1    
   130   64   65 am   BACKBONE|DICT|INTERRES
   131   64  189 1    
   132   65   66 2    
   133   67   68 2    
   134   67   69 am   BACKBONE|DICT|INTERRES
   135   69   70 1    
   136   69  190 1    
   137   70   71 1    
   138   70   72 1    
   139   70  191 1    
   140   71  192 1    
   141   71  193 1    
   142   71  194 1    
   143   72   73 2    
   144   72   74 am   BACKBONE|DICT|INTERRES
   145   74   75 1    
   146   74  195 1    
   147   75   76 1    
   148   75   77 1    
   149   75  196 1    
   150   76  197 1    
   151   76  198 1    
   152   76  199 1    
   153   77   78 2    
   154   77   79 am   BACKBONE|DICT|INTERRES
   155   79   80 1    
   156   79  200 1    
   157   80   81 1    
   158   80   82 1    
   159   80  201 1    
   160   81  202 1    
   161   81  203 1    
   162   81  204 1    
   163   82   83 2    
   164   82   84 am   BACKBONE|DICT|INTERRES
   165   84   85 1    
   166   84  205 1    
   167   85   86 1    
   168   85   87 1    
   169   85  206 1    
   170   86  207 1    
   171   86  208 1    
   172   86  209 1    
   173   87   88 2    
   174   87   89 am   BACKBONE|DICT|INTERRES
   175   89   90 1    
   176   89  210 1    
   177   90   91 1    
   178   90   92 1    
   179   90  211 1    
   180   91  212 1    
   181   91  213 1    
   182   91  214 1    
   183   92   93 2    
   184   92   94 am   BACKBONE|DICT|INTERRES
   185   94   95 1    
   186   94  215 1    
   187   95   96 1    
   188   95   97 1    
   189   95  216 1    
   190   96  217 1    
   191   96  218 1    
   192   96  219 1    
   193   97   98 2    
   194   97   99 am   BACKBONE|DICT|INTERRES
   195   99  100 1    
   196   99  220 1    
   197  100  101 1    
   198  100  102 1    
   199  100  221 1    
   200  101  222 1    
   201  101  223 1    
   202  101  224 1    
   203  102  103 2    
   204  102  104 am   BACKBONE|DICT|INTERRES
   205  104  105 1    
   206  104  225 1    
   207  105  106 1    
   208  105  107 1    
   209  105  226 1    
   210  106  227 1    
   211  106  228 1    
   212  106  229 1    
   213  107  108 2    
   214  107  109 am   BACKBONE|DICT|INTERRES
   215  109  110 1    
   216  109  230 1    
   217  110  111 1    
   218  110  112 1    
   219  110  231 1    
   220  111  232 1    
   221  111  233 1    
   222  111  234 1    
   223  112  113 2    
   224  112  114 am   BACKBONE|DICT|INTERRES
   225  114  115 1    
   226  114  235 1    
   227  115  116 1    
   228  115  117 1    
   229  115  236 1    
   230  116  237 1    
   231  116  238 1    
   232  116  239 1    
   233  117  118 2    
   234  117  119 am   BACKBONE|DICT|INTERRES
   235  119  120 1    
   236  119  240 1    
   237  120  121 1    
   238  120  124 1    
   239  120  241 1    
   240  121  122 am   BACKBONE|DICT|INTERRES
   241  121  123 2    
   242  122  242 1    
   243  122  243 1    
   244  124  125 1    
   245  124  244 1    
   246  124  245 1    
   247  125  126 1    
   248  126  246 1    
   249  126  247 1    
@<TRIPOS>SUBSTRUCTURE
     1 UNK         1 GROUP             0       ****    0 ROOT    
