@<TRIPOS>MOLECULE
3R540
247   249    1
SMALL
USER_CHARGES


@<TRIPOS>ATOM
      1 CA          1.7933  -14.4228  -52.8828 C.3       0 UNK        -0.1800 
      2 C           1.4162  -14.8553  -51.4730 C.2       0 UNK         0.5000 
      3 O           2.2715  -15.3430  -50.7351 O.2       0 UNK        -0.5000 
      4 N           0.1413  -14.6820  -51.1033 N.am      1 UNK        -0.5000 
      5 CA         -0.4088  -14.9965  -49.7814 C.3       1 UNK         0.1400 
      6 C6         -1.9617  -15.0379  -49.7818 C.3       23 UNK        -0.0398 
      7 S7         -2.6576  -16.1033  -51.0898 S.3       23 UNK        -0.2404 
      8 C8         -2.8546  -17.6874  -50.2230 C.3       23 UNK        -0.0205 
      9 C9         -4.1905  -17.7995  -49.5061 C.ar      23 UNK        -0.0193 
     10 C10        -5.3280  -18.1961  -50.2155 C.ar      23 UNK        -0.1150 
     11 C11        -6.5616  -18.3118  -49.5720 C.ar      23 UNK        -0.0193 
     12 C12        -6.6488  -18.0440  -48.2043 C.ar      23 UNK        -0.1150 
     13 C13        -5.5204  -17.6555  -47.4776 C.ar      23 UNK        -0.0193 
     14 C14        -4.2923  -17.5288  -48.1380 C.ar      23 UNK        -0.1150 
     15 C15        -5.6669  -17.3422  -45.9920 C.3       23 UNK        -0.0205 
     16 S16        -4.3692  -18.0639  -44.9381 S.3       23 UNK        -0.2404 
     17 C17        -4.4586  -19.8516  -45.3311 C.3       23 UNK        -0.0398 
     18 CA         -3.1943  -20.3920  -46.0577 C.3       11 UNK         0.1400 
     19 N          -1.9654  -19.7908  -45.5433 N.am      11 UNK        -0.5000 
     20 C          -0.7240  -19.9477  -46.0127 C.2       10 UNK         0.5000 
     21 O          -0.4269  -20.7512  -46.8987 O.2       10 UNK        -0.5000 
     22 CA          0.3420  -19.0428  -45.3592 C.3       10 UNK         0.1400 
     23 CB          1.6255  -18.8925  -46.1976 C.3       10 UNK        -0.1800 
     24 N          -0.1844  -17.7322  -44.9502 N.am      10 UNK        -0.5000 
     25 C          -0.7395  -16.7925  -45.7335 C.2       9 UNK         0.5000 
     26 O          -0.8643  -16.9007  -46.9543 O.2       9 UNK        -0.5000 
     27 CA         -1.2786  -15.5367  -45.0214 C.3       9 UNK         0.1400 
     28 CB         -2.3137  -14.7503  -45.8468 C.3       9 UNK        -0.1800 
     29 N          -1.8682  -15.8882  -43.7320 N.am      9 UNK        -0.5000 
     30 C          -1.7576  -15.1563  -42.6200 C.2       8 UNK         0.5000 
     31 O          -1.2017  -14.0576  -42.5764 O.2       8 UNK        -0.5000 
     32 CA         -2.3835  -15.7214  -41.3282 C.3       8 UNK         0.1400 
     33 CB         -3.7429  -15.0520  -41.0703 C.3       8 UNK        -0.1800 
     34 N          -2.5615  -17.1776  -41.2359 N.am      8 UNK        -0.5000 
     35 C          -1.6352  -18.1266  -41.4317 C.2       7 UNK         0.5000 
     36 O          -0.5445  -17.9243  -41.9626 O.2       7 UNK        -0.5000 
     37 CA         -1.9981  -19.5267  -40.8999 C.3       7 UNK         0.1400 
     38 CB         -3.2262  -20.1282  -41.6151 C.3       7 UNK        -0.1800 
     39 N          -0.8449  -20.4363  -40.8921 N.am      7 UNK        -0.5000 
     40 C          -0.3212  -21.1309  -41.9121 C.2       6 UNK         0.5000 
     41 O          -0.8223  -21.2037  -43.0348 O.2       6 UNK        -0.5000 
     42 CA          0.9861  -21.8882  -41.5958 C.3       6 UNK         0.1400 
     43 CB          1.5837  -22.6067  -42.8239 C.3       6 UNK        -0.1800 
     44 N           1.9812  -21.0257  -40.9441 N.am      6 UNK        -0.5000 
     45 C           2.5830  -19.9517  -41.4768 C.2       5 UNK         0.5000 
     46 O           2.4585  -19.5895  -42.6469 O.2       5 UNK        -0.5000 
     47 CA          3.5042  -19.1468  -40.5437 C.3       5 UNK         0.1400 
     48 CB          4.9792  -19.3303  -40.9336 C.3       5 UNK        -0.1800 
     49 N           3.1634  -17.7281  -40.6087 N.am      5 UNK        -0.5000 
     50 C           2.0658  -17.1899  -40.0612 C.2       4 UNK         0.5000 
     51 O           1.3070  -17.8139  -39.3164 O.2       4 UNK        -0.5000 
     52 CA          1.7711  -15.7072  -40.3669 C.3       4 UNK         0.1400 
     53 CB          1.8617  -14.8609  -39.0866 C.3       4 UNK        -0.1800 
     54 N           2.6586  -15.1214  -41.3775 N.am      4 UNK        -0.5000 
     55 C           2.4664  -15.2081  -42.7001 C.2       3 UNK         0.5000 
     56 O           1.5482  -15.8432  -43.2131 O.2       3 UNK        -0.5000 
     57 CA          3.4806  -14.4497  -43.5772 C.3       3 UNK         0.1400 
     58 CB          4.7078  -15.3244  -43.9039 C.3       3 UNK        -0.1800 
     59 N           2.8693  -13.8665  -44.7804 N.am      3 UNK        -0.5000 
     60 C           2.4707  -14.4749  -45.9075 C.2       2 UNK         0.5000 
     61 O           2.6460  -15.6658  -46.1719 O.2       2 UNK        -0.5000 
     62 CA          1.7761  -13.5701  -46.9364 C.3       2 UNK         0.1400 
     63 CB          2.7972  -12.6562  -47.6430 C.3       2 UNK        -0.1800 
     64 N           1.0848  -14.3970  -47.9207 N.am      2 UNK        -0.5000 
     65 C           0.1269  -13.9783  -48.7531 C.2       1 UNK         0.5000 
     66 O          -0.3143  -12.8268  -48.7576 O.2       1 UNK        -0.5000 
     67 C          -3.1568  -21.9327  -46.0085 C.2       11 UNK         0.5000 
     68 O          -3.5928  -22.5858  -46.9578 O.2       11 UNK        -0.5000 
     69 N          -2.6111  -22.4818  -44.9128 N.am      12 UNK        -0.5000 
     70 CA         -2.5160  -23.9210  -44.6704 C.3       12 UNK         0.1400 
     71 CB         -2.3872  -24.1798  -43.1615 C.3       12 UNK        -0.1800 
     72 C          -1.3609  -24.5847  -45.4405 C.2       12 UNK         0.5000 
     73 O          -1.4027  -25.7973  -45.6510 O.2       12 UNK        -0.5000 
     74 N          -0.3738  -23.7974  -45.8928 N.am      13 UNK        -0.5000 
     75 CA          0.7435  -24.2457  -46.7284 C.3       13 UNK         0.1400 
     76 CB          1.9571  -23.3270  -46.4995 C.3       13 UNK        -0.1800 
     77 C           0.3316  -24.3257  -48.2122 C.2       13 UNK         0.5000 
     78 O           0.9915  -23.7386  -49.0709 O.2       13 UNK        -0.5000 
     79 N          -0.7773  -25.0319  -48.4780 N.am      14 UNK        -0.5000 
     80 CA         -1.4127  -25.2409  -49.7824 C.3       14 UNK         0.1400 
     81 CB         -0.5599  -26.2007  -50.6386 C.3       14 UNK        -0.1800 
     82 C          -1.7296  -23.9160  -50.5064 C.2       14 UNK         0.5000 
     83 O          -1.4067  -23.7733  -51.6862 O.2       14 UNK        -0.5000 
     84 N          -2.3132  -22.9572  -49.7681 N.am      15 UNK        -0.5000 
     85 CA         -2.5996  -21.5843  -50.1977 C.3       15 UNK         0.1400 
     86 CB         -3.7315  -21.5684  -51.2463 C.3       15 UNK        -0.1800 
     87 C          -1.3232  -20.8565  -50.6680 C.2       15 UNK         0.5000 
     88 O          -1.2519  -20.4060  -51.8130 O.2       15 UNK        -0.5000 
     89 N          -0.3299  -20.7897  -49.7699 N.am      16 UNK        -0.5000 
     90 CA          0.9959  -20.1918  -49.9509 C.3       16 UNK         0.1400 
     91 CB          0.8814  -18.6564  -49.9813 C.3       16 UNK        -0.1800 
     92 C           1.7554  -20.7736  -51.1615 C.2       16 UNK         0.5000 
     93 O           2.2887  -20.0233  -51.9803 O.2       16 UNK        -0.5000 
     94 N           1.7618  -22.1119  -51.2519 N.am      17 UNK        -0.5000 
     95 CA          2.2933  -22.9272  -52.3472 C.3       17 UNK         0.1400 
     96 CB          3.8323  -22.8330  -52.4041 C.3       17 UNK        -0.1800 
     97 C           1.6077  -22.6131  -53.6942 C.2       17 UNK         0.5000 
     98 O           2.2832  -22.3849  -54.6999 O.2       17 UNK        -0.5000 
     99 N           0.2675  -22.6089  -53.6709 N.am      18 UNK        -0.5000 
    100 CA        -0.6497  -22.3228  -54.7747 C.3       18 UNK         0.1400 
    101 CB        -0.5876  -23.4396  -55.8373 C.3       18 UNK        -0.1800 
    102 C         -0.4702  -20.9080  -55.3629 C.2       18 UNK         0.5000 
    103 O         -0.4120  -20.7454  -56.5838 O.2       18 UNK        -0.5000 
    104 N         -0.4097  -19.8993  -54.4819 N.am      19 UNK        -0.5000 
    105 CA        -0.4264  -18.4794  -54.8504 C.3       19 UNK         0.1400 
    106 CB        -0.0247  -17.6310  -53.6373 C.3       19 UNK        -0.1800 
    107 C         -1.8064  -18.0361  -55.3743 C.2       19 UNK         0.5000 
    108 O         -1.8894  -17.1308  -56.2051 O.2       19 UNK        -0.5000 
    109 N         -2.8535  -18.7140  -54.8979 N.am      20 UNK        -0.5000 
    110 CA        -4.2211  -18.6690  -55.3893 C.3       20 UNK         0.1400 
    111 CB        -5.0429  -17.6929  -54.5327 C.3       20 UNK        -0.1800 
    112 C         -4.7760  -20.0983  -55.3031 C.2       20 UNK         0.5000 
    113 O         -4.2190  -20.9258  -54.5758 O.2       20 UNK        -0.5000 
    114 N         -5.8584  -20.3712  -56.0417 N.am      21 UNK        -0.5000 
    115 CA        -6.5207  -21.6786  -56.0579 C.3       21 UNK         0.1400 
    116 CB        -7.5214  -21.7317  -57.2229 C.3       21 UNK        -0.1800 
    117 C         -7.2171  -22.0069  -54.7238 C.2       21 UNK         0.5000 
    118 O         -7.1308  -23.1428  -54.2564 O.2       21 UNK        -0.5000 
    119 N         -7.8771  -20.9965  -54.1380 N.am      22 UNK        -0.5000 
    120 CA        -8.5924  -21.0632  -52.8517 C.3       22 UNK         0.1400 
    121 C         -9.7889  -22.0704  -52.8212 C.2       22 UNK         0.5000 
    122 N        -10.4198  -22.3613  -53.9529 N.am      22 UNK        -0.7600 
    123 O        -10.1691  -22.5843  -51.7729 O.2       22 UNK        -0.5000 
    124 C124       -7.6071  -21.1913  -51.6524 C.3       23 UNK        -0.0398 
    125 S125       -8.2570  -20.4371  -50.1218 S.3       23 UNK        -0.2404 
    126 C126       -7.8132  -18.6866  -50.3490 C.3       23 UNK        -0.0205 
    127 H127        2.2272  -15.2608  -53.4285 H         1 UNK         0.0600 
    128 H128        2.5310  -13.6214  -52.8442 H         1 UNK         0.0600 
    129 H129        0.9290  -14.0641  -53.4424 H         1 UNK         0.0600 
    130 H130       -0.5130  -14.2719  -51.7535 H         1 UNK         0.3000 
    131 H131       -0.0558  -15.9888  -49.4981 H         1 UNK         0.0600 
    132 H132       -2.3747  -14.0386  -49.9292 H         1 UNK         0.0800 
    133 H133       -2.3339  -15.3787  -48.8160 H         1 UNK         0.0800 
    134 H134       -2.0256  -17.8511  -49.5327 H         1 UNK         0.0800 
    135 H135       -2.7932  -18.4703  -50.9759 H         1 UNK         0.0800 
    136 H136       -5.2540  -18.4041  -51.2720 H         1 UNK         0.1150 
    137 H137       -7.6057  -18.1303  -47.7086 H         1 UNK         0.1150 
    138 H138       -3.4140  -17.2273  -47.5864 H         1 UNK         0.1150 
    139 H139       -5.6562  -16.2592  -45.8641 H         1 UNK         0.0800 
    140 H140       -6.6338  -17.6848  -45.6202 H         1 UNK         0.0800 
    141 H141       -5.3463  -20.0524  -45.9330 H         1 UNK         0.0800 
    142 H142       -4.6238  -20.3751  -44.3886 H         1 UNK         0.0800 
    143 H143       -3.2623  -20.0997  -47.1069 H         1 UNK         0.0600 
    144 H144       -2.0934  -19.1159  -44.8057 H         1 UNK         0.3000 
    145 H145        0.6227  -19.5488  -44.4381 H         1 UNK         0.0600 
    146 H146        2.3970  -18.3768  -45.6256 H         1 UNK         0.0600 
    147 H147        2.0325  -19.8628  -46.4816 H         1 UNK         0.0600 
    148 H148        1.4546  -18.3224  -47.1085 H         1 UNK         0.0600 
    149 H149       -0.0883  -17.5256  -43.9583 H         1 UNK         0.3000 
    150 H150       -0.4125  -14.8918  -44.8636 H         1 UNK         0.0600 
    151 H151       -1.8759  -14.3723  -46.7675 H         1 UNK         0.0600 
    152 H152       -2.6834  -13.8858  -45.2954 H         1 UNK         0.0600 
    153 H153       -3.1715  -15.3680  -46.1111 H         1 UNK         0.0600 
    154 H154       -2.3443  -16.7771  -43.6802 H         1 UNK         0.3000 
    155 H155       -1.7138  -15.4404  -40.5133 H         1 UNK         0.0600 
    156 H156       -3.6578  -13.9646  -41.0934 H         1 UNK         0.0600 
    157 H157       -4.1394  -15.3220  -40.0914 H         1 UNK         0.0600 
    158 H158       -4.4782  -15.3393  -41.8232 H         1 UNK         0.0600 
    159 H159       -3.4390  -17.4663  -40.8285 H         1 UNK         0.3000 
    160 H160       -2.2630  -19.3981  -39.8494 H         1 UNK         0.0600 
    161 H161       -3.4127  -21.1527  -41.2933 H         1 UNK         0.0600 
    162 H162       -3.0971  -20.1323  -42.6954 H         1 UNK         0.0600 
    163 H163       -4.1280  -19.5533  -41.4031 H         1 UNK         0.0600 
    164 H164       -0.3097  -20.4163  -40.0359 H         1 UNK         0.3000 
    165 H165        0.7234  -22.6578  -40.8685 H         1 UNK         0.0600 
    166 H166        1.7878  -21.9126  -43.6393 H         1 UNK         0.0600 
    167 H167        2.5150  -23.1137  -42.5726 H         1 UNK         0.0600 
    168 H168        0.8972  -23.3615  -43.2072 H         1 UNK         0.0600 
    169 H169        2.1672  -21.2404  -39.9744 H         1 UNK         0.3000 
    170 H170        3.3750  -19.4932  -39.5160 H         1 UNK         0.0600 
    171 H171        5.1740  -18.9844  -41.9498 H         1 UNK         0.0600 
    172 H172        5.6369  -18.7807  -40.2600 H         1 UNK         0.0600 
    173 H173        5.2668  -20.3813  -40.8840 H         1 UNK         0.0600 
    174 H174        3.7024  -17.1611  -41.2448 H         1 UNK         0.3000 
    175 H175        0.7429  -15.6568  -40.7295 H         1 UNK         0.0600 
    176 H176        2.8680  -14.8737  -38.6661 H         1 UNK         0.0600 
    177 H177        1.5902  -13.8230  -39.2803 H         1 UNK         0.0600 
    178 H178        1.1808  -15.2339  -38.3204 H         1 UNK         0.0600 
    179 H179        3.4434  -14.5907  -41.0270 H         1 UNK         0.3000 
    180 H180        3.8359  -13.5945  -42.9999 H         1 UNK         0.0600 
    181 H181        4.4253  -16.2633  -44.3812 H         1 UNK         0.0600 
    182 H182        5.2541  -15.5798  -42.9954 H         1 UNK         0.0600 
    183 H183        5.4011  -14.8045  -44.5648 H         1 UNK         0.0600 
    184 H184        2.6599  -12.8819  -44.6942 H         1 UNK         0.3000 
    185 H185        1.0394  -12.9605  -46.4089 H         1 UNK         0.0600 
    186 H186        2.3092  -11.9742  -48.3393 H         1 UNK         0.0600 
    187 H187        3.3446  -12.0432  -46.9263 H         1 UNK         0.0600 
    188 H188        3.5290  -13.2381  -48.2049 H         1 UNK         0.0600 
    189 H189        1.3978  -15.3609  -47.9423 H         1 UNK         0.3000 
    190 H190       -2.1718  -21.8788  -44.2204 H         1 UNK         0.3000 
    191 H191       -3.4436  -24.3876  -45.0089 H         1 UNK         0.0600 
    192 H192       -3.1948  -23.7016  -42.6069 H         1 UNK         0.0600 
    193 H193       -2.4324  -25.2480  -42.9463 H         1 UNK         0.0600 
    194 H194       -1.4429  -23.8099  -42.7652 H         1 UNK         0.0600 
    195 H195       -0.4504  -22.7990  -45.7486 H         1 UNK         0.3000 
    196 H196        1.0370  -25.2529  -46.4257 H         1 UNK         0.0600 
    197 H197        2.2891  -23.3651  -45.4636 H         1 UNK         0.0600 
    198 H198        1.7333  -22.2900  -46.7473 H         1 UNK         0.0600 
    199 H199        2.8038  -23.6350  -47.1142 H         1 UNK         0.0600 
    200 H200       -1.2374  -25.4688  -47.6867 H         1 UNK         0.3000 
    201 H201       -2.3711  -25.7255  -49.5915 H         1 UNK         0.0600 
    202 H202       -1.0655  -26.4460  -51.5733 H         1 UNK         0.0600 
    203 H203       -0.3763  -27.1385  -50.1145 H         1 UNK         0.0600 
    204 H204        0.4067  -25.7649  -50.8938 H         1 UNK         0.0600 
    205 H205       -2.5392  -23.1603  -48.8014 H         1 UNK         0.3000 
    206 H206       -2.9588  -21.0451  -49.3207 H         1 UNK         0.0600 
    207 H207       -4.6362  -22.0321  -50.8539 H         1 UNK         0.0600 
    208 H208       -3.4520  -22.0980  -52.1574 H         1 UNK         0.0600 
    209 H209       -3.9879  -20.5492  -51.5343 H         1 UNK         0.0600 
    210 H210       -0.4895  -21.1622  -48.8388 H         1 UNK         0.3000 
    211 H211        1.5747  -20.4620  -49.0665 H         1 UNK         0.0600 
    212 H212        0.3496  -18.2906  -49.1044 H         1 UNK         0.0600 
    213 H213        1.8651  -18.1860  -49.9890 H         1 UNK         0.0600 
    214 H214        0.3428  -18.3075  -50.8598 H         1 UNK         0.0600 
    215 H215        1.3219  -22.6391  -50.4985 H         1 UNK         0.3000 
    216 H216        2.0368  -23.9601  -52.1070 H         1 UNK         0.0600 
    217 H217        4.2374  -23.5260  -53.1422 H         1 UNK         0.0600 
    218 H218        4.1695  -21.8325  -52.6763 H         1 UNK         0.0600 
    219 H219        4.2775  -23.0870  -51.4421 H         1 UNK         0.0600 
    220 H220       -0.1980  -22.8333  -52.7941 H         1 UNK         0.3000 
    221 H221       -1.6510  -22.3417  -54.3411 H         1 UNK         0.0600 
    222 H222        0.3771  -23.4648  -56.3447 H         1 UNK         0.0600 
    223 H223       -0.7573  -24.4184  -55.3886 H         1 UNK         0.0600 
    224 H224       -1.3549  -23.2956  -56.5989 H         1 UNK         0.0600 
    225 H225       -0.5019  -20.1131  -53.4900 H         1 UNK         0.3000 
    226 H226        0.3063  -18.3169  -55.6434 H         1 UNK         0.0600 
    227 H227        0.9679  -17.8986  -53.2751 H         1 UNK         0.0600 
    228 H228       -0.0067  -16.5715  -53.8932 H         1 UNK         0.0600 
    229 H229       -0.7312  -17.7555  -52.8168 H         1 UNK         0.0600 
    230 H230       -2.6788  -19.4801  -54.2580 H         1 UNK         0.3000 
    231 H231       -4.2340  -18.3518  -56.4342 H         1 UNK         0.0600 
    232 H232       -6.0739  -17.6324  -54.8823 H         1 UNK         0.0600 
    233 H233       -4.6253  -16.6866  -54.5730 H         1 UNK         0.0600 
    234 H234       -5.0655  -18.0011  -53.4884 H         1 UNK         0.0600 
    235 H235       -6.2589  -19.6490  -56.6231 H         1 UNK         0.3000 
    236 H236       -5.7603  -22.4434  -56.2316 H         1 UNK         0.0600 
    237 H237       -7.0195  -21.5863  -58.1797 H         1 UNK         0.0600 
    238 H238       -8.0210  -22.7006  -57.2639 H         1 UNK         0.0600 
    239 H239       -8.2937  -20.9673  -57.1296 H         1 UNK         0.0600 
    240 H240       -7.8969  -20.1038  -54.6085 H         1 UNK         0.3000 
    241 H241       -9.0713  -20.0871  -52.7704 H         1 UNK         0.0600 
    242 H242      -10.1309  -21.9487  -54.8253 H         1 UNK         0.3800 
    243 H243      -11.1940  -23.0069  -53.9360 H         1 UNK         0.3800 
    244 H244       -7.3630  -22.2376  -51.4625 H         1 UNK         0.0800 
    245 H245       -6.6582  -20.7052  -51.8841 H         1 UNK         0.0800 
    246 H246       -8.6453  -18.0711  -50.0039 H         1 UNK         0.0800 
    247 H247       -7.6925  -18.4566  -51.4087 H         1 UNK         0.0800 
@<TRIPOS>BOND
     1    1    2 1    
     2    1  127 1    
     3    1  128 1    
     4    1  129 1    
     5    2    3 2    
     6    2    4 am   BACKBONE|DICT|INTERRES
     7    4    5 1    
     8    4  130 1    
     9    5    6 1    
    10    5   65 1    
    11    5  131 1    
    12    6    7 1    
    13    6  132 1    
    14    6  133 1    
    15    7    8 1    
    16    8    9 1    
    17    8  134 1    
    18    8  135 1    
    19    9   10 ar   
    20    9   14 ar   
    21   10   11 ar   
    22   10  136 1    
    23   11   12 ar   
    24   11  126 1    
    25   12   13 ar   
    26   12  137 1    
    27   13   14 ar   
    28   13   15 1    
    29   14  138 1    
    30   15   16 1    
    31   15  139 1    
    32   15  140 1    
    33   16   17 1    
    34   17   18 1    
    35   17  141 1    
    36   17  142 1    
    37   18   19 1    
    38   18   67 1    
    39   18  143 1    
    40   19   20 am   BACKBONE|DICT|INTERRES
    41   19  144 1    
    42   20   21 2    
    43   20   22 1    
    44   22   23 1    
    45   22   24 1    
    46   22  145 1    
    47   23  146 1    
    48   23  147 1    
    49   23  148 1    
    50   24   25 am   BACKBONE|DICT|INTERRES
    51   24  149 1    
    52   25   26 2    
    53   25   27 1    
    54   27   28 1    
    55   27   29 1    
    56   27  150 1    
    57   28  151 1    
    58   28  152 1    
    59   28  153 1    
    60   29   30 am   BACKBONE|DICT|INTERRES
    61   29  154 1    
    62   30   31 2    
    63   30   32 1    
    64   32   33 1    
    65   32   34 1    
    66   32  155 1    
    67   33  156 1    
    68   33  157 1    
    69   33  158 1    
    70   34   35 am   BACKBONE|DICT|INTERRES
    71   34  159 1    
    72   35   36 2    
    73   35   37 1    
    74   37   38 1    
    75   37   39 1    
    76   37  160 1    
    77   38  161 1    
    78   38  162 1    
    79   38  163 1    
    80   39   40 am   BACKBONE|DICT|INTERRES
    81   39  164 1    
    82   40   41 2    
    83   40   42 1    
    84   42   43 1    
    85   42   44 1    
    86   42  165 1    
    87   43  166 1    
    88   43  167 1    
    89   43  168 1    
    90   44   45 am   BACKBONE|DICT|INTERRES
    91   44  169 1    
    92   45   46 2    
    93   45   47 1    
    94   47   48 1    
    95   47   49 1    
    96   47  170 1    
    97   48  171 1    
    98   48  172 1    
    99   48  173 1    
   100   49   50 am   BACKBONE|DICT|INTERRES
   101   49  174 1    
   102   50   51 2    
   103   50   52 1    
   104   52   53 1    
   105   52   54 1    
   106   52  175 1    
   107   53  176 1    
   108   53  177 1    
   109   53  178 1    
   110   54   55 am   BACKBONE|DICT|INTERRES
   111   54  179 1    
   112   55   56 2    
   113   55   57 1    
   114   57   58 1    
   115   57   59 1    
   116   57  180 1    
   117   58  181 1    
   118   58  182 1    
   119   58  183 1    
   120   59   60 am   BACKBONE|DICT|INTERRES
   121   59  184 1    
   122   60   61 2    
   123   60   62 1    
   124   62   63 1    
   125   62   64 1    
   126   62  185 1    
   127   63  186 1    
   128   63  187 1    
   129   63  188 1    
   130   64   65 am   BACKBONE|DICT|INTERRES
   131   64  189 1    
   132   65   66 2    
   133   67   68 2    
   134   67   69 am   BACKBONE|DICT|INTERRES
   135   69   70 1    
   136   69  190 1    
   137   70   71 1    
   138   70   72 1    
   139   70  191 1    
   140   71  192 1    
   141   71  193 1    
   142   71  194 1    
   143   72   73 2    
   144   72   74 am   BACKBONE|DICT|INTERRES
   145   74   75 1    
   146   74  195 1    
   147   75   76 1    
   148   75   77 1    
   149   75  196 1    
   150   76  197 1    
   151   76  198 1    
   152   76  199 1    
   153   77   78 2    
   154   77   79 am   BACKBONE|DICT|INTERRES
   155   79   80 1    
   156   79  200 1    
   157   80   81 1    
   158   80   82 1    
   159   80  201 1    
   160   81  202 1    
   161   81  203 1    
   162   81  204 1    
   163   82   83 2    
   164   82   84 am   BACKBONE|DICT|INTERRES
   165   84   85 1    
   166   84  205 1    
   167   85   86 1    
   168   85   87 1    
   169   85  206 1    
   170   86  207 1    
   171   86  208 1    
   172   86  209 1    
   173   87   88 2    
   174   87   89 am   BACKBONE|DICT|INTERRES
   175   89   90 1    
   176   89  210 1    
   177   90   91 1    
   178   90   92 1    
   179   90  211 1    
   180   91  212 1    
   181   91  213 1    
   182   91  214 1    
   183   92   93 2    
   184   92   94 am   BACKBONE|DICT|INTERRES
   185   94   95 1    
   186   94  215 1    
   187   95   96 1    
   188   95   97 1    
   189   95  216 1    
   190   96  217 1    
   191   96  218 1    
   192   96  219 1    
   193   97   98 2    
   194   97   99 am   BACKBONE|DICT|INTERRES
   195   99  100 1    
   196   99  220 1    
   197  100  101 1    
   198  100  102 1    
   199  100  221 1    
   200  101  222 1    
   201  101  223 1    
   202  101  224 1    
   203  102  103 2    
   204  102  104 am   BACKBONE|DICT|INTERRES
   205  104  105 1    
   206  104  225 1    
   207  105  106 1    
   208  105  107 1    
   209  105  226 1    
   210  106  227 1    
   211  106  228 1    
   212  106  229 1    
   213  107  108 2    
   214  107  109 am   BACKBONE|DICT|INTERRES
   215  109  110 1    
   216  109  230 1    
   217  110  111 1    
   218  110  112 1    
   219  110  231 1    
   220  111  232 1    
   221  111  233 1    
   222  111  234 1    
   223  112  113 2    
   224  112  114 am   BACKBONE|DICT|INTERRES
   225  114  115 1    
   226  114  235 1    
   227  115  116 1    
   228  115  117 1    
   229  115  236 1    
   230  116  237 1    
   231  116  238 1    
   232  116  239 1    
   233  117  118 2    
   234  117  119 am   BACKBONE|DICT|INTERRES
   235  119  120 1    
   236  119  240 1    
   237  120  121 1    
   238  120  124 1    
   239  120  241 1    
   240  121  122 am   BACKBONE|DICT|INTERRES
   241  121  123 2    
   242  122  242 1    
   243  122  243 1    
   244  124  125 1    
   245  124  244 1    
   246  124  245 1    
   247  125  126 1    
   248  126  246 1    
   249  126  247 1    
@<TRIPOS>SUBSTRUCTURE
     1 UNK         1 GROUP             0       ****    0 ROOT    
