@<TRIPOS>MOLECULE
3R540
247   249    1
SMALL
USER_CHARGES


@<TRIPOS>ATOM
      1 CA          5.7592  -11.0984  -51.1604 C.3       0 UNK        -0.1800 
      2 C           5.1021  -11.3111  -49.8045 C.2       0 UNK         0.5000 
      3 O           4.5959  -10.3587  -49.2103 O.2       0 UNK        -0.5000 
      4 N           5.0896  -12.5594  -49.3167 N.am      1 UNK        -0.5000 
      5 CA          4.5156  -12.9529  -48.0218 C.3       1 UNK         0.1400 
      6 C6          4.9643  -14.3722  -47.5916 C.3       23 UNK        -0.0398 
      7 S7          4.3860  -15.7031  -48.7024 S.3       23 UNK        -0.2404 
      8 C8          3.0377  -16.4026  -47.7017 C.3       23 UNK        -0.0205 
      9 C9          2.0587  -17.1719  -48.5691 C.ar      23 UNK        -0.0193 
     10 C10         0.9646  -16.5160  -49.1395 C.ar      23 UNK        -0.1150 
     11 C11         0.0489  -17.2164  -49.9289 C.ar      23 UNK        -0.0193 
     12 C12         0.2258  -18.5865  -50.1356 C.ar      23 UNK        -0.1150 
     13 C13         1.3186  -19.2511  -49.5714 C.ar      23 UNK        -0.0193 
     14 C14         2.2375  -18.5377  -48.7968 C.ar      23 UNK        -0.1150 
     15 C15         1.5036  -20.7409  -49.7900 C.3       23 UNK        -0.0205 
     16 S16         1.1865  -21.6571  -48.2557 S.3       23 UNK        -0.2404 
     17 C17         1.0783  -23.3484  -48.9119 C.3       23 UNK        -0.0398 
     18 CA          0.6398  -24.4118  -47.8793 C.3       11 UNK         0.1400 
     19 N           1.5841  -24.5646  -46.7695 N.am      11 UNK        -0.5000 
     20 C           1.6761  -25.6768  -46.0271 C.2       10 UNK         0.5000 
     21 O           0.9611  -26.6662  -46.1903 O.2       10 UNK        -0.5000 
     22 CA          2.7177  -25.6707  -44.8952 C.3       10 UNK         0.1400 
     23 CB          4.1444  -25.7550  -45.4593 C.3       10 UNK        -0.1800 
     24 N           2.6034  -24.4994  -44.0273 N.am      10 UNK        -0.5000 
     25 C           1.5453  -24.2325  -43.2496 C.2       9 UNK         0.5000 
     26 O           0.5374  -24.9360  -43.1966 O.2       9 UNK        -0.5000 
     27 CA          1.6096  -22.9452  -42.4081 C.3       9 UNK         0.1400 
     28 CB          2.3232  -23.2103  -41.0739 C.3       9 UNK        -0.1800 
     29 N           2.2487  -21.8116  -43.0830 N.am      9 UNK        -0.5000 
     30 C           1.8320  -21.2796  -44.2391 C.2       8 UNK         0.5000 
     31 O           0.9409  -21.7708  -44.9353 O.2       8 UNK        -0.5000 
     32 CA          2.5377  -19.9877  -44.6941 C.3       8 UNK         0.1400 
     33 CB          3.7134  -20.3054  -45.6303 C.3       8 UNK        -0.1800 
     34 N           1.6041  -19.0878  -45.3722 N.am      8 UNK        -0.5000 
     35 C           0.5926  -18.4606  -44.7576 C.2       7 UNK         0.5000 
     36 O           0.4166  -18.4905  -43.5359 O.2       7 UNK        -0.5000 
     37 CA         -0.3971  -17.7093  -45.6711 C.3       7 UNK         0.1400 
     38 CB         -1.1647  -18.7025  -46.5576 C.3       7 UNK        -0.1800 
     39 N          -1.3737  -16.9324  -44.9071 N.am      7 UNK        -0.5000 
     40 C          -1.1213  -15.7874  -44.2630 C.2       6 UNK         0.5000 
     41 O          -0.0474  -15.1814  -44.3153 O.2       6 UNK        -0.5000 
     42 CA         -2.2692  -15.2482  -43.3970 C.3       6 UNK         0.1400 
     43 CB         -2.4101  -16.0586  -42.0949 C.3       6 UNK        -0.1800 
     44 N          -2.0315  -13.8451  -43.0743 N.am      6 UNK        -0.5000 
     45 C          -2.9839  -12.9414  -42.8158 C.2       5 UNK         0.5000 
     46 O          -4.1866  -13.2090  -42.8099 O.2       5 UNK        -0.5000 
     47 CA         -2.5401  -11.4980  -42.4949 C.3       5 UNK         0.1400 
     48 CB         -2.7199  -11.2044  -40.9966 C.3       5 UNK        -0.1800 
     49 N          -1.1585  -11.1817  -42.8692 N.am      5 UNK        -0.5000 
     50 C          -0.7107  -11.0639  -44.1252 C.2       4 UNK         0.5000 
     51 O          -1.4130  -11.2633  -45.1190 O.2       4 UNK        -0.5000 
     52 CA          0.7753  -10.6795  -44.2722 C.3       4 UNK         0.1400 
     53 CB          1.6813  -11.8471  -43.8470 C.3       4 UNK        -0.1800 
     54 N           1.1108  -10.2884  -45.6420 N.am      4 UNK        -0.5000 
     55 C           0.7626   -9.1233  -46.2107 C.2       3 UNK         0.5000 
     56 O           0.2017   -8.2130  -45.5981 O.2       3 UNK        -0.5000 
     57 CA          1.0979   -8.9212  -47.7055 C.3       3 UNK         0.1400 
     58 CB          2.3312   -8.0185  -47.8619 C.3       3 UNK        -0.1800 
     59 N           1.3400  -10.1737  -48.4213 N.am      3 UNK        -0.5000 
     60 C           0.3990  -11.0813  -48.7205 C.2       2 UNK         0.5000 
     61 O          -0.8062  -10.8820  -48.5693 O.2       2 UNK        -0.5000 
     62 CA          0.8737  -12.4489  -49.2593 C.3       2 UNK         0.1400 
     63 CB          0.5000  -12.6145  -50.7404 C.3       2 UNK        -0.1800 
     64 N           2.3114  -12.6955  -49.1094 N.am      2 UNK        -0.5000 
     65 C           2.9800  -12.7830  -47.9495 C.2       1 UNK         0.5000 
     66 O           2.4353  -12.6958  -46.8511 O.2       1 UNK        -0.5000 
     67 C          -0.8098  -24.2154  -47.3916 C.2       11 UNK         0.5000 
     68 O          -1.7347  -24.6157  -48.0995 O.2       11 UNK        -0.5000 
     69 N          -0.9912  -23.6471  -46.1906 N.am      12 UNK        -0.5000 
     70 CA         -2.2816  -23.5608  -45.5101 C.3       12 UNK         0.1400 
     71 CB         -2.1730  -22.6272  -44.2958 C.3       12 UNK        -0.1800 
     72 C          -2.8097  -24.9485  -45.1043 C.2       12 UNK         0.5000 
     73 O          -3.9657  -25.2587  -45.3913 O.2       12 UNK        -0.5000 
     74 N          -1.9465  -25.7756  -44.4945 N.am      13 UNK        -0.5000 
     75 CA         -2.2535  -27.1525  -44.0952 C.3       13 UNK         0.1400 
     76 CB         -1.1125  -27.7073  -43.2295 C.3       13 UNK        -0.1800 
     77 C          -2.5239  -28.0828  -45.2919 C.2       13 UNK         0.5000 
     78 O          -3.4171  -28.9271  -45.2155 O.2       13 UNK        -0.5000 
     79 N          -1.7724  -27.8917  -46.3849 N.am      14 UNK        -0.5000 
     80 CA         -1.9483  -28.6069  -47.6516 C.3       14 UNK         0.1400 
     81 CB         -0.6747  -28.4365  -48.4946 C.3       14 UNK        -0.1800 
     82 C          -3.1811  -28.1472  -48.4586 C.2       14 UNK         0.5000 
     83 O          -3.5475  -28.8212  -49.4215 O.2       14 UNK        -0.5000 
     84 N          -3.7681  -27.0003  -48.0812 N.am      15 UNK        -0.5000 
     85 CA         -4.8607  -26.2820  -48.7496 C.3       15 UNK         0.1400 
     86 CB         -6.1501  -27.1268  -48.7941 C.3       15 UNK        -0.1800 
     87 C          -4.4703  -25.7138  -50.1319 C.2       15 UNK         0.5000 
     88 O          -5.3448  -25.3601  -50.9223 O.2       15 UNK        -0.5000 
     89 N          -3.1620  -25.5843  -50.3835 N.am      16 UNK        -0.5000 
     90 CA         -2.5869  -24.9686  -51.5765 C.3       16 UNK         0.1400 
     91 CB         -1.1214  -25.4067  -51.7111 C.3       16 UNK        -0.1800 
     92 C          -2.7135  -23.4348  -51.5493 C.2       16 UNK         0.5000 
     93 O          -2.8450  -22.8219  -52.6075 O.2       16 UNK        -0.5000 
     94 N          -2.7260  -22.8445  -50.3438 N.am      17 UNK        -0.5000 
     95 CA         -3.0312  -21.4274  -50.1305 C.3       17 UNK         0.1400 
     96 CB         -2.7222  -21.0448  -48.6781 C.3       17 UNK        -0.1800 
     97 C          -4.4999  -21.0980  -50.4607 C.2       17 UNK         0.5000 
     98 O          -4.7873  -20.0531  -51.0498 O.2       17 UNK        -0.5000 
     99 N          -5.4006  -22.0162  -50.0839 N.am      18 UNK        -0.5000 
    100 CA        -6.8434  -21.9272  -50.3075 C.3       18 UNK         0.1400 
    101 CB        -7.5549  -22.9324  -49.3889 C.3       18 UNK        -0.1800 
    102 C         -7.2458  -22.1541  -51.7764 C.2       18 UNK         0.5000 
    103 O         -8.3137  -21.6961  -52.1848 O.2       18 UNK        -0.5000 
    104 N         -6.3853  -22.8240  -52.5559 N.am      19 UNK        -0.5000 
    105 CA        -6.5490  -23.1111  -53.9831 C.3       19 UNK         0.1400 
    106 CB        -5.6482  -24.3020  -54.3567 C.3       19 UNK        -0.1800 
    107 C         -6.2994  -21.8698  -54.8700 C.2       19 UNK         0.5000 
    108 O         -5.4787  -21.9121  -55.7876 O.2       19 UNK        -0.5000 
    109 N         -7.0194  -20.7824  -54.5644 N.am      20 UNK        -0.5000 
    110 CA        -7.0674  -19.4876  -55.2516 C.3       20 UNK         0.1400 
    111 CB        -7.5913  -19.6560  -56.6934 C.3       20 UNK        -0.1800 
    112 C         -5.7654  -18.6585  -55.1984 C.2       20 UNK         0.5000 
    113 O         -5.6809  -17.6438  -55.8928 O.2       20 UNK        -0.5000 
    114 N         -4.7850  -19.0621  -54.3764 N.am      21 UNK        -0.5000 
    115 CA        -3.5429  -18.3138  -54.1707 C.3       21 UNK         0.1400 
    116 CB        -2.4564  -19.2333  -53.5950 C.3       21 UNK        -0.1800 
    117 C         -3.7774  -17.0845  -53.2759 C.2       21 UNK         0.5000 
    118 O         -3.3871  -15.9785  -53.6517 O.2       21 UNK        -0.5000 
    119 N         -4.4452  -17.2948  -52.1352 N.am      22 UNK        -0.5000 
    120 CA        -4.8928  -16.2357  -51.2154 C.3       22 UNK         0.1400 
    121 C         -6.0210  -16.6648  -50.2348 C.2       22 UNK         0.5000 
    122 N         -6.3404  -17.9437  -50.0798 N.am      22 UNK        -0.7600 
    123 O         -6.6504  -15.8088  -49.6190 O.2       22 UNK        -0.5000 
    124 C124       -3.7342  -15.4920  -50.4925 C.3       23 UNK        -0.0398 
    125 S125       -2.6133  -16.5798  -49.5447 S.3       23 UNK        -0.2404 
    126 C126       -1.1182  -16.4893  -50.5733 C.3       23 UNK        -0.0205 
    127 H127        6.1521  -12.0289  -51.5709 H         1 UNK         0.0600 
    128 H128        6.5837  -10.3912  -51.0700 H         1 UNK         0.0600 
    129 H129        5.0361  -10.6924  -51.8677 H         1 UNK         0.0600 
    130 H130        5.5030  -13.3092  -49.8538 H         1 UNK         0.3000 
    131 H131        4.9224  -12.2602  -47.2818 H         1 UNK         0.0600 
    132 H132        6.0539  -14.4133  -47.5627 H         1 UNK         0.0800 
    133 H133        4.6438  -14.5774  -46.5685 H         1 UNK         0.0800 
    134 H134        3.4581  -17.0513  -46.9318 H         1 UNK         0.0800 
    135 H135        2.5049  -15.6094  -47.1748 H         1 UNK         0.0800 
    136 H136        0.8294  -15.4582  -48.9715 H         1 UNK         0.1150 
    137 H137       -0.4876  -19.1317  -50.7371 H         1 UNK         0.1150 
    138 H138        3.0866  -19.0495  -48.3660 H         1 UNK         0.1150 
    139 H139        0.8326  -21.0949  -50.5744 H         1 UNK         0.0800 
    140 H140        2.5201  -20.9411  -50.1319 H         1 UNK         0.0800 
    141 H141        2.0521  -23.6182  -49.3228 H         1 UNK         0.0800 
    142 H142        0.3891  -23.3416  -49.7569 H         1 UNK         0.0800 
    143 H143        0.6391  -25.3591  -48.4218 H         1 UNK         0.0600 
    144 H144        2.1537  -23.7618  -46.5445 H         1 UNK         0.3000 
    145 H145        2.5435  -26.5584  -44.2833 H         1 UNK         0.0600 
    146 H146        4.8784  -25.8533  -44.6592 H         1 UNK         0.0600 
    147 H147        4.2561  -26.6239  -46.1092 H         1 UNK         0.0600 
    148 H148        4.4030  -24.8716  -46.0443 H         1 UNK         0.0600 
    149 H149        3.3802  -23.8554  -44.0186 H         1 UNK         0.3000 
    150 H150        0.5815  -22.6518  -42.1870 H         1 UNK         0.0600 
    151 H151        3.3732  -23.4656  -41.2221 H         1 UNK         0.0600 
    152 H152        1.8562  -24.0385  -40.5389 H         1 UNK         0.0600 
    153 H153        2.2777  -22.3382  -40.4213 H         1 UNK         0.0600 
    154 H154        2.9970  -21.3576  -42.5794 H         1 UNK         0.3000 
    155 H155        2.9282  -19.4714  -43.8146 H         1 UNK         0.0600 
    156 H156        3.3886  -20.8333  -46.5262 H         1 UNK         0.0600 
    157 H157        4.4500  -20.9356  -45.1307 H         1 UNK         0.0600 
    158 H158        4.2256  -19.3957  -45.9441 H         1 UNK         0.0600 
    159 H159        1.6341  -19.0905  -46.3813 H         1 UNK         0.3000 
    160 H160        0.1688  -17.0269  -46.3077 H         1 UNK         0.0600 
    161 H161       -0.4918  -19.2407  -47.2249 H         1 UNK         0.0600 
    162 H162       -1.8916  -18.1884  -47.1843 H         1 UNK         0.0600 
    163 H163       -1.6988  -19.4460  -45.9647 H         1 UNK         0.0600 
    164 H164       -2.2728  -17.3709  -44.7747 H         1 UNK         0.3000 
    165 H165       -3.1899  -15.3332  -43.9786 H         1 UNK         0.0600 
    166 H166       -3.2477  -15.7029  -41.4946 H         1 UNK         0.0600 
    167 H167       -2.5878  -17.1143  -42.3030 H         1 UNK         0.0600 
    168 H168       -1.5086  -15.9925  -41.4846 H         1 UNK         0.0600 
    169 H169       -1.0640  -13.5548  -43.1286 H         1 UNK         0.3000 
    170 H170       -3.1997  -10.8295  -43.0522 H         1 UNK         0.0600 
    171 H171       -2.4943  -10.1626  -40.7677 H         1 UNK         0.0600 
    172 H172       -3.7480  -11.3879  -40.6813 H         1 UNK         0.0600 
    173 H173       -2.0722  -11.8325  -40.3837 H         1 UNK         0.0600 
    174 H174       -0.5183  -11.0182  -42.1054 H         1 UNK         0.3000 
    175 H175        0.9757   -9.8308  -43.6149 H         1 UNK         0.0600 
    176 H176        1.5620  -12.0747  -42.7873 H         1 UNK         0.0600 
    177 H177        1.4503  -12.7574  -44.4017 H         1 UNK         0.0600 
    178 H178        2.7335  -11.6133  -44.0102 H         1 UNK         0.0600 
    179 H179        1.5368  -11.0097  -46.2143 H         1 UNK         0.3000 
    180 H180        0.2457   -8.4198  -48.1688 H         1 UNK         0.0600 
    181 H181        3.2193   -8.4730  -47.4207 H         1 UNK         0.0600 
    182 H182        2.1770   -7.0555  -47.3735 H         1 UNK         0.0600 
    183 H183        2.5445   -7.8196  -48.9124 H         1 UNK         0.0600 
    184 H184        2.3078  -10.4041  -48.6065 H         1 UNK         0.3000 
    185 H185        0.3446  -13.2106  -48.6839 H         1 UNK         0.0600 
    186 H186       -0.5758  -12.5094  -50.8872 H         1 UNK         0.0600 
    187 H187        0.9919  -11.8665  -51.3634 H         1 UNK         0.0600 
    188 H188        0.7827  -13.5994  -51.1122 H         1 UNK         0.0600 
    189 H189        2.8451  -12.7720  -49.9628 H         1 UNK         0.3000 
    190 H190       -0.1903  -23.2552  -45.7044 H         1 UNK         0.3000 
    191 H191       -3.0011  -23.1241  -46.2044 H         1 UNK         0.0600 
    192 H192       -1.8583  -21.6275  -44.5958 H         1 UNK         0.0600 
    193 H193       -3.1348  -22.5288  -43.7913 H         1 UNK         0.0600 
    194 H194       -1.4542  -22.9973  -43.5652 H         1 UNK         0.0600 
    195 H195       -1.0172  -25.4376  -44.2595 H         1 UNK         0.3000 
    196 H196       -3.1593  -27.1283  -43.4858 H         1 UNK         0.0600 
    197 H197       -1.3175  -28.7327  -42.9197 H         1 UNK         0.0600 
    198 H198       -0.9823  -27.1148  -42.3239 H         1 UNK         0.0600 
    199 H199       -0.1637  -27.7086  -43.7677 H         1 UNK         0.0600 
    200 H200       -1.0035  -27.2308  -46.3370 H         1 UNK         0.3000 
    201 H201       -2.0749  -29.6695  -47.4345 H         1 UNK         0.0600 
    202 H202       -0.7370  -29.0097  -49.4205 H         1 UNK         0.0600 
    203 H203        0.2064  -28.7860  -47.9561 H         1 UNK         0.0600 
    204 H204       -0.5115  -27.3938  -48.7662 H         1 UNK         0.0600 
    205 H205       -3.3827  -26.5269  -47.2741 H         1 UNK         0.3000 
    206 H206       -5.0647  -25.4132  -48.1222 H         1 UNK         0.0600 
    207 H207       -6.4009  -27.5147  -47.8068 H         1 UNK         0.0600 
    208 H208       -6.9974  -26.5288  -49.1312 H         1 UNK         0.0600 
    209 H209       -6.0598  -27.9726  -49.4757 H         1 UNK         0.0600 
    210 H210       -2.5211  -25.7968  -49.6291 H         1 UNK         0.3000 
    211 H211       -3.1315  -25.3291  -52.4517 H         1 UNK         0.0600 
    212 H212       -0.5439  -25.1670  -50.8197 H         1 UNK         0.0600 
    213 H213       -0.6409  -24.9194  -52.5606 H         1 UNK         0.0600 
    214 H214       -1.0499  -26.4827  -51.8706 H         1 UNK         0.0600 
    215 H215       -2.5731  -23.4186  -49.5217 H         1 UNK         0.3000 
    216 H216       -2.3848  -20.8365  -50.7793 H         1 UNK         0.0600 
    217 H217       -2.9067  -19.9826  -48.5151 H         1 UNK         0.0600 
    218 H218       -1.6797  -21.2352  -48.4298 H         1 UNK         0.0600 
    219 H219       -3.3419  -21.5972  -47.9721 H         1 UNK         0.0600 
    220 H220       -5.0689  -22.8507  -49.6260 H         1 UNK         0.3000 
    221 H221       -7.1708  -20.9233  -50.0301 H         1 UNK         0.0600 
    222 H222       -7.2785  -23.9605  -49.6232 H         1 UNK         0.0600 
    223 H223       -7.3152  -22.7496  -48.3413 H         1 UNK         0.0600 
    224 H224       -8.6381  -22.8545  -49.4916 H         1 UNK         0.0600 
    225 H225       -5.5390  -23.1733  -52.1296 H         1 UNK         0.3000 
    226 H226       -7.5830  -23.4184  -54.1525 H         1 UNK         0.0600 
    227 H227       -5.8066  -24.6020  -55.3932 H         1 UNK         0.0600 
    228 H228       -4.5917  -24.0593  -54.2437 H         1 UNK         0.0600 
    229 H229       -5.8614  -25.1701  -53.7326 H         1 UNK         0.0600 
    230 H230       -7.6422  -20.8723  -53.7654 H         1 UNK         0.3000 
    231 H231       -7.8067  -18.8991  -54.7066 H         1 UNK         0.0600 
    232 H232       -6.8735  -20.1775  -57.3271 H         1 UNK         0.0600 
    233 H233       -7.7899  -18.6884  -57.1557 H         1 UNK         0.0600 
    234 H234       -8.5254  -20.2175  -56.7111 H         1 UNK         0.0600 
    235 H235       -4.9200  -19.8985  -53.8272 H         1 UNK         0.3000 
    236 H236       -3.1879  -17.9591  -55.1409 H         1 UNK         0.0600 
    237 H237       -2.2862  -20.0969  -54.2383 H         1 UNK         0.0600 
    238 H238       -1.5079  -18.7036  -53.4997 H         1 UNK         0.0600 
    239 H239       -2.7240  -19.6013  -52.6084 H         1 UNK         0.0600 
    240 H240       -4.6985  -18.2427  -51.8828 H         1 UNK         0.3000 
    241 H241       -5.3829  -15.4940  -51.8492 H         1 UNK         0.0600 
    242 H242       -5.7997  -18.6924  -50.5030 H         1 UNK         0.3800 
    243 H243       -7.0885  -18.1737  -49.4463 H         1 UNK         0.3800 
    244 H244       -3.1549  -14.9245  -51.2209 H         1 UNK         0.0800 
    245 H245       -4.1308  -14.7393  -49.8092 H         1 UNK         0.0800 
    246 H246       -1.3250  -16.9169  -51.5547 H         1 UNK         0.0800 
    247 H247       -0.8557  -15.4442  -50.7415 H         1 UNK         0.0800 
@<TRIPOS>BOND
     1    1    2 1    
     2    1  127 1    
     3    1  128 1    
     4    1  129 1    
     5    2    3 2    
     6    2    4 am   BACKBONE|DICT|INTERRES
     7    4    5 1    
     8    4  130 1    
     9    5    6 1    
    10    5   65 1    
    11    5  131 1    
    12    6    7 1    
    13    6  132 1    
    14    6  133 1    
    15    7    8 1    
    16    8    9 1    
    17    8  134 1    
    18    8  135 1    
    19    9   10 ar   
    20    9   14 ar   
    21   10   11 ar   
    22   10  136 1    
    23   11   12 ar   
    24   11  126 1    
    25   12   13 ar   
    26   12  137 1    
    27   13   14 ar   
    28   13   15 1    
    29   14  138 1    
    30   15   16 1    
    31   15  139 1    
    32   15  140 1    
    33   16   17 1    
    34   17   18 1    
    35   17  141 1    
    36   17  142 1    
    37   18   19 1    
    38   18   67 1    
    39   18  143 1    
    40   19   20 am   BACKBONE|DICT|INTERRES
    41   19  144 1    
    42   20   21 2    
    43   20   22 1    
    44   22   23 1    
    45   22   24 1    
    46   22  145 1    
    47   23  146 1    
    48   23  147 1    
    49   23  148 1    
    50   24   25 am   BACKBONE|DICT|INTERRES
    51   24  149 1    
    52   25   26 2    
    53   25   27 1    
    54   27   28 1    
    55   27   29 1    
    56   27  150 1    
    57   28  151 1    
    58   28  152 1    
    59   28  153 1    
    60   29   30 am   BACKBONE|DICT|INTERRES
    61   29  154 1    
    62   30   31 2    
    63   30   32 1    
    64   32   33 1    
    65   32   34 1    
    66   32  155 1    
    67   33  156 1    
    68   33  157 1    
    69   33  158 1    
    70   34   35 am   BACKBONE|DICT|INTERRES
    71   34  159 1    
    72   35   36 2    
    73   35   37 1    
    74   37   38 1    
    75   37   39 1    
    76   37  160 1    
    77   38  161 1    
    78   38  162 1    
    79   38  163 1    
    80   39   40 am   BACKBONE|DICT|INTERRES
    81   39  164 1    
    82   40   41 2    
    83   40   42 1    
    84   42   43 1    
    85   42   44 1    
    86   42  165 1    
    87   43  166 1    
    88   43  167 1    
    89   43  168 1    
    90   44   45 am   BACKBONE|DICT|INTERRES
    91   44  169 1    
    92   45   46 2    
    93   45   47 1    
    94   47   48 1    
    95   47   49 1    
    96   47  170 1    
    97   48  171 1    
    98   48  172 1    
    99   48  173 1    
   100   49   50 am   BACKBONE|DICT|INTERRES
   101   49  174 1    
   102   50   51 2    
   103   50   52 1    
   104   52   53 1    
   105   52   54 1    
   106   52  175 1    
   107   53  176 1    
   108   53  177 1    
   109   53  178 1    
   110   54   55 am   BACKBONE|DICT|INTERRES
   111   54  179 1    
   112   55   56 2    
   113   55   57 1    
   114   57   58 1    
   115   57   59 1    
   116   57  180 1    
   117   58  181 1    
   118   58  182 1    
   119   58  183 1    
   120   59   60 am   BACKBONE|DICT|INTERRES
   121   59  184 1    
   122   60   61 2    
   123   60   62 1    
   124   62   63 1    
   125   62   64 1    
   126   62  185 1    
   127   63  186 1    
   128   63  187 1    
   129   63  188 1    
   130   64   65 am   BACKBONE|DICT|INTERRES
   131   64  189 1    
   132   65   66 2    
   133   67   68 2    
   134   67   69 am   BACKBONE|DICT|INTERRES
   135   69   70 1    
   136   69  190 1    
   137   70   71 1    
   138   70   72 1    
   139   70  191 1    
   140   71  192 1    
   141   71  193 1    
   142   71  194 1    
   143   72   73 2    
   144   72   74 am   BACKBONE|DICT|INTERRES
   145   74   75 1    
   146   74  195 1    
   147   75   76 1    
   148   75   77 1    
   149   75  196 1    
   150   76  197 1    
   151   76  198 1    
   152   76  199 1    
   153   77   78 2    
   154   77   79 am   BACKBONE|DICT|INTERRES
   155   79   80 1    
   156   79  200 1    
   157   80   81 1    
   158   80   82 1    
   159   80  201 1    
   160   81  202 1    
   161   81  203 1    
   162   81  204 1    
   163   82   83 2    
   164   82   84 am   BACKBONE|DICT|INTERRES
   165   84   85 1    
   166   84  205 1    
   167   85   86 1    
   168   85   87 1    
   169   85  206 1    
   170   86  207 1    
   171   86  208 1    
   172   86  209 1    
   173   87   88 2    
   174   87   89 am   BACKBONE|DICT|INTERRES
   175   89   90 1    
   176   89  210 1    
   177   90   91 1    
   178   90   92 1    
   179   90  211 1    
   180   91  212 1    
   181   91  213 1    
   182   91  214 1    
   183   92   93 2    
   184   92   94 am   BACKBONE|DICT|INTERRES
   185   94   95 1    
   186   94  215 1    
   187   95   96 1    
   188   95   97 1    
   189   95  216 1    
   190   96  217 1    
   191   96  218 1    
   192   96  219 1    
   193   97   98 2    
   194   97   99 am   BACKBONE|DICT|INTERRES
   195   99  100 1    
   196   99  220 1    
   197  100  101 1    
   198  100  102 1    
   199  100  221 1    
   200  101  222 1    
   201  101  223 1    
   202  101  224 1    
   203  102  103 2    
   204  102  104 am   BACKBONE|DICT|INTERRES
   205  104  105 1    
   206  104  225 1    
   207  105  106 1    
   208  105  107 1    
   209  105  226 1    
   210  106  227 1    
   211  106  228 1    
   212  106  229 1    
   213  107  108 2    
   214  107  109 am   BACKBONE|DICT|INTERRES
   215  109  110 1    
   216  109  230 1    
   217  110  111 1    
   218  110  112 1    
   219  110  231 1    
   220  111  232 1    
   221  111  233 1    
   222  111  234 1    
   223  112  113 2    
   224  112  114 am   BACKBONE|DICT|INTERRES
   225  114  115 1    
   226  114  235 1    
   227  115  116 1    
   228  115  117 1    
   229  115  236 1    
   230  116  237 1    
   231  116  238 1    
   232  116  239 1    
   233  117  118 2    
   234  117  119 am   BACKBONE|DICT|INTERRES
   235  119  120 1    
   236  119  240 1    
   237  120  121 1    
   238  120  124 1    
   239  120  241 1    
   240  121  122 am   BACKBONE|DICT|INTERRES
   241  121  123 2    
   242  122  242 1    
   243  122  243 1    
   244  124  125 1    
   245  124  244 1    
   246  124  245 1    
   247  125  126 1    
   248  126  246 1    
   249  126  247 1    
@<TRIPOS>SUBSTRUCTURE
     1 UNK         1 GROUP             0       ****    0 ROOT    
