@<TRIPOS>MOLECULE
3R540
247   249    1
SMALL
USER_CHARGES


@<TRIPOS>ATOM
      1 CA          2.0288   -9.9509  -50.7155 C.3       0 UNK        -0.1800 
      2 C           1.5482  -11.2588  -50.1025 C.2       0 UNK         0.5000 
      3 O           0.5410  -11.8069  -50.5493 O.2       0 UNK        -0.5000 
      4 N           2.2692  -11.7554  -49.0876 N.am      1 UNK        -0.5000 
      5 CA          1.9776  -12.9785  -48.3290 C.3       1 UNK         0.1400 
      6 C6          2.0606  -14.2692  -49.1933 C.3       23 UNK        -0.0398 
      7 S7          2.6698  -15.6965  -48.2307 S.3       23 UNK        -0.2404 
      8 C8          3.5861  -16.6317  -49.4935 C.3       23 UNK        -0.0205 
      9 C9          2.6519  -17.4087  -50.4076 C.ar      23 UNK        -0.0193 
     10 C10         2.1985  -16.8369  -51.6020 C.ar      23 UNK        -0.1150 
     11 C11         1.3504  -17.5541  -52.4498 C.ar      23 UNK        -0.0193 
     12 C12         0.9689  -18.8489  -52.1009 C.ar      23 UNK        -0.1150 
     13 C13         1.4161  -19.4352  -50.9171 C.ar      23 UNK        -0.0193 
     14 C14         2.2547  -18.7078  -50.0668 C.ar      23 UNK        -0.1150 
     15 C15         0.9947  -20.8591  -50.5893 C.3       23 UNK        -0.0205 
     16 S16        -0.7531  -20.9358  -50.0874 S.3       23 UNK        -0.2404 
     17 C17        -0.6223  -20.5698  -48.3078 C.3       23 UNK        -0.0398 
     18 CA         -0.8945  -21.8333  -47.4531 C.3       11 UNK         0.1400 
     19 N          -0.0610  -21.8844  -46.2434 N.am      11 UNK        -0.5000 
     20 C          -0.0036  -22.9185  -45.3897 C.2       10 UNK         0.5000 
     21 O          -0.6551  -23.9523  -45.5321 O.2       10 UNK        -0.5000 
     22 CA          0.8800  -22.7567  -44.1401 C.3       10 UNK         0.1400 
     23 CB          2.3645  -22.9527  -44.4803 C.3       10 UNK        -0.1800 
     24 N           0.6784  -21.4610  -43.4941 N.am      10 UNK        -0.5000 
     25 C          -0.4570  -21.0923  -42.8830 C.2       9 UNK         0.5000 
     26 O          -1.4076  -21.8516  -42.6962 O.2       9 UNK        -0.5000 
     27 CA         -0.5722  -19.6163  -42.4547 C.3       9 UNK         0.1400 
     28 CB          0.0410  -19.3952  -41.0646 C.3       9 UNK        -0.1800 
     29 N           0.0474  -18.7009  -43.4139 N.am      9 UNK        -0.5000 
     30 C          -0.3475  -18.5473  -44.6862 C.2       8 UNK         0.5000 
     31 O          -1.3198  -19.1196  -45.1770 O.2       8 UNK        -0.5000 
     32 CA          0.5244  -17.6458  -45.5726 C.3       8 UNK         0.1400 
     33 CB          0.1754  -16.1720  -45.3437 C.3       8 UNK        -0.1800 
     34 N           1.9491  -17.8644  -45.3247 N.am      8 UNK        -0.5000 
     35 C           2.6146  -18.9661  -45.6983 C.2       7 UNK         0.5000 
     36 O           2.0993  -19.8951  -46.3177 O.2       7 UNK        -0.5000 
     37 CA          4.0880  -19.0736  -45.2662 C.3       7 UNK         0.1400 
     38 CB          5.0054  -18.3711  -46.2761 C.3       7 UNK        -0.1800 
     39 N           4.3213  -18.5243  -43.9310 N.am      7 UNK        -0.5000 
     40 C           3.8434  -19.0630  -42.8002 C.2       6 UNK         0.5000 
     41 O           3.1906  -20.1052  -42.7638 O.2       6 UNK        -0.5000 
     42 CA          4.0971  -18.2770  -41.5002 C.3       6 UNK         0.1400 
     43 CB          5.4428  -18.6793  -40.8793 C.3       6 UNK        -0.1800 
     44 N           4.0638  -16.8239  -41.6928 N.am      6 UNK        -0.5000 
     45 C           2.9826  -16.1386  -42.0868 C.2       5 UNK         0.5000 
     46 O           1.8984  -16.6661  -42.3458 O.2       5 UNK        -0.5000 
     47 CA          3.1702  -14.6264  -42.2928 C.3       5 UNK         0.1400 
     48 CB          3.4951  -14.3304  -43.7661 C.3       5 UNK        -0.1800 
     49 N           1.9753  -13.8804  -41.9023 N.am      5 UNK        -0.5000 
     50 C           1.5985  -13.6668  -40.6326 C.2       4 UNK         0.5000 
     51 O           2.2573  -14.0386  -39.6599 O.2       4 UNK        -0.5000 
     52 CA          0.2837  -12.8943  -40.3906 C.3       4 UNK         0.1400 
     53 CB          0.5796  -11.4213  -40.0682 C.3       4 UNK        -0.1800 
     54 N          -0.6444  -12.9489  -41.5193 N.am      4 UNK        -0.5000 
     55 C          -1.3226  -14.0383  -41.9013 C.2       3 UNK         0.5000 
     56 O          -1.3245  -15.0938  -41.2675 O.2       3 UNK        -0.5000 
     57 CA         -2.1367  -13.9450  -43.2103 C.3       3 UNK         0.1400 
     58 CB         -3.6371  -13.8371  -42.8956 C.3       3 UNK        -0.1800 
     59 N          -1.7746  -12.8592  -44.1346 N.am      3 UNK        -0.5000 
     60 C          -0.5626  -12.6213  -44.6547 C.2       2 UNK         0.5000 
     61 O           0.4674  -13.1872  -44.2859 O.2       2 UNK        -0.5000 
     62 CA         -0.4817  -11.5348  -45.7432 C.3       2 UNK         0.1400 
     63 CB         -0.2682  -10.1541  -45.1043 C.3       2 UNK        -0.1800 
     64 N           0.6099  -11.7944  -46.6836 N.am      2 UNK        -0.5000 
     65 C           0.6635  -12.8373  -47.5252 C.2       1 UNK         0.5000 
     66 O          -0.2699  -13.6255  -47.6898 O.2       1 UNK        -0.5000 
     67 C          -2.4018  -21.9853  -47.1545 C.2       11 UNK         0.5000 
     68 O          -3.1123  -22.6625  -47.8999 O.2       11 UNK        -0.5000 
     69 N          -2.8500  -21.4085  -46.0316 N.am      12 UNK        -0.5000 
     70 CA         -4.2102  -21.5264  -45.5057 C.3       12 UNK         0.1400 
     71 CB         -4.3747  -20.5850  -44.3037 C.3       12 UNK        -0.1800 
     72 C          -4.6284  -22.9667  -45.1428 C.2       12 UNK         0.5000 
     73 O          -5.8275  -23.2330  -45.0667 O.2       12 UNK        -0.5000 
     74 N          -3.6549  -23.8677  -44.9541 N.am      13 UNK        -0.5000 
     75 CA         -3.8695  -25.3018  -44.7875 C.3       13 UNK         0.1400 
     76 CB         -2.9847  -25.8209  -43.6424 C.3       13 UNK        -0.1800 
     77 C          -3.5712  -26.0508  -46.0979 C.2       13 UNK         0.5000 
     78 O          -4.4125  -26.8226  -46.5569 O.2       13 UNK        -0.5000 
     79 N          -2.3868  -25.8107  -46.6793 N.am      14 UNK        -0.5000 
     80 CA         -1.8380  -26.5473  -47.8216 C.3       14 UNK         0.1400 
     81 CB         -0.3623  -26.1622  -48.0092 C.3       14 UNK        -0.1800 
     82 C          -2.6157  -26.3537  -49.1353 C.2       14 UNK         0.5000 
     83 O          -2.8336  -27.3267  -49.8579 O.2       14 UNK        -0.5000 
     84 N          -3.0293  -25.1117  -49.4112 N.am      15 UNK        -0.5000 
     85 CA         -3.8535  -24.7362  -50.5634 C.3       15 UNK         0.1400 
     86 CB         -3.2409  -23.4796  -51.2092 C.3       15 UNK        -0.1800 
     87 C          -5.3117  -24.4733  -50.1406 C.2       15 UNK         0.5000 
     88 O          -6.1145  -24.0382  -50.9679 O.2       15 UNK        -0.5000 
     89 N          -5.6132  -24.6712  -48.8456 N.am      16 UNK        -0.5000 
     90 CA         -6.8683  -24.3472  -48.1558 C.3       16 UNK         0.1400 
     91 CB         -7.9996  -25.2752  -48.6438 C.3       16 UNK        -0.1800 
     92 C          -7.2491  -22.8525  -48.2664 C.2       16 UNK         0.5000 
     93 O          -8.4312  -22.5152  -48.1811 O.2       16 UNK        -0.5000 
     94 N          -6.2496  -21.9966  -48.5407 N.am      17 UNK        -0.5000 
     95 CA         -6.3169  -20.6111  -49.0242 C.3       17 UNK         0.1400 
     96 CB         -7.0030  -19.6794  -48.0064 C.3       17 UNK        -0.1800 
     97 C          -6.9585  -20.4707  -50.4233 C.2       17 UNK         0.5000 
     98 O          -6.3999  -19.7876  -51.2814 O.2       17 UNK        -0.5000 
     99 N          -8.1120  -21.1187  -50.6244 N.am      18 UNK        -0.5000 
    100 CA        -8.9907  -21.0350  -51.7892 C.3       18 UNK         0.1400 
    101 CB       -10.2351  -21.8970  -51.5268 C.3       18 UNK        -0.1800 
    102 C         -8.3516  -21.4190  -53.1358 C.2       18 UNK         0.5000 
    103 O         -8.7347  -20.8420  -54.1548 O.2       18 UNK        -0.5000 
    104 N         -7.4011  -22.3667  -53.1394 N.am      19 UNK        -0.5000 
    105 CA        -6.7049  -22.7913  -54.3598 C.3       19 UNK         0.1400 
    106 CB        -6.1269  -24.2025  -54.1729 C.3       19 UNK        -0.1800 
    107 C         -5.6122  -21.8015  -54.8118 C.2       19 UNK         0.5000 
    108 O         -5.1400  -21.9152  -55.9434 O.2       19 UNK        -0.5000 
    109 N         -5.2243  -20.8632  -53.9330 N.am      20 UNK        -0.5000 
    110 CA        -4.2842  -19.7452  -54.1066 C.3       20 UNK         0.1400 
    111 CB        -4.7899  -18.7676  -55.1838 C.3       20 UNK        -0.1800 
    112 C         -2.8112  -20.1222  -54.3673 C.2       20 UNK         0.5000 
    113 O         -1.9290  -19.3742  -53.9485 O.2       20 UNK        -0.5000 
    114 N         -2.5671  -21.2434  -55.0567 N.am      21 UNK        -0.5000 
    115 CA        -1.2908  -21.8453  -55.4628 C.3       21 UNK         0.1400 
    116 CB        -0.4392  -22.2404  -54.2427 C.3       21 UNK        -0.1800 
    117 C         -0.4787  -21.0211  -56.4846 C.2       21 UNK         0.5000 
    118 O          0.0039  -21.5939  -57.4629 O.2       21 UNK        -0.5000 
    119 N         -0.3489  -19.7084  -56.2643 N.am      22 UNK        -0.5000 
    120 CA         0.2582  -18.7502  -57.2004 C.3       22 UNK         0.1400 
    121 C         -0.6253  -18.5283  -58.4595 C.2       22 UNK         0.5000 
    122 N         -0.0221  -18.3873  -59.6320 N.am      22 UNK        -0.7600 
    123 O         -1.8486  -18.4391  -58.3775 O.2       22 UNK        -0.5000 
    124 C124        0.5770  -17.3922  -56.5236 C.3       23 UNK        -0.0398 
    125 S125        1.7898  -17.5561  -55.1688 S.3       23 UNK        -0.2404 
    126 C126        0.8324  -16.9521  -53.7443 C.3       23 UNK        -0.0205 
    127 H127        2.9314   -9.5809  -50.2285 H         1 UNK         0.0600 
    128 H128        1.2561   -9.1877  -50.6238 H         1 UNK         0.0600 
    129 H129        2.2472  -10.0908  -51.7742 H         1 UNK         0.0600 
    130 H130        3.0853  -11.2447  -48.7800 H         1 UNK         0.3000 
    131 H131        2.7738  -13.0292  -47.5840 H         1 UNK         0.0600 
    132 H132        2.7564  -14.1054  -50.0167 H         1 UNK         0.0800 
    133 H133        1.1076  -14.5175  -49.6635 H         1 UNK         0.0800 
    134 H134        4.2212  -15.9598  -50.0726 H         1 UNK         0.0800 
    135 H135        4.2647  -17.3234  -48.9952 H         1 UNK         0.0800 
    136 H136        2.5042  -15.8358  -51.8711 H         1 UNK         0.1150 
    137 H137        0.3166  -19.4028  -52.7573 H         1 UNK         0.1150 
    138 H138        2.6029  -19.1520  -49.1445 H         1 UNK         0.1150 
    139 H139        1.1312  -21.4826  -51.4738 H         1 UNK         0.0800 
    140 H140        1.6307  -21.2911  -49.8149 H         1 UNK         0.0800 
    141 H141       -1.2969  -19.7490  -48.0561 H         1 UNK         0.0800 
    142 H142        0.3763  -20.1818  -48.1183 H         1 UNK         0.0800 
    143 H143       -0.6030  -22.7111  -48.0331 H         1 UNK         0.0600 
    144 H144        0.5434  -21.0854  -46.0784 H         1 UNK         0.3000 
    145 H145        0.5945  -23.5352  -43.4293 H         1 UNK         0.0600 
    146 H146        2.5341  -23.9310  -44.9317 H         1 UNK         0.0600 
    147 H147        2.7250  -22.2017  -45.1823 H         1 UNK         0.0600 
    148 H148        2.9836  -22.8955  -43.5848 H         1 UNK         0.0600 
    149 H149        1.4502  -20.8037  -43.5311 H         1 UNK         0.3000 
    150 H150       -1.6343  -19.3684  -42.4017 H         1 UNK         0.0600 
    151 H151       -0.0678  -18.3579  -40.7462 H         1 UNK         0.0600 
    152 H152        1.1026  -19.6405  -41.0490 H         1 UNK         0.0600 
    153 H153       -0.4510  -20.0199  -40.3182 H         1 UNK         0.0600 
    154 H154        0.8240  -18.1398  -43.0753 H         1 UNK         0.3000 
    155 H155        0.3174  -17.8856  -46.6179 H         1 UNK         0.0600 
    156 H156       -0.8537  -15.9663  -45.6392 H         1 UNK         0.0600 
    157 H157        0.8152  -15.5159  -45.9311 H         1 UNK         0.0600 
    158 H158        0.2816  -15.8877  -44.2969 H         1 UNK         0.0600 
    159 H159        2.4258  -17.1676  -44.7731 H         1 UNK         0.3000 
    160 H160        4.3526  -20.1331  -45.2472 H         1 UNK         0.0600 
    161 H161        4.8952  -18.8132  -47.2667 H         1 UNK         0.0600 
    162 H162        6.0537  -18.4705  -45.9939 H         1 UNK         0.0600 
    163 H163        4.7780  -17.3075  -46.3590 H         1 UNK         0.0600 
    164 H164        4.8525  -17.6684  -43.8720 H         1 UNK         0.3000 
    165 H165        3.3051  -18.5389  -40.7958 H         1 UNK         0.0600 
    166 H166        5.5948  -18.1912  -39.9165 H         1 UNK         0.0600 
    167 H167        5.4862  -19.7556  -40.7066 H         1 UNK         0.0600 
    168 H168        6.2809  -18.4166  -41.5260 H         1 UNK         0.0600 
    169 H169        4.9222  -16.3253  -41.5067 H         1 UNK         0.3000 
    170 H170        4.0063  -14.2833  -41.6797 H         1 UNK         0.0600 
    171 H171        3.6165  -13.2606  -43.9363 H         1 UNK         0.0600 
    172 H172        4.4238  -14.8155  -44.0687 H         1 UNK         0.0600 
    173 H173        2.7088  -14.6852  -44.4331 H         1 UNK         0.0600 
    174 H174        1.3625  -13.5896  -42.6599 H         1 UNK         0.3000 
    175 H175       -0.2053  -13.3424  -39.5231 H         1 UNK         0.0600 
    176 H176        1.0571  -10.9144  -40.9077 H         1 UNK         0.0600 
    177 H177       -0.3340  -10.8793  -39.8229 H         1 UNK         0.0600 
    178 H178        1.2472  -11.3353  -39.2098 H         1 UNK         0.0600 
    179 H179       -0.6938  -12.1305  -42.1073 H         1 UNK         0.3000 
    180 H180       -1.9749  -14.8836  -43.7421 H         1 UNK         0.0600 
    181 H181       -3.9610  -14.6464  -42.2395 H         1 UNK         0.0600 
    182 H182       -4.2378  -13.9001  -43.8032 H         1 UNK         0.0600 
    183 H183       -3.8752  -12.8962  -42.3979 H         1 UNK         0.0600 
    184 H184       -2.5501  -12.3093  -44.4752 H         1 UNK         0.3000 
    185 H185       -1.4194  -11.5255  -46.3026 H         1 UNK         0.0600 
    186 H186        0.6622  -10.1130  -44.5363 H         1 UNK         0.0600 
    187 H187       -0.2348   -9.3699  -45.8610 H         1 UNK         0.0600 
    188 H188       -1.0813   -9.9081  -44.4201 H         1 UNK         0.0600 
    189 H189        1.4174  -11.1945  -46.6062 H         1 UNK         0.3000 
    190 H190       -2.2139  -20.8082  -45.5137 H         1 UNK         0.3000 
    191 H191       -4.8860  -21.1873  -46.2894 H         1 UNK         0.0600 
    192 H192       -3.7292  -20.8737  -43.4749 H         1 UNK         0.0600 
    193 H193       -5.4020  -20.5957  -43.9376 H         1 UNK         0.0600 
    194 H194       -4.1364  -19.5556  -44.5722 H         1 UNK         0.0600 
    195 H195       -2.6923  -23.5657  -45.0422 H         1 UNK         0.3000 
    196 H196       -4.9084  -25.5032  -44.5181 H         1 UNK         0.0600 
    197 H197       -3.1233  -26.8930  -43.4977 H         1 UNK         0.0600 
    198 H198       -3.2359  -25.3304  -42.7018 H         1 UNK         0.0600 
    199 H199       -1.9248  -25.6494  -43.8323 H         1 UNK         0.0600 
    200 H200       -1.7530  -25.1472  -46.2363 H         1 UNK         0.3000 
    201 H201       -1.8774  -27.6100  -47.5734 H         1 UNK         0.0600 
    202 H202        0.2179  -26.3751  -47.1111 H         1 UNK         0.0600 
    203 H203       -0.2483  -25.1020  -48.2361 H         1 UNK         0.0600 
    204 H204        0.0882  -26.7239  -48.8284 H         1 UNK         0.0600 
    205 H205       -2.8344  -24.3615  -48.7536 H         1 UNK         0.3000 
    206 H206       -3.8663  -25.5337  -51.3086 H         1 UNK         0.0600 
    207 H207       -3.7563  -23.2069  -52.1293 H         1 UNK         0.0600 
    208 H208       -3.2960  -22.6169  -50.5454 H         1 UNK         0.0600 
    209 H209       -2.1926  -23.6377  -51.4623 H         1 UNK         0.0600 
    210 H210       -4.8815  -25.0478  -48.2596 H         1 UNK         0.3000 
    211 H211       -6.7054  -24.5566  -47.0994 H         1 UNK         0.0600 
    212 H212       -8.2713  -25.0726  -49.6804 H         1 UNK         0.0600 
    213 H213       -8.8986  -25.1486  -48.0397 H         1 UNK         0.0600 
    214 H214       -7.7077  -26.3229  -48.5718 H         1 UNK         0.0600 
    215 H215       -5.3220  -22.4011  -48.5789 H         1 UNK         0.3000 
    216 H216       -5.2800  -20.2848  -49.1205 H         1 UNK         0.0600 
    217 H217       -6.9551  -18.6424  -48.3407 H         1 UNK         0.0600 
    218 H218       -6.5207  -19.7253  -47.0311 H         1 UNK         0.0600 
    219 H219       -8.0562  -19.9245  -47.8692 H         1 UNK         0.0600 
    220 H220       -8.4605  -21.6648  -49.8409 H         1 UNK         0.3000 
    221 H221       -9.3104  -19.9943  -51.8716 H         1 UNK         0.0600 
    222 H222       -9.9715  -22.9459  -51.3839 H         1 UNK         0.0600 
    223 H223      -10.7674  -21.5614  -50.6366 H         1 UNK         0.0600 
    224 H224      -10.9344  -21.8434  -52.3623 H         1 UNK         0.0600 
    225 H225       -7.1227  -22.8144  -52.2708 H         1 UNK         0.3000 
    226 H226       -7.4360  -22.8494  -55.1690 H         1 UNK         0.0600 
    227 H227       -6.8883  -24.9002  -53.8239 H         1 UNK         0.0600 
    228 H228       -5.7389  -24.5899  -55.1157 H         1 UNK         0.0600 
    229 H229       -5.3064  -24.2161  -53.4586 H         1 UNK         0.0600 
    230 H230       -5.6864  -20.8687  -53.0311 H         1 UNK         0.3000 
    231 H231       -4.2948  -19.2128  -53.1542 H         1 UNK         0.0600 
    232 H232       -4.7969  -19.2222  -56.1749 H         1 UNK         0.0600 
    233 H233       -5.8013  -18.4266  -54.9624 H         1 UNK         0.0600 
    234 H234       -4.1528  -17.8838  -55.2374 H         1 UNK         0.0600 
    235 H235       -3.3932  -21.7093  -55.4244 H         1 UNK         0.3000 
    236 H236       -1.5660  -22.7711  -55.9703 H         1 UNK         0.0600 
    237 H237       -0.1267  -21.3725  -53.6666 H         1 UNK         0.0600 
    238 H238       -0.9905  -22.9026  -53.5755 H         1 UNK         0.0600 
    239 H239        0.4640  -22.7672  -54.5524 H         1 UNK         0.0600 
    240 H240       -0.7942  -19.3263  -55.4351 H         1 UNK         0.3000 
    241 H241        1.2042  -19.1828  -57.5329 H         1 UNK         0.0600 
    242 H242       -0.5828  -18.2273  -60.4548 H         1 UNK         0.3800 
    243 H243        0.9806  -18.4495  -59.7233 H         1 UNK         0.3800 
    244 H244        1.0017  -16.6979  -57.2509 H         1 UNK         0.0800 
    245 H245       -0.3383  -16.9221  -56.1603 H         1 UNK         0.0800 
    246 H246       -0.2199  -17.2169  -53.8577 H         1 UNK         0.0800 
    247 H247        0.8763  -15.8625  -53.7115 H         1 UNK         0.0800 
@<TRIPOS>BOND
     1    1    2 1    
     2    1  127 1    
     3    1  128 1    
     4    1  129 1    
     5    2    3 2    
     6    2    4 am   BACKBONE|DICT|INTERRES
     7    4    5 1    
     8    4  130 1    
     9    5    6 1    
    10    5   65 1    
    11    5  131 1    
    12    6    7 1    
    13    6  132 1    
    14    6  133 1    
    15    7    8 1    
    16    8    9 1    
    17    8  134 1    
    18    8  135 1    
    19    9   10 ar   
    20    9   14 ar   
    21   10   11 ar   
    22   10  136 1    
    23   11   12 ar   
    24   11  126 1    
    25   12   13 ar   
    26   12  137 1    
    27   13   14 ar   
    28   13   15 1    
    29   14  138 1    
    30   15   16 1    
    31   15  139 1    
    32   15  140 1    
    33   16   17 1    
    34   17   18 1    
    35   17  141 1    
    36   17  142 1    
    37   18   19 1    
    38   18   67 1    
    39   18  143 1    
    40   19   20 am   BACKBONE|DICT|INTERRES
    41   19  144 1    
    42   20   21 2    
    43   20   22 1    
    44   22   23 1    
    45   22   24 1    
    46   22  145 1    
    47   23  146 1    
    48   23  147 1    
    49   23  148 1    
    50   24   25 am   BACKBONE|DICT|INTERRES
    51   24  149 1    
    52   25   26 2    
    53   25   27 1    
    54   27   28 1    
    55   27   29 1    
    56   27  150 1    
    57   28  151 1    
    58   28  152 1    
    59   28  153 1    
    60   29   30 am   BACKBONE|DICT|INTERRES
    61   29  154 1    
    62   30   31 2    
    63   30   32 1    
    64   32   33 1    
    65   32   34 1    
    66   32  155 1    
    67   33  156 1    
    68   33  157 1    
    69   33  158 1    
    70   34   35 am   BACKBONE|DICT|INTERRES
    71   34  159 1    
    72   35   36 2    
    73   35   37 1    
    74   37   38 1    
    75   37   39 1    
    76   37  160 1    
    77   38  161 1    
    78   38  162 1    
    79   38  163 1    
    80   39   40 am   BACKBONE|DICT|INTERRES
    81   39  164 1    
    82   40   41 2    
    83   40   42 1    
    84   42   43 1    
    85   42   44 1    
    86   42  165 1    
    87   43  166 1    
    88   43  167 1    
    89   43  168 1    
    90   44   45 am   BACKBONE|DICT|INTERRES
    91   44  169 1    
    92   45   46 2    
    93   45   47 1    
    94   47   48 1    
    95   47   49 1    
    96   47  170 1    
    97   48  171 1    
    98   48  172 1    
    99   48  173 1    
   100   49   50 am   BACKBONE|DICT|INTERRES
   101   49  174 1    
   102   50   51 2    
   103   50   52 1    
   104   52   53 1    
   105   52   54 1    
   106   52  175 1    
   107   53  176 1    
   108   53  177 1    
   109   53  178 1    
   110   54   55 am   BACKBONE|DICT|INTERRES
   111   54  179 1    
   112   55   56 2    
   113   55   57 1    
   114   57   58 1    
   115   57   59 1    
   116   57  180 1    
   117   58  181 1    
   118   58  182 1    
   119   58  183 1    
   120   59   60 am   BACKBONE|DICT|INTERRES
   121   59  184 1    
   122   60   61 2    
   123   60   62 1    
   124   62   63 1    
   125   62   64 1    
   126   62  185 1    
   127   63  186 1    
   128   63  187 1    
   129   63  188 1    
   130   64   65 am   BACKBONE|DICT|INTERRES
   131   64  189 1    
   132   65   66 2    
   133   67   68 2    
   134   67   69 am   BACKBONE|DICT|INTERRES
   135   69   70 1    
   136   69  190 1    
   137   70   71 1    
   138   70   72 1    
   139   70  191 1    
   140   71  192 1    
   141   71  193 1    
   142   71  194 1    
   143   72   73 2    
   144   72   74 am   BACKBONE|DICT|INTERRES
   145   74   75 1    
   146   74  195 1    
   147   75   76 1    
   148   75   77 1    
   149   75  196 1    
   150   76  197 1    
   151   76  198 1    
   152   76  199 1    
   153   77   78 2    
   154   77   79 am   BACKBONE|DICT|INTERRES
   155   79   80 1    
   156   79  200 1    
   157   80   81 1    
   158   80   82 1    
   159   80  201 1    
   160   81  202 1    
   161   81  203 1    
   162   81  204 1    
   163   82   83 2    
   164   82   84 am   BACKBONE|DICT|INTERRES
   165   84   85 1    
   166   84  205 1    
   167   85   86 1    
   168   85   87 1    
   169   85  206 1    
   170   86  207 1    
   171   86  208 1    
   172   86  209 1    
   173   87   88 2    
   174   87   89 am   BACKBONE|DICT|INTERRES
   175   89   90 1    
   176   89  210 1    
   177   90   91 1    
   178   90   92 1    
   179   90  211 1    
   180   91  212 1    
   181   91  213 1    
   182   91  214 1    
   183   92   93 2    
   184   92   94 am   BACKBONE|DICT|INTERRES
   185   94   95 1    
   186   94  215 1    
   187   95   96 1    
   188   95   97 1    
   189   95  216 1    
   190   96  217 1    
   191   96  218 1    
   192   96  219 1    
   193   97   98 2    
   194   97   99 am   BACKBONE|DICT|INTERRES
   195   99  100 1    
   196   99  220 1    
   197  100  101 1    
   198  100  102 1    
   199  100  221 1    
   200  101  222 1    
   201  101  223 1    
   202  101  224 1    
   203  102  103 2    
   204  102  104 am   BACKBONE|DICT|INTERRES
   205  104  105 1    
   206  104  225 1    
   207  105  106 1    
   208  105  107 1    
   209  105  226 1    
   210  106  227 1    
   211  106  228 1    
   212  106  229 1    
   213  107  108 2    
   214  107  109 am   BACKBONE|DICT|INTERRES
   215  109  110 1    
   216  109  230 1    
   217  110  111 1    
   218  110  112 1    
   219  110  231 1    
   220  111  232 1    
   221  111  233 1    
   222  111  234 1    
   223  112  113 2    
   224  112  114 am   BACKBONE|DICT|INTERRES
   225  114  115 1    
   226  114  235 1    
   227  115  116 1    
   228  115  117 1    
   229  115  236 1    
   230  116  237 1    
   231  116  238 1    
   232  116  239 1    
   233  117  118 2    
   234  117  119 am   BACKBONE|DICT|INTERRES
   235  119  120 1    
   236  119  240 1    
   237  120  121 1    
   238  120  124 1    
   239  120  241 1    
   240  121  122 am   BACKBONE|DICT|INTERRES
   241  121  123 2    
   242  122  242 1    
   243  122  243 1    
   244  124  125 1    
   245  124  244 1    
   246  124  245 1    
   247  125  126 1    
   248  126  246 1    
   249  126  247 1    
@<TRIPOS>SUBSTRUCTURE
     1 UNK         1 GROUP             0       ****    0 ROOT    
