@<TRIPOS>MOLECULE
3R540
247   249    1
SMALL
USER_CHARGES


@<TRIPOS>ATOM
      1 CA         -2.8756  -14.8053  -43.4154 C.3       0 UNK        -0.1800 
      2 C          -2.8766  -14.1562  -44.7898 C.2       0 UNK         0.5000 
      3 O          -2.4110  -13.0252  -44.9261 O.2       0 UNK        -0.5000 
      4 N          -3.4125  -14.8580  -45.7951 N.am      1 UNK        -0.5000 
      5 CA         -3.6834  -14.3107  -47.1319 C.3       1 UNK         0.1400 
      6 C6         -5.1670  -14.4912  -47.5382 C.3       23 UNK        -0.0398 
      7 S7         -6.3311  -13.7885  -46.3156 S.3       23 UNK        -0.2404 
      8 C8         -7.8439  -14.7670  -46.6173 C.3       23 UNK        -0.0205 
      9 C9         -7.6449  -16.2794  -46.5476 C.ar      23 UNK        -0.0193 
     10 C10        -8.2779  -17.0976  -47.4884 C.ar      23 UNK        -0.1150 
     11 C11        -8.0997  -18.4829  -47.4643 C.ar      23 UNK        -0.0193 
     12 C12        -7.2685  -19.0515  -46.4954 C.ar      23 UNK        -0.1150 
     13 C13        -6.6246  -18.2466  -45.5511 C.ar      23 UNK        -0.0193 
     14 C14        -6.8364  -16.8655  -45.5665 C.ar      23 UNK        -0.1150 
     15 C15        -5.6893  -18.8677  -44.5236 C.3       23 UNK        -0.0205 
     16 S16        -3.9441  -18.4243  -44.8151 S.3       23 UNK        -0.2404 
     17 C17        -3.6271  -19.0898  -46.4878 C.3       23 UNK        -0.0398 
     18 CA         -2.8864  -20.4486  -46.5462 C.3       11 UNK         0.1400 
     19 N          -1.5140  -20.4044  -46.0262 N.am      11 UNK        -0.5000 
     20 C          -0.5960  -21.3315  -46.3417 C.2       10 UNK         0.5000 
     21 O          -0.8201  -22.2729  -47.1031 O.2       10 UNK        -0.5000 
     22 CA          0.7912  -21.2309  -45.6878 C.3       10 UNK         0.1400 
     23 CB          1.6661  -20.1901  -46.3955 C.3       10 UNK        -0.1800 
     24 N           0.7544  -20.9420  -44.2579 N.am      10 UNK        -0.5000 
     25 C           0.1870  -21.7202  -43.3273 C.2       9 UNK         0.5000 
     26 O          -0.4274  -22.7554  -43.5771 O.2       9 UNK        -0.5000 
     27 CA          0.2995  -21.2371  -41.8745 C.3       9 UNK         0.1400 
     28 CB          1.6956  -21.5270  -41.3024 C.3       9 UNK        -0.1800 
     29 N           0.0142  -19.8081  -41.7865 N.am      9 UNK        -0.5000 
     30 C          -1.2218  -19.2960  -41.8448 C.2       8 UNK         0.5000 
     31 O          -2.2443  -19.9800  -41.8752 O.2       8 UNK        -0.5000 
     32 CA         -1.3357  -17.7642  -41.8991 C.3       8 UNK         0.1400 
     33 CB         -1.4354  -17.1742  -40.4849 C.3       8 UNK        -0.1800 
     34 N          -0.2288  -17.1238  -42.6121 N.am      8 UNK        -0.5000 
     35 C          -0.0161  -17.2216  -43.9317 C.2       7 UNK         0.5000 
     36 O          -0.7093  -17.8906  -44.6968 O.2       7 UNK        -0.5000 
     37 CA          1.1969  -16.4559  -44.4869 C.3       7 UNK         0.1400 
     38 CB          0.8368  -14.9760  -44.6802 C.3       7 UNK        -0.1800 
     39 N           2.4111  -16.5568  -43.6723 N.am      7 UNK        -0.5000 
     40 C           2.9895  -17.6903  -43.2509 C.2       6 UNK         0.5000 
     41 O           2.4940  -18.8081  -43.4027 O.2       6 UNK        -0.5000 
     42 CA          4.3749  -17.5373  -42.5974 C.3       6 UNK         0.1400 
     43 CB          4.9790  -18.8859  -42.1658 C.3       6 UNK        -0.1800 
     44 N           5.2798  -16.8971  -43.5504 N.am      6 UNK        -0.5000 
     45 C           5.6009  -15.5970  -43.5689 C.2       5 UNK         0.5000 
     46 O           5.2342  -14.7881  -42.7163 O.2       5 UNK        -0.5000 
     47 CA          6.4301  -15.1145  -44.7762 C.3       5 UNK         0.1400 
     48 CB          7.9321  -15.2939  -44.5081 C.3       5 UNK        -0.1800 
     49 N           6.0722  -15.8043  -46.0210 N.am      5 UNK        -0.5000 
     50 C           4.8865  -15.6845  -46.6344 C.2       4 UNK         0.5000 
     51 O           3.9872  -14.9424  -46.2363 O.2       4 UNK        -0.5000 
     52 CA          4.6571  -16.5951  -47.8569 C.3       4 UNK         0.1400 
     53 CB          4.3166  -18.0174  -47.3860 C.3       4 UNK        -0.1800 
     54 N           3.5726  -16.1282  -48.7223 N.am      4 UNK        -0.5000 
     55 C           3.5855  -15.0026  -49.4491 C.2       3 UNK         0.5000 
     56 O           4.5551  -14.2447  -49.5110 O.2       3 UNK        -0.5000 
     57 CA          2.3221  -14.6768  -50.2755 C.3       3 UNK         0.1400 
     58 CB          2.6131  -14.8205  -51.7784 C.3       3 UNK        -0.1800 
     59 N           1.1589  -15.5092  -49.9492 N.am      3 UNK        -0.5000 
     60 C           0.3760  -15.3445  -48.8760 C.2       2 UNK         0.5000 
     61 O           0.5700  -14.4841  -48.0161 O.2       2 UNK        -0.5000 
     62 CA         -0.8034  -16.3281  -48.7416 C.3       2 UNK         0.1400 
     63 CB         -0.3238  -17.6982  -48.2400 C.3       2 UNK        -0.1800 
     64 N          -1.8330  -15.8066  -47.8384 N.am      2 UNK        -0.5000 
     65 C          -2.7489  -14.9005  -48.2091 C.2       1 UNK         0.5000 
     66 O          -2.8869  -14.5363  -49.3783 O.2       1 UNK        -0.5000 
     67 C          -3.7127  -21.6024  -45.9381 C.2       11 UNK         0.5000 
     68 O          -4.5348  -22.1868  -46.6432 O.2       11 UNK        -0.5000 
     69 N          -3.4639  -21.9302  -44.6612 N.am      12 UNK        -0.5000 
     70 CA         -4.1250  -23.0215  -43.9436 C.3       12 UNK         0.1400 
     71 CB         -3.8998  -22.8555  -42.4337 C.3       12 UNK        -0.1800 
     72 C          -3.6562  -24.4079  -44.4206 C.2       12 UNK         0.5000 
     73 O          -4.4846  -25.2986  -44.6112 O.2       12 UNK        -0.5000 
     74 N          -2.3410  -24.5579  -44.6289 N.am      13 UNK        -0.5000 
     75 CA         -1.7077  -25.7677  -45.1606 C.3       13 UNK         0.1400 
     76 CB         -0.2041  -25.7168  -44.8456 C.3       13 UNK        -0.1800 
     77 C          -1.9214  -25.9513  -46.6759 C.2       13 UNK         0.5000 
     78 O          -1.6955  -27.0491  -47.1861 O.2       13 UNK        -0.5000 
     79 N          -2.3265  -24.8720  -47.3596 N.am      14 UNK        -0.5000 
     80 CA         -2.4804  -24.7313  -48.8074 C.3       14 UNK         0.1400 
     81 CB         -3.5970  -25.6441  -49.3526 C.3       14 UNK        -0.1800 
     82 C          -1.1394  -24.8842  -49.5510 C.2       14 UNK         0.5000 
     83 O          -1.0729  -25.5370  -50.5945 O.2       14 UNK        -0.5000 
     84 N          -0.0951  -24.2434  -49.0092 N.am      15 UNK        -0.5000 
     85 CA          1.2515  -24.1838  -49.5744 C.3       15 UNK         0.1400 
     86 CB          2.1868  -23.4819  -48.5798 C.3       15 UNK        -0.1800 
     87 C           1.2368  -23.4530  -50.9269 C.2       15 UNK         0.5000 
     88 O           0.7599  -22.3170  -50.9966 O.2       15 UNK        -0.5000 
     89 N           1.6923  -24.1452  -51.9806 N.am      16 UNK        -0.5000 
     90 CA          1.6341  -23.7281  -53.3879 C.3       16 UNK         0.1400 
     91 CB          2.6073  -22.5583  -53.6465 C.3       16 UNK        -0.1800 
     92 C           0.1924  -23.4208  -53.8513 C.2       16 UNK         0.5000 
     93 O          -0.0299  -22.4388  -54.5589 O.2       16 UNK        -0.5000 
     94 N          -0.7688  -24.2365  -53.3880 N.am      17 UNK        -0.5000 
     95 CA         -2.2183  -24.0676  -53.5488 C.3       17 UNK         0.1400 
     96 CB         -2.6374  -24.2409  -55.0238 C.3       17 UNK        -0.1800 
     97 C          -2.7215  -22.7514  -52.9174 C.2       17 UNK         0.5000 
     98 O          -3.5002  -22.0245  -53.5335 O.2       17 UNK        -0.5000 
     99 N          -2.2164  -22.4650  -51.7069 N.am      18 UNK        -0.5000 
    100 CA        -2.4391  -21.2596  -50.9004 C.3       18 UNK         0.1400 
    101 CB        -3.8939  -21.2012  -50.3941 C.3       18 UNK        -0.1800 
    102 C         -1.9954  -19.9850  -51.6464 C.2       18 UNK         0.5000 
    103 O         -2.7501  -19.0136  -51.7320 O.2       18 UNK        -0.5000 
    104 N         -0.7738  -20.0445  -52.1967 N.am      19 UNK        -0.5000 
    105 CA        -0.1519  -19.0557  -53.0831 C.3       19 UNK         0.1400 
    106 CB         0.1374  -17.7445  -52.3250 C.3       19 UNK        -0.1800 
    107 C         -0.9475  -18.8491  -54.3916 C.2       19 UNK         0.5000 
    108 O         -1.1945  -17.7133  -54.8005 O.2       19 UNK        -0.5000 
    109 N         -1.3234  -19.9724  -55.0196 N.am      20 UNK        -0.5000 
    110 CA        -2.0226  -20.1089  -56.3019 C.3       20 UNK         0.1400 
    111 CB        -1.1077  -19.6521  -57.4573 C.3       20 UNK        -0.1800 
    112 C         -3.4209  -19.4545  -56.3556 C.2       20 UNK         0.5000 
    113 O         -3.8859  -19.1028  -57.4420 O.2       20 UNK        -0.5000 
    114 N         -4.0763  -19.3139  -55.1987 N.am      21 UNK        -0.5000 
    115 CA        -5.3893  -18.6987  -55.0331 C.3       21 UNK         0.1400 
    116 CB        -5.3193  -17.1763  -55.3070 C.3       21 UNK        -0.1800 
    117 C         -5.8960  -19.0570  -53.6280 C.2       21 UNK         0.5000 
    118 O         -6.2318  -20.2155  -53.3838 O.2       21 UNK        -0.5000 
    119 N         -5.9242  -18.0689  -52.7313 N.am      22 UNK        -0.5000 
    120 CA        -6.1541  -18.2178  -51.2946 C.3       22 UNK         0.1400 
    121 C         -5.5518  -16.9811  -50.5869 C.2       22 UNK         0.5000 
    122 N         -4.2303  -16.8632  -50.5833 N.am      22 UNK        -0.7600 
    123 O         -6.2611  -16.0984  -50.1158 O.2       22 UNK        -0.5000 
    124 C124       -7.6283  -18.5604  -50.9205 C.3       23 UNK        -0.0398 
    125 S125       -7.7221  -19.9819  -49.7767 S.3       23 UNK        -0.2404 
    126 C126       -8.8242  -19.3710  -48.4642 C.3       23 UNK        -0.0205 
    127 H127       -3.4410  -14.1924  -42.7138 H         1 UNK         0.0600 
    128 H128       -1.8576  -14.8958  -43.0404 H         1 UNK         0.0600 
    129 H129       -3.3319  -15.7936  -43.4390 H         1 UNK         0.0600 
    130 H130       -3.7742  -15.7853  -45.6180 H         1 UNK         0.3000 
    131 H131       -3.4869  -13.2368  -47.1395 H         1 UNK         0.0600 
    132 H132       -5.3771  -15.5514  -47.6786 H         1 UNK         0.0800 
    133 H133       -5.3672  -14.0118  -48.4981 H         1 UNK         0.0800 
    134 H134       -8.5992  -14.4807  -45.8847 H         1 UNK         0.0800 
    135 H135       -8.2370  -14.4830  -47.5949 H         1 UNK         0.0800 
    136 H136       -8.9106  -16.6544  -48.2446 H         1 UNK         0.1150 
    137 H137       -7.1169  -20.1222  -46.4852 H         1 UNK         0.1150 
    138 H138       -6.3433  -16.2451  -44.8316 H         1 UNK         0.1150 
    139 H139       -5.9753  -18.5262  -43.5280 H         1 UNK         0.0800 
    140 H140       -5.7899  -19.9537  -44.5117 H         1 UNK         0.0800 
    141 H141       -3.0418  -18.3403  -47.0182 H         1 UNK         0.0800 
    142 H142       -4.5595  -19.1567  -47.0478 H         1 UNK         0.0800 
    143 H143       -2.7996  -20.6824  -47.6094 H         1 UNK         0.0600 
    144 H144       -1.2703  -19.6284  -45.4151 H         1 UNK         0.3000 
    145 H145        1.2695  -22.2049  -45.8086 H         1 UNK         0.0600 
    146 H146        2.7089  -20.2953  -46.0960 H         1 UNK         0.0600 
    147 H147        1.6236  -20.2942  -47.4801 H         1 UNK         0.0600 
    148 H148        1.3520  -19.1782  -46.1487 H         1 UNK         0.0600 
    149 H149        1.2608  -20.1147  -43.9526 H         1 UNK         0.3000 
    150 H150       -0.4314  -21.7850  -41.2756 H         1 UNK         0.0600 
    151 H151        1.9077  -22.5967  -41.3227 H         1 UNK         0.0600 
    152 H152        1.7726  -21.1997  -40.2656 H         1 UNK         0.0600 
    153 H153        2.4809  -21.0283  -41.8706 H         1 UNK         0.0600 
    154 H154        0.8049  -19.1808  -41.8342 H         1 UNK         0.3000 
    155 H155       -2.2610  -17.5354  -42.4280 H         1 UNK         0.0600 
    156 H156       -0.5262  -17.3512  -39.9092 H         1 UNK         0.0600 
    157 H157       -2.2653  -17.6194  -39.9343 H         1 UNK         0.0600 
    158 H158       -1.6096  -16.0986  -40.5183 H         1 UNK         0.0600 
    159 H159        0.4059  -16.5638  -42.0624 H         1 UNK         0.3000 
    160 H160        1.4362  -16.8735  -45.4654 H         1 UNK         0.0600 
    161 H161        1.6454  -14.4281  -45.1622 H         1 UNK         0.0600 
    162 H162        0.6174  -14.4828  -43.7328 H         1 UNK         0.0600 
    163 H163       -0.0398  -14.8697  -45.3194 H         1 UNK         0.0600 
    164 H164        2.9120  -15.6920  -43.5219 H         1 UNK         0.3000 
    165 H165        4.2544  -16.9206  -41.7045 H         1 UNK         0.0600 
    166 H166        5.9591  -18.7488  -41.7087 H         1 UNK         0.0600 
    167 H167        4.3446  -19.3795  -41.4288 H         1 UNK         0.0600 
    168 H168        5.0957  -19.5669  -43.0099 H         1 UNK         0.0600 
    169 H169        5.5995  -17.4744  -44.3140 H         1 UNK         0.3000 
    170 H170        6.2323  -14.0488  -44.9100 H         1 UNK         0.0600 
    171 H171        8.2305  -14.7727  -43.5975 H         1 UNK         0.0600 
    172 H172        8.1986  -16.3446  -44.3871 H         1 UNK         0.0600 
    173 H173        8.5298  -14.8870  -45.3241 H         1 UNK         0.0600 
    174 H174        6.7656  -16.4299  -46.4054 H         1 UNK         0.3000 
    175 H175        5.5747  -16.6246  -48.4479 H         1 UNK         0.0600 
    176 H176        3.4386  -18.0159  -46.7403 H         1 UNK         0.0600 
    177 H177        4.1174  -18.6814  -48.2276 H         1 UNK         0.0600 
    178 H178        5.1385  -18.4545  -46.8180 H         1 UNK         0.0600 
    179 H179        2.7246  -16.6717  -48.7146 H         1 UNK         0.3000 
    180 H180        2.0679  -13.6332  -50.0778 H         1 UNK         0.0600 
    181 H181        2.8845  -15.8441  -52.0397 H         1 UNK         0.0600 
    182 H182        3.4390  -14.1755  -52.0814 H         1 UNK         0.0600 
    183 H183        1.7475  -14.5377  -52.3778 H         1 UNK         0.0600 
    184 H184        0.9337  -16.2332  -50.6151 H         1 UNK         0.3000 
    185 H185       -1.2375  -16.4709  -49.7333 H         1 UNK         0.0600 
    186 H186        0.5053  -18.0790  -48.8371 H         1 UNK         0.0600 
    187 H187        0.0123  -17.6435  -47.2076 H         1 UNK         0.0600 
    188 H188       -1.1190  -18.4398  -48.2988 H         1 UNK         0.0600 
    189 H189       -1.7381  -16.0259  -46.8578 H         1 UNK         0.3000 
    190 H190       -2.7696  -21.4035  -44.1489 H         1 UNK         0.3000 
    191 H191       -5.1986  -22.9509  -44.1317 H         1 UNK         0.0600 
    192 H192       -4.3905  -23.6531  -41.8747 H         1 UNK         0.0600 
    193 H193       -4.3090  -21.9097  -42.0779 H         1 UNK         0.0600 
    194 H194       -2.8401  -22.8776  -42.1774 H         1 UNK         0.0600 
    195 H195       -1.7132  -23.7955  -44.3802 H         1 UNK         0.3000 
    196 H196       -2.1364  -26.6362  -44.6566 H         1 UNK         0.0600 
    197 H197        0.2998  -26.6221  -45.1863 H         1 UNK         0.0600 
    198 H198       -0.0280  -25.6309  -43.7733 H         1 UNK         0.0600 
    199 H199        0.2784  -24.8685  -45.3335 H         1 UNK         0.0600 
    200 H200       -2.4341  -24.0162  -46.8323 H         1 UNK         0.3000 
    201 H201       -2.7939  -23.7008  -48.9661 H         1 UNK         0.0600 
    202 H202       -4.5282  -25.4944  -48.8062 H         1 UNK         0.0600 
    203 H203       -3.3317  -26.6993  -49.2831 H         1 UNK         0.0600 
    204 H204       -3.7984  -25.4267  -50.4022 H         1 UNK         0.0600 
    205 H205       -0.2713  -23.6506  -48.2010 H         1 UNK         0.3000 
    206 H206        1.6033  -25.2076  -49.7162 H         1 UNK         0.0600 
    207 H207        2.1966  -23.9929  -47.6169 H         1 UNK         0.0600 
    208 H208        3.2115  -23.4654  -48.9526 H         1 UNK         0.0600 
    209 H209        1.8834  -22.4494  -48.4095 H         1 UNK         0.0600 
    210 H210        2.0438  -25.0796  -51.8224 H         1 UNK         0.3000 
    211 H211        1.9712  -24.5785  -53.9821 H         1 UNK         0.0600 
    212 H212        2.3043  -21.6526  -53.1207 H         1 UNK         0.0600 
    213 H213        2.6563  -22.3177  -54.7092 H         1 UNK         0.0600 
    214 H214        3.6181  -22.8090  -53.3252 H         1 UNK         0.0600 
    215 H215       -0.4934  -24.9883  -52.7677 H         1 UNK         0.3000 
    216 H216       -2.6862  -24.8726  -52.9800 H         1 UNK         0.0600 
    217 H217       -3.7228  -24.2151  -55.1264 H         1 UNK         0.0600 
    218 H218       -2.2315  -23.4551  -55.6599 H         1 UNK         0.0600 
    219 H219       -2.2977  -25.1984  -55.4184 H         1 UNK         0.0600 
    220 H220       -1.5010  -23.0866  -51.3583 H         1 UNK         0.3000 
    221 H221       -1.7900  -21.3435  -50.0271 H         1 UNK         0.0600 
    222 H222       -4.6025  -21.1237  -51.2186 H         1 UNK         0.0600 
    223 H223       -4.1584  -22.0883  -49.8213 H         1 UNK         0.0600 
    224 H224       -4.0461  -20.3424  -49.7400 H         1 UNK         0.0600 
    225 H225       -0.2270  -20.8828  -52.0223 H         1 UNK         0.3000 
    226 H226        0.8090  -19.4790  -53.3793 H         1 UNK         0.0600 
    227 H227        0.7135  -17.0577  -52.9459 H         1 UNK         0.0600 
    228 H228       -0.7806  -17.2318  -52.0368 H         1 UNK         0.0600 
    229 H229        0.7191  -17.9414  -51.4254 H         1 UNK         0.0600 
    230 H230       -1.0209  -20.8568  -54.6177 H         1 UNK         0.3000 
    231 H231       -2.1958  -21.1777  -56.4288 H         1 UNK         0.0600 
    232 H232       -0.9321  -18.5763  -57.4309 H         1 UNK         0.0600 
    233 H233       -1.5480  -19.8889  -58.4265 H         1 UNK         0.0600 
    234 H234       -0.1400  -20.1521  -57.4135 H         1 UNK         0.0600 
    235 H235       -3.6641  -19.7021  -54.3579 H         1 UNK         0.3000 
    236 H236       -6.0815  -19.1506  -55.7463 H         1 UNK         0.0600 
    237 H237       -5.0866  -16.9714  -56.3516 H         1 UNK         0.0600 
    238 H238       -6.2748  -16.6921  -55.1008 H         1 UNK         0.0600 
    239 H239       -4.5535  -16.6891  -54.7018 H         1 UNK         0.0600 
    240 H240       -5.6114  -17.1502  -53.0133 H         1 UNK         0.3000 
    241 H241       -5.5267  -19.0502  -50.9839 H         1 UNK         0.0600 
    242 H242       -3.6503  -17.5804  -51.0167 H         1 UNK         0.3800 
    243 H243       -3.8032  -16.0278  -50.2000 H         1 UNK         0.3800 
    244 H244       -8.1612  -17.7045  -50.5056 H         1 UNK         0.0800 
    245 H245       -8.1950  -18.8396  -51.8092 H         1 UNK         0.0800 
    246 H246       -9.6740  -18.8500  -48.9082 H         1 UNK         0.0800 
    247 H247       -9.2418  -20.2293  -47.9359 H         1 UNK         0.0800 
@<TRIPOS>BOND
     1    1    2 1    
     2    1  127 1    
     3    1  128 1    
     4    1  129 1    
     5    2    3 2    
     6    2    4 am   BACKBONE|DICT|INTERRES
     7    4    5 1    
     8    4  130 1    
     9    5    6 1    
    10    5   65 1    
    11    5  131 1    
    12    6    7 1    
    13    6  132 1    
    14    6  133 1    
    15    7    8 1    
    16    8    9 1    
    17    8  134 1    
    18    8  135 1    
    19    9   10 ar   
    20    9   14 ar   
    21   10   11 ar   
    22   10  136 1    
    23   11   12 ar   
    24   11  126 1    
    25   12   13 ar   
    26   12  137 1    
    27   13   14 ar   
    28   13   15 1    
    29   14  138 1    
    30   15   16 1    
    31   15  139 1    
    32   15  140 1    
    33   16   17 1    
    34   17   18 1    
    35   17  141 1    
    36   17  142 1    
    37   18   19 1    
    38   18   67 1    
    39   18  143 1    
    40   19   20 am   BACKBONE|DICT|INTERRES
    41   19  144 1    
    42   20   21 2    
    43   20   22 1    
    44   22   23 1    
    45   22   24 1    
    46   22  145 1    
    47   23  146 1    
    48   23  147 1    
    49   23  148 1    
    50   24   25 am   BACKBONE|DICT|INTERRES
    51   24  149 1    
    52   25   26 2    
    53   25   27 1    
    54   27   28 1    
    55   27   29 1    
    56   27  150 1    
    57   28  151 1    
    58   28  152 1    
    59   28  153 1    
    60   29   30 am   BACKBONE|DICT|INTERRES
    61   29  154 1    
    62   30   31 2    
    63   30   32 1    
    64   32   33 1    
    65   32   34 1    
    66   32  155 1    
    67   33  156 1    
    68   33  157 1    
    69   33  158 1    
    70   34   35 am   BACKBONE|DICT|INTERRES
    71   34  159 1    
    72   35   36 2    
    73   35   37 1    
    74   37   38 1    
    75   37   39 1    
    76   37  160 1    
    77   38  161 1    
    78   38  162 1    
    79   38  163 1    
    80   39   40 am   BACKBONE|DICT|INTERRES
    81   39  164 1    
    82   40   41 2    
    83   40   42 1    
    84   42   43 1    
    85   42   44 1    
    86   42  165 1    
    87   43  166 1    
    88   43  167 1    
    89   43  168 1    
    90   44   45 am   BACKBONE|DICT|INTERRES
    91   44  169 1    
    92   45   46 2    
    93   45   47 1    
    94   47   48 1    
    95   47   49 1    
    96   47  170 1    
    97   48  171 1    
    98   48  172 1    
    99   48  173 1    
   100   49   50 am   BACKBONE|DICT|INTERRES
   101   49  174 1    
   102   50   51 2    
   103   50   52 1    
   104   52   53 1    
   105   52   54 1    
   106   52  175 1    
   107   53  176 1    
   108   53  177 1    
   109   53  178 1    
   110   54   55 am   BACKBONE|DICT|INTERRES
   111   54  179 1    
   112   55   56 2    
   113   55   57 1    
   114   57   58 1    
   115   57   59 1    
   116   57  180 1    
   117   58  181 1    
   118   58  182 1    
   119   58  183 1    
   120   59   60 am   BACKBONE|DICT|INTERRES
   121   59  184 1    
   122   60   61 2    
   123   60   62 1    
   124   62   63 1    
   125   62   64 1    
   126   62  185 1    
   127   63  186 1    
   128   63  187 1    
   129   63  188 1    
   130   64   65 am   BACKBONE|DICT|INTERRES
   131   64  189 1    
   132   65   66 2    
   133   67   68 2    
   134   67   69 am   BACKBONE|DICT|INTERRES
   135   69   70 1    
   136   69  190 1    
   137   70   71 1    
   138   70   72 1    
   139   70  191 1    
   140   71  192 1    
   141   71  193 1    
   142   71  194 1    
   143   72   73 2    
   144   72   74 am   BACKBONE|DICT|INTERRES
   145   74   75 1    
   146   74  195 1    
   147   75   76 1    
   148   75   77 1    
   149   75  196 1    
   150   76  197 1    
   151   76  198 1    
   152   76  199 1    
   153   77   78 2    
   154   77   79 am   BACKBONE|DICT|INTERRES
   155   79   80 1    
   156   79  200 1    
   157   80   81 1    
   158   80   82 1    
   159   80  201 1    
   160   81  202 1    
   161   81  203 1    
   162   81  204 1    
   163   82   83 2    
   164   82   84 am   BACKBONE|DICT|INTERRES
   165   84   85 1    
   166   84  205 1    
   167   85   86 1    
   168   85   87 1    
   169   85  206 1    
   170   86  207 1    
   171   86  208 1    
   172   86  209 1    
   173   87   88 2    
   174   87   89 am   BACKBONE|DICT|INTERRES
   175   89   90 1    
   176   89  210 1    
   177   90   91 1    
   178   90   92 1    
   179   90  211 1    
   180   91  212 1    
   181   91  213 1    
   182   91  214 1    
   183   92   93 2    
   184   92   94 am   BACKBONE|DICT|INTERRES
   185   94   95 1    
   186   94  215 1    
   187   95   96 1    
   188   95   97 1    
   189   95  216 1    
   190   96  217 1    
   191   96  218 1    
   192   96  219 1    
   193   97   98 2    
   194   97   99 am   BACKBONE|DICT|INTERRES
   195   99  100 1    
   196   99  220 1    
   197  100  101 1    
   198  100  102 1    
   199  100  221 1    
   200  101  222 1    
   201  101  223 1    
   202  101  224 1    
   203  102  103 2    
   204  102  104 am   BACKBONE|DICT|INTERRES
   205  104  105 1    
   206  104  225 1    
   207  105  106 1    
   208  105  107 1    
   209  105  226 1    
   210  106  227 1    
   211  106  228 1    
   212  106  229 1    
   213  107  108 2    
   214  107  109 am   BACKBONE|DICT|INTERRES
   215  109  110 1    
   216  109  230 1    
   217  110  111 1    
   218  110  112 1    
   219  110  231 1    
   220  111  232 1    
   221  111  233 1    
   222  111  234 1    
   223  112  113 2    
   224  112  114 am   BACKBONE|DICT|INTERRES
   225  114  115 1    
   226  114  235 1    
   227  115  116 1    
   228  115  117 1    
   229  115  236 1    
   230  116  237 1    
   231  116  238 1    
   232  116  239 1    
   233  117  118 2    
   234  117  119 am   BACKBONE|DICT|INTERRES
   235  119  120 1    
   236  119  240 1    
   237  120  121 1    
   238  120  124 1    
   239  120  241 1    
   240  121  122 am   BACKBONE|DICT|INTERRES
   241  121  123 2    
   242  122  242 1    
   243  122  243 1    
   244  124  125 1    
   245  124  244 1    
   246  124  245 1    
   247  125  126 1    
   248  126  246 1    
   249  126  247 1    
@<TRIPOS>SUBSTRUCTURE
     1 UNK         1 GROUP             0       ****    0 ROOT    
