@<TRIPOS>MOLECULE
3R540
247   249    1
SMALL
USER_CHARGES


@<TRIPOS>ATOM
      1 CA          2.1543  -16.4553  -49.2076 C.3       0 UNK        -0.1800 
      2 C           1.6360  -15.6892  -47.9999 C.2       0 UNK         0.5000 
      3 O           2.4042  -15.3756  -47.0905 O.2       0 UNK        -0.5000 
      4 N           0.3354  -15.3715  -47.9922 N.am      1 UNK        -0.5000 
      5 CA         -0.3622  -14.7041  -46.8861 C.3       1 UNK         0.1400 
      6 C6         -1.8996  -14.8185  -47.0237 C.3       23 UNK        -0.0398 
      7 S7         -2.5824  -14.0344  -48.5236 S.3       23 UNK        -0.2404 
      8 C8         -3.4305  -15.4306  -49.3220 C.3       23 UNK        -0.0205 
      9 C9         -2.4805  -16.2969  -50.1345 C.ar      23 UNK        -0.0193 
     10 C10        -1.9825  -15.8139  -51.3474 C.ar      23 UNK        -0.1150 
     11 C11        -1.1630  -16.6108  -52.1492 C.ar      23 UNK        -0.0193 
     12 C12        -0.8387  -17.9016  -51.7272 C.ar      23 UNK        -0.1150 
     13 C13        -1.3318  -18.4001  -50.5182 C.ar      23 UNK        -0.0193 
     14 C14        -2.1441  -17.5896  -49.7165 C.ar      23 UNK        -0.1150 
     15 C15        -1.0359  -19.8399  -50.1305 C.3       23 UNK        -0.0205 
     16 S16         0.6767  -20.0644  -49.5579 S.3       23 UNK        -0.2404 
     17 C17         0.4712  -20.0598  -47.7459 C.3       23 UNK        -0.0398 
     18 CA          0.4050  -21.4910  -47.1509 C.3       11 UNK         0.1400 
     19 N           0.7152  -21.5198  -45.7211 N.am      11 UNK        -0.5000 
     20 C           0.8700  -22.6310  -44.9865 C.2       10 UNK         0.5000 
     21 O           0.7932  -23.7714  -45.4433 O.2       10 UNK        -0.5000 
     22 CA          1.1061  -22.4383  -43.4778 C.3       10 UNK         0.1400 
     23 CB          2.5575  -22.0214  -43.1983 C.3       10 UNK        -0.1800 
     24 N           0.1888  -21.4661  -42.8824 N.am      10 UNK        -0.5000 
     25 C          -1.1437  -21.6121  -42.8349 C.2       9 UNK         0.5000 
     26 O          -1.7432  -22.5974  -43.2659 O.2       9 UNK        -0.5000 
     27 CA         -1.9468  -20.4354  -42.2533 C.3       9 UNK         0.1400 
     28 CB         -1.8641  -20.4131  -40.7197 C.3       9 UNK        -0.1800 
     29 N          -1.5142  -19.1443  -42.7854 N.am      9 UNK        -0.5000 
     30 C          -1.5677  -18.7979  -44.0793 C.2       8 UNK         0.5000 
     31 O          -2.0096  -19.5181  -44.9738 O.2       8 UNK        -0.5000 
     32 CA         -0.9774  -17.4284  -44.4421 C.3       8 UNK         0.1400 
     33 CB         -1.9248  -16.3028  -43.9915 C.3       8 UNK        -0.1800 
     34 N           0.3551  -17.2262  -43.8703 N.am      8 UNK        -0.5000 
     35 C           1.4200  -18.0072  -44.1079 C.2       7 UNK         0.5000 
     36 O           1.4101  -18.9548  -44.8881 O.2       7 UNK        -0.5000 
     37 CA          2.6935  -17.7333  -43.2926 C.3       7 UNK         0.1400 
     38 CB          3.5450  -16.6375  -43.9469 C.3       7 UNK        -0.1800 
     39 N           2.3868  -17.3765  -41.9091 N.am      7 UNK        -0.5000 
     40 C           1.8659  -18.2238  -41.0091 C.2       6 UNK         0.5000 
     41 O           1.6410  -19.4131  -41.2354 O.2       6 UNK        -0.5000 
     42 CA          1.4847  -17.6191  -39.6457 C.3       6 UNK         0.1400 
     43 CB          2.7123  -17.5317  -38.7269 C.3       6 UNK        -0.1800 
     44 N           0.8853  -16.2905  -39.7861 N.am      6 UNK        -0.5000 
     45 C          -0.3064  -16.0594  -40.3560 C.2       5 UNK         0.5000 
     46 O          -1.0571  -16.9548  -40.7438 O.2       5 UNK        -0.5000 
     47 CA         -0.6967  -14.5831  -40.5735 C.3       5 UNK         0.1400 
     48 CB         -1.4374  -14.0342  -39.3454 C.3       5 UNK        -0.1800 
     49 N           0.4576  -13.7263  -40.8705 N.am      5 UNK        -0.5000 
     50 C           1.1969  -13.8177  -41.9839 C.2       4 UNK         0.5000 
     51 O           0.9493  -14.6021  -42.9018 O.2       4 UNK        -0.5000 
     52 CA          2.4652  -12.9550  -42.0419 C.3       4 UNK         0.1400 
     53 CB          3.5461  -13.5771  -41.1295 C.3       4 UNK        -0.1800 
     54 N           2.9350  -12.8824  -43.4258 N.am      4 UNK        -0.5000 
     55 C           3.9705  -12.1588  -43.8710 C.2       3 UNK         0.5000 
     56 O           4.6331  -11.4012  -43.1610 O.2       3 UNK        -0.5000 
     57 CA          4.3317  -12.2939  -45.3619 C.3       3 UNK         0.1400 
     58 CB          5.1323  -13.5782  -45.6245 C.3       3 UNK        -0.1800 
     59 N           3.1642  -12.2590  -46.2413 N.am      3 UNK        -0.5000 
     60 C           2.4727  -11.1447  -46.5245 C.2       2 UNK         0.5000 
     61 O           2.7444  -10.0379  -46.0572 O.2       2 UNK        -0.5000 
     62 CA          1.2913  -11.2699  -47.5082 C.3       2 UNK         0.1400 
     63 CB          1.7099  -10.8080  -48.9125 C.3       2 UNK        -0.1800 
     64 N           0.7479  -12.6239  -47.6025 N.am      2 UNK        -0.5000 
     65 C           0.0809  -13.2485  -46.6234 C.2       1 UNK         0.5000 
     66 O          -0.1775  -12.7256  -45.5390 O.2       1 UNK        -0.5000 
     67 C          -0.9451  -22.1690  -47.4456 C.2       11 UNK         0.5000 
     68 O          -1.0062  -23.0261  -48.3247 O.2       11 UNK        -0.5000 
     69 N          -1.9918  -21.8063  -46.6905 N.am      12 UNK        -0.5000 
     70 CA         -3.3314  -22.3787  -46.8170 C.3       12 UNK         0.1400 
     71 CB         -4.3105  -21.6220  -45.9085 C.3       12 UNK        -0.1800 
     72 C          -3.3712  -23.8897  -46.5348 C.2       12 UNK         0.5000 
     73 O          -4.0193  -24.6214  -47.2821 O.2       12 UNK        -0.5000 
     74 N          -2.6484  -24.3346  -45.4977 N.am      13 UNK        -0.5000 
     75 CA         -2.4996  -25.7468  -45.1469 C.3       13 UNK         0.1400 
     76 CB         -1.8000  -25.8673  -43.7845 C.3       13 UNK        -0.1800 
     77 C          -1.7468  -26.5557  -46.2200 C.2       13 UNK         0.5000 
     78 O          -2.1557  -27.6752  -46.5302 O.2       13 UNK        -0.5000 
     79 N          -0.6690  -25.9778  -46.7672 N.am      14 UNK        -0.5000 
     80 CA          0.1669  -26.5985  -47.7929 C.3       14 UNK         0.1400 
     81 CB          1.5083  -25.8531  -47.8782 C.3       14 UNK        -0.1800 
     82 C          -0.5121  -26.6489  -49.1727 C.2       14 UNK         0.5000 
     83 O          -0.4998  -27.6983  -49.8175 O.2       14 UNK        -0.5000 
     84 N          -1.0666  -25.5122  -49.6121 N.am      15 UNK        -0.5000 
     85 CA         -1.6158  -25.3332  -50.9558 C.3       15 UNK         0.1400 
     86 CB         -1.5369  -23.8457  -51.3297 C.3       15 UNK        -0.1800 
     87 C          -3.0603  -25.8391  -51.1047 C.2       15 UNK         0.5000 
     88 O          -3.4890  -26.0852  -52.2327 O.2       15 UNK        -0.5000 
     89 N          -3.7968  -25.9438  -49.9882 N.am      16 UNK        -0.5000 
     90 CA         -5.2066  -26.3375  -49.8424 C.3       16 UNK         0.1400 
     91 CB         -5.4652  -27.7546  -50.3891 C.3       16 UNK        -0.1800 
     92 C          -6.2059  -25.3155  -50.4221 C.2       16 UNK         0.5000 
     93 O          -7.1470  -24.9271  -49.7300 O.2       16 UNK        -0.5000 
     94 N          -5.9749  -24.8776  -51.6657 N.am      17 UNK        -0.5000 
     95 CA         -6.7479  -23.8471  -52.3636 C.3       17 UNK         0.1400 
     96 CB         -6.6069  -24.0652  -53.8785 C.3       17 UNK        -0.1800 
     97 C          -6.3465  -22.4118  -51.9605 C.2       17 UNK         0.5000 
     98 O          -7.0531  -21.4676  -52.3165 O.2       17 UNK        -0.5000 
     99 N          -5.2342  -22.2723  -51.2214 N.am      18 UNK        -0.5000 
    100 CA        -4.6988  -21.0385  -50.6393 C.3       18 UNK         0.1400 
    101 CB        -5.5813  -20.5901  -49.4523 C.3       18 UNK        -0.1800 
    102 C         -4.4745  -19.9443  -51.7036 C.2       18 UNK         0.5000 
    103 O         -3.6628  -20.1440  -52.6065 O.2       18 UNK        -0.5000 
    104 N         -5.2128  -18.8313  -51.6070 N.am      19 UNK        -0.5000 
    105 CA        -5.1516  -17.6857  -52.5174 C.3       19 UNK         0.1400 
    106 CB        -6.0687  -16.5804  -51.9725 C.3       19 UNK        -0.1800 
    107 C         -5.5235  -18.0087  -53.9787 C.2       19 UNK         0.5000 
    108 O         -5.1293  -17.2640  -54.8754 O.2       19 UNK        -0.5000 
    109 N         -6.2686  -19.1003  -54.2013 N.am      20 UNK        -0.5000 
    110 CA        -6.6197  -19.5899  -55.5335 C.3       20 UNK         0.1400 
    111 CB        -7.9782  -20.3052  -55.4626 C.3       20 UNK        -0.1800 
    112 C         -5.5376  -20.5069  -56.1398 C.2       20 UNK         0.5000 
    113 O         -5.6274  -20.8181  -57.3283 O.2       20 UNK        -0.5000 
    114 N         -4.5488  -20.9391  -55.3406 N.am      21 UNK        -0.5000 
    115 CA        -3.4532  -21.7950  -55.7983 C.3       21 UNK         0.1400 
    116 CB        -2.8282  -22.5277  -54.6019 C.3       21 UNK        -0.1800 
    117 C         -2.3705  -21.0014  -56.5484 C.2       21 UNK         0.5000 
    118 O         -1.8310  -21.5018  -57.5367 O.2       21 UNK        -0.5000 
    119 N         -2.0559  -19.7965  -56.0552 N.am      22 UNK        -0.5000 
    120 CA        -1.0525  -18.8980  -56.6421 C.3       22 UNK         0.1400 
    121 C         -1.5430  -18.1661  -57.9263 C.2       22 UNK         0.5000 
    122 N         -0.6299  -17.6128  -58.7142 N.am      22 UNK        -0.7600 
    123 O         -2.7347  -18.0811  -58.2165 O.2       22 UNK        -0.5000 
    124 C124       -0.4524  -17.9375  -55.5817 C.3       23 UNK        -0.0398 
    125 S125       -1.6260  -16.7319  -54.8719 S.3       23 UNK        -0.2404 
    126 C126       -0.6506  -16.0811  -53.4784 C.3       23 UNK        -0.0205 
    127 H127        2.5830  -17.4059  -48.8903 H         1 UNK         0.0600 
    128 H128        1.3605  -16.6656  -49.9251 H         1 UNK         0.0600 
    129 H129        2.9297  -15.8806  -49.7137 H         1 UNK         0.0600 
    130 H130       -0.2447  -15.6259  -48.7802 H         1 UNK         0.3000 
    131 H131       -0.0721  -15.2414  -45.9835 H         1 UNK         0.0600 
    132 H132       -2.3950  -14.3687  -46.1618 H         1 UNK         0.0800 
    133 H133       -2.1832  -15.8709  -47.0069 H         1 UNK         0.0800 
    134 H134       -3.9714  -16.0210  -48.5809 H         1 UNK         0.0800 
    135 H135       -4.1875  -15.0198  -49.9903 H         1 UNK         0.0800 
    136 H136       -2.2521  -14.8198  -51.6758 H         1 UNK         0.1150 
    137 H137       -0.2200  -18.5310  -52.3506 H         1 UNK         0.1150 
    138 H138       -2.5419  -17.9764  -48.7888 H         1 UNK         0.1150 
    139 H139       -1.7405  -20.1841  -49.3738 H         1 UNK         0.0800 
    140 H140       -1.1955  -20.4799  -51.0000 H         1 UNK         0.0800 
    141 H141       -0.3864  -19.4522  -47.4510 H         1 UNK         0.0800 
    142 H142        1.3484  -19.5436  -47.3565 H         1 UNK         0.0800 
    143 H143        1.1783  -22.0904  -47.6367 H         1 UNK         0.0600 
    144 H144        0.8331  -20.6129  -45.2724 H         1 UNK         0.3000 
    145 H145        0.9306  -23.3996  -42.9904 H         1 UNK         0.0600 
    146 H146        2.7482  -21.9529  -42.1271 H         1 UNK         0.0600 
    147 H147        3.2585  -22.7494  -43.6084 H         1 UNK         0.0600 
    148 H148        2.7917  -21.0536  -43.6416 H         1 UNK         0.0600 
    149 H149        0.6062  -20.6338  -42.4782 H         1 UNK         0.3000 
    150 H150       -2.9922  -20.5762  -42.5357 H         1 UNK         0.0600 
    151 H151       -2.2034  -21.3593  -40.2965 H         1 UNK         0.0600 
    152 H152       -2.4928  -19.6255  -40.3036 H         1 UNK         0.0600 
    153 H153       -0.8449  -20.2432  -40.3718 H         1 UNK         0.0600 
    154 H154       -1.1582  -18.4696  -42.1158 H         1 UNK         0.3000 
    155 H155       -0.8748  -17.3908  -45.5278 H         1 UNK         0.0600 
    156 H156       -2.2116  -16.4003  -42.9461 H         1 UNK         0.0600 
    157 H157       -2.8475  -16.3216  -44.5720 H         1 UNK         0.0600 
    158 H158       -1.4756  -15.3177  -44.1116 H         1 UNK         0.0600 
    159 H159        0.4781  -16.4145  -43.2724 H         1 UNK         0.3000 
    160 H160        3.2850  -18.6509  -43.2782 H         1 UNK         0.0600 
    161 H161        4.4539  -16.4442  -43.3773 H         1 UNK         0.0600 
    162 H162        2.9983  -15.7008  -44.0396 H         1 UNK         0.0600 
    163 H163        3.8467  -16.9334  -44.9526 H         1 UNK         0.0600 
    164 H164        2.4987  -16.4081  -41.6543 H         1 UNK         0.3000 
    165 H165        0.7518  -18.2805  -39.1786 H         1 UNK         0.0600 
    166 H166        2.4377  -17.1680  -37.7366 H         1 UNK         0.0600 
    167 H167        3.1713  -18.5126  -38.5960 H         1 UNK         0.0600 
    168 H168        3.4742  -16.8637  -39.1308 H         1 UNK         0.0600 
    169 H169        1.4341  -15.5033  -39.4749 H         1 UNK         0.3000 
    170 H170       -1.3763  -14.5428  -41.4271 H         1 UNK         0.0600 
    171 H171       -2.3139  -14.6415  -39.1153 H         1 UNK         0.0600 
    172 H172       -0.8012  -14.0268  -38.4595 H         1 UNK         0.0600 
    173 H173       -1.7858  -13.0158  -39.5179 H         1 UNK         0.0600 
    174 H174        0.7201  -13.0607  -40.1576 H         1 UNK         0.3000 
    175 H175        2.2188  -11.9484  -41.6991 H         1 UNK         0.0600 
    176 H176        3.8713  -14.5502  -41.4989 H         1 UNK         0.0600 
    177 H177        4.4274  -12.9411  -41.0543 H         1 UNK         0.0600 
    178 H178        3.1788  -13.7174  -40.1123 H         1 UNK         0.0600 
    179 H179        2.4014  -13.4512  -44.0719 H         1 UNK         0.3000 
    180 H180        4.9761  -11.4500  -45.6182 H         1 UNK         0.0600 
    181 H181        4.5253  -14.4696  -45.4744 H         1 UNK         0.0600 
    182 H182        5.9933  -13.6485  -44.9586 H         1 UNK         0.0600 
    183 H183        5.5090  -13.6031  -46.6471 H         1 UNK         0.0600 
    184 H184        2.8722  -13.1375  -46.6512 H         1 UNK         0.3000 
    185 H185        0.4976  -10.6092  -47.1530 H         1 UNK         0.0600 
    186 H186        2.0931   -9.7869  -48.8905 H         1 UNK         0.0600 
    187 H187        2.4929  -11.4436  -49.3282 H         1 UNK         0.0600 
    188 H188        0.8646  -10.8212  -49.6009 H         1 UNK         0.0600 
    189 H189        0.9137  -13.1260  -48.4623 H         1 UNK         0.3000 
    190 H190       -1.8751  -21.0801  -45.9867 H         1 UNK         0.3000 
    191 H191       -3.6469  -22.2363  -47.8513 H         1 UNK         0.0600 
    192 H192       -4.0145  -21.6831  -44.8605 H         1 UNK         0.0600 
    193 H193       -5.3183  -22.0305  -45.9921 H         1 UNK         0.0600 
    194 H194       -4.3635  -20.5676  -46.1801 H         1 UNK         0.0600 
    195 H195       -2.1698  -23.6638  -44.9038 H         1 UNK         0.3000 
    196 H196       -3.4999  -26.1743  -45.0516 H         1 UNK         0.0600 
    197 H197       -0.8074  -25.4158  -43.8002 H         1 UNK         0.0600 
    198 H198       -1.6826  -26.9123  -43.4953 H         1 UNK         0.0600 
    199 H199       -2.3773  -25.3758  -43.0013 H         1 UNK         0.0600 
    200 H200       -0.3702  -25.0693  -46.4254 H         1 UNK         0.3000 
    201 H201        0.3754  -27.6260  -47.4872 H         1 UNK         0.0600 
    202 H202        1.3701  -24.8020  -48.1350 H         1 UNK         0.0600 
    203 H203        2.1556  -26.2957  -48.6362 H         1 UNK         0.0600 
    204 H204        2.0424  -25.8960  -46.9288 H         1 UNK         0.0600 
    205 H205       -1.0275  -24.6777  -49.0276 H         1 UNK         0.3000 
    206 H206       -0.9978  -25.8884  -51.6648 H         1 UNK         0.0600 
    207 H207       -0.5241  -23.4591  -51.2144 H         1 UNK         0.0600 
    208 H208       -1.8221  -23.6972  -52.3688 H         1 UNK         0.0600 
    209 H209       -2.1995  -23.2364  -50.7148 H         1 UNK         0.0600 
    210 H210       -3.3610  -25.6596  -49.1186 H         1 UNK         0.3000 
    211 H211       -5.3890  -26.3747  -48.7676 H         1 UNK         0.0600 
    212 H212       -5.3404  -27.8092  -51.4707 H         1 UNK         0.0600 
    213 H213       -6.4831  -28.0752  -50.1648 H         1 UNK         0.0600 
    214 H214       -4.7888  -28.4796  -49.9363 H         1 UNK         0.0600 
    215 H215       -5.1701  -25.2657  -52.1525 H         1 UNK         0.3000 
    216 H216       -7.8025  -23.9651  -52.1064 H         1 UNK         0.0600 
    217 H217       -7.1649  -23.3175  -54.4413 H         1 UNK         0.0600 
    218 H218       -6.9963  -25.0411  -54.1691 H         1 UNK         0.0600 
    219 H219       -5.5692  -24.0146  -54.2037 H         1 UNK         0.0600 
    220 H220       -4.7199  -23.1144  -51.0139 H         1 UNK         0.3000 
    221 H221       -3.7139  -21.2874  -50.2445 H         1 UNK         0.0600 
    222 H222       -6.5876  -20.3118  -49.7675 H         1 UNK         0.0600 
    223 H223       -5.6879  -21.3908  -48.7210 H         1 UNK         0.0600 
    224 H224       -5.1416  -19.7372  -48.9331 H         1 UNK         0.0600 
    225 H225       -5.8835  -18.7686  -50.8556 H         1 UNK         0.3000 
    226 H226       -4.1235  -17.3202  -52.5171 H         1 UNK         0.0600 
    227 H227       -5.8371  -16.3453  -50.9349 H         1 UNK         0.0600 
    228 H228       -5.9564  -15.6615  -52.5494 H         1 UNK         0.0600 
    229 H229       -7.1186  -16.8725  -52.0192 H         1 UNK         0.0600 
    230 H230       -6.5508  -19.6781  -53.4168 H         1 UNK         0.3000 
    231 H231       -6.7337  -18.7415  -56.2116 H         1 UNK         0.0600 
    232 H232       -8.7575  -19.6325  -55.1042 H         1 UNK         0.0600 
    233 H233       -7.9496  -21.1656  -54.7963 H         1 UNK         0.0600 
    234 H234       -8.2859  -20.6622  -56.4461 H         1 UNK         0.0600 
    235 H235       -4.5004  -20.6171  -54.3797 H         1 UNK         0.3000 
    236 H236       -3.8594  -22.5489  -56.4762 H         1 UNK         0.0600 
    237 H237       -2.1504  -23.3115  -54.9418 H         1 UNK         0.0600 
    238 H238       -2.2490  -21.8525  -53.9713 H         1 UNK         0.0600 
    239 H239       -3.5823  -22.9977  -53.9736 H         1 UNK         0.0600 
    240 H240       -2.5705  -19.4375  -55.2639 H         1 UNK         0.3000 
    241 H241       -0.2273  -19.5337  -56.9700 H         1 UNK         0.0600 
    242 H242       -0.9324  -17.1307  -59.5466 H         1 UNK         0.3800 
    243 H243        0.3557  -17.6681  -58.5085 H         1 UNK         0.3800 
    244 H244       -0.0295  -18.5279  -54.7682 H         1 UNK         0.0800 
    245 H245        0.3860  -17.3843  -56.0076 H         1 UNK         0.0800 
    246 H246        0.4052  -16.3297  -53.5952 H         1 UNK         0.0800 
    247 H247       -0.7055  -14.9916  -53.4955 H         1 UNK         0.0800 
@<TRIPOS>BOND
     1    1    2 1    
     2    1  127 1    
     3    1  128 1    
     4    1  129 1    
     5    2    3 2    
     6    2    4 am   BACKBONE|DICT|INTERRES
     7    4    5 1    
     8    4  130 1    
     9    5    6 1    
    10    5   65 1    
    11    5  131 1    
    12    6    7 1    
    13    6  132 1    
    14    6  133 1    
    15    7    8 1    
    16    8    9 1    
    17    8  134 1    
    18    8  135 1    
    19    9   10 ar   
    20    9   14 ar   
    21   10   11 ar   
    22   10  136 1    
    23   11   12 ar   
    24   11  126 1    
    25   12   13 ar   
    26   12  137 1    
    27   13   14 ar   
    28   13   15 1    
    29   14  138 1    
    30   15   16 1    
    31   15  139 1    
    32   15  140 1    
    33   16   17 1    
    34   17   18 1    
    35   17  141 1    
    36   17  142 1    
    37   18   19 1    
    38   18   67 1    
    39   18  143 1    
    40   19   20 am   BACKBONE|DICT|INTERRES
    41   19  144 1    
    42   20   21 2    
    43   20   22 1    
    44   22   23 1    
    45   22   24 1    
    46   22  145 1    
    47   23  146 1    
    48   23  147 1    
    49   23  148 1    
    50   24   25 am   BACKBONE|DICT|INTERRES
    51   24  149 1    
    52   25   26 2    
    53   25   27 1    
    54   27   28 1    
    55   27   29 1    
    56   27  150 1    
    57   28  151 1    
    58   28  152 1    
    59   28  153 1    
    60   29   30 am   BACKBONE|DICT|INTERRES
    61   29  154 1    
    62   30   31 2    
    63   30   32 1    
    64   32   33 1    
    65   32   34 1    
    66   32  155 1    
    67   33  156 1    
    68   33  157 1    
    69   33  158 1    
    70   34   35 am   BACKBONE|DICT|INTERRES
    71   34  159 1    
    72   35   36 2    
    73   35   37 1    
    74   37   38 1    
    75   37   39 1    
    76   37  160 1    
    77   38  161 1    
    78   38  162 1    
    79   38  163 1    
    80   39   40 am   BACKBONE|DICT|INTERRES
    81   39  164 1    
    82   40   41 2    
    83   40   42 1    
    84   42   43 1    
    85   42   44 1    
    86   42  165 1    
    87   43  166 1    
    88   43  167 1    
    89   43  168 1    
    90   44   45 am   BACKBONE|DICT|INTERRES
    91   44  169 1    
    92   45   46 2    
    93   45   47 1    
    94   47   48 1    
    95   47   49 1    
    96   47  170 1    
    97   48  171 1    
    98   48  172 1    
    99   48  173 1    
   100   49   50 am   BACKBONE|DICT|INTERRES
   101   49  174 1    
   102   50   51 2    
   103   50   52 1    
   104   52   53 1    
   105   52   54 1    
   106   52  175 1    
   107   53  176 1    
   108   53  177 1    
   109   53  178 1    
   110   54   55 am   BACKBONE|DICT|INTERRES
   111   54  179 1    
   112   55   56 2    
   113   55   57 1    
   114   57   58 1    
   115   57   59 1    
   116   57  180 1    
   117   58  181 1    
   118   58  182 1    
   119   58  183 1    
   120   59   60 am   BACKBONE|DICT|INTERRES
   121   59  184 1    
   122   60   61 2    
   123   60   62 1    
   124   62   63 1    
   125   62   64 1    
   126   62  185 1    
   127   63  186 1    
   128   63  187 1    
   129   63  188 1    
   130   64   65 am   BACKBONE|DICT|INTERRES
   131   64  189 1    
   132   65   66 2    
   133   67   68 2    
   134   67   69 am   BACKBONE|DICT|INTERRES
   135   69   70 1    
   136   69  190 1    
   137   70   71 1    
   138   70   72 1    
   139   70  191 1    
   140   71  192 1    
   141   71  193 1    
   142   71  194 1    
   143   72   73 2    
   144   72   74 am   BACKBONE|DICT|INTERRES
   145   74   75 1    
   146   74  195 1    
   147   75   76 1    
   148   75   77 1    
   149   75  196 1    
   150   76  197 1    
   151   76  198 1    
   152   76  199 1    
   153   77   78 2    
   154   77   79 am   BACKBONE|DICT|INTERRES
   155   79   80 1    
   156   79  200 1    
   157   80   81 1    
   158   80   82 1    
   159   80  201 1    
   160   81  202 1    
   161   81  203 1    
   162   81  204 1    
   163   82   83 2    
   164   82   84 am   BACKBONE|DICT|INTERRES
   165   84   85 1    
   166   84  205 1    
   167   85   86 1    
   168   85   87 1    
   169   85  206 1    
   170   86  207 1    
   171   86  208 1    
   172   86  209 1    
   173   87   88 2    
   174   87   89 am   BACKBONE|DICT|INTERRES
   175   89   90 1    
   176   89  210 1    
   177   90   91 1    
   178   90   92 1    
   179   90  211 1    
   180   91  212 1    
   181   91  213 1    
   182   91  214 1    
   183   92   93 2    
   184   92   94 am   BACKBONE|DICT|INTERRES
   185   94   95 1    
   186   94  215 1    
   187   95   96 1    
   188   95   97 1    
   189   95  216 1    
   190   96  217 1    
   191   96  218 1    
   192   96  219 1    
   193   97   98 2    
   194   97   99 am   BACKBONE|DICT|INTERRES
   195   99  100 1    
   196   99  220 1    
   197  100  101 1    
   198  100  102 1    
   199  100  221 1    
   200  101  222 1    
   201  101  223 1    
   202  101  224 1    
   203  102  103 2    
   204  102  104 am   BACKBONE|DICT|INTERRES
   205  104  105 1    
   206  104  225 1    
   207  105  106 1    
   208  105  107 1    
   209  105  226 1    
   210  106  227 1    
   211  106  228 1    
   212  106  229 1    
   213  107  108 2    
   214  107  109 am   BACKBONE|DICT|INTERRES
   215  109  110 1    
   216  109  230 1    
   217  110  111 1    
   218  110  112 1    
   219  110  231 1    
   220  111  232 1    
   221  111  233 1    
   222  111  234 1    
   223  112  113 2    
   224  112  114 am   BACKBONE|DICT|INTERRES
   225  114  115 1    
   226  114  235 1    
   227  115  116 1    
   228  115  117 1    
   229  115  236 1    
   230  116  237 1    
   231  116  238 1    
   232  116  239 1    
   233  117  118 2    
   234  117  119 am   BACKBONE|DICT|INTERRES
   235  119  120 1    
   236  119  240 1    
   237  120  121 1    
   238  120  124 1    
   239  120  241 1    
   240  121  122 am   BACKBONE|DICT|INTERRES
   241  121  123 2    
   242  122  242 1    
   243  122  243 1    
   244  124  125 1    
   245  124  244 1    
   246  124  245 1    
   247  125  126 1    
   248  126  246 1    
   249  126  247 1    
@<TRIPOS>SUBSTRUCTURE
     1 UNK         1 GROUP             0       ****    0 ROOT    
