@<TRIPOS>MOLECULE
3R540
247   249    1
SMALL
USER_CHARGES


@<TRIPOS>ATOM
      1 CA         -2.8803  -18.0099  -43.9699 C.3       0 UNK        -0.1800 
      2 C          -3.3863  -16.8742  -44.8457 C.2       0 UNK         0.5000 
      3 O          -4.5450  -16.4738  -44.7341 O.2       0 UNK        -0.5000 
      4 N          -2.5137  -16.3629  -45.7217 N.am      1 UNK        -0.5000 
      5 CA         -2.7638  -15.2187  -46.6058 C.3       1 UNK         0.1400 
      6 C6         -1.6121  -15.0144  -47.6219 C.3       23 UNK        -0.0398 
      7 S7         -1.2388  -16.5142  -48.5892 S.3       23 UNK        -0.2404 
      8 C8          0.4019  -16.0809  -49.2441 C.3       23 UNK        -0.0205 
      9 C9          1.1168  -17.3080  -49.7812 C.ar      23 UNK        -0.0193 
     10 C10         1.1977  -17.5533  -51.1548 C.ar      23 UNK        -0.1150 
     11 C11         1.8486  -18.6962  -51.6305 C.ar      23 UNK        -0.0193 
     12 C12         2.4297  -19.5880  -50.7238 C.ar      23 UNK        -0.1150 
     13 C13         2.3566  -19.3489  -49.3492 C.ar      23 UNK        -0.0193 
     14 C14         1.7023  -18.2060  -48.8875 C.ar      23 UNK        -0.1150 
     15 C15         2.9735  -20.3268  -48.3612 C.3       23 UNK        -0.0205 
     16 S16         2.0302  -21.8785  -48.2578 S.3       23 UNK        -0.2404 
     17 C17         0.3773  -21.2891  -47.7563 C.3       23 UNK        -0.0398 
     18 CA         -0.4299  -22.4308  -47.0997 C.3       11 UNK         0.1400 
     19 N           0.1396  -22.8381  -45.8131 N.am      11 UNK        -0.5000 
     20 C          -0.1511  -23.9643  -45.1481 C.2       10 UNK         0.5000 
     21 O          -0.9471  -24.8116  -45.5582 O.2       10 UNK        -0.5000 
     22 CA          0.5043  -24.1166  -43.7597 C.3       10 UNK         0.1400 
     23 CB          1.8667  -24.8140  -43.8811 C.3       10 UNK        -0.1800 
     24 N           0.6758  -22.8296  -43.0708 N.am      10 UNK        -0.5000 
     25 C          -0.3365  -22.0241  -42.7154 C.2       9 UNK         0.5000 
     26 O          -1.5171  -22.3208  -42.8898 O.2       9 UNK        -0.5000 
     27 CA          0.0192  -20.6335  -42.1592 C.3       9 UNK         0.1400 
     28 CB         -1.0537  -20.0655  -41.2064 C.3       9 UNK        -0.1800 
     29 N           1.3644  -20.5406  -41.5872 N.am      9 UNK        -0.5000 
     30 C           1.8009  -21.0500  -40.4256 C.2       8 UNK         0.5000 
     31 O           1.1274  -21.7785  -39.6965 O.2       8 UNK        -0.5000 
     32 CA          3.2370  -20.6768  -39.9970 C.3       8 UNK         0.1400 
     33 CB          4.1798  -21.8762  -40.1822 C.3       8 UNK        -0.1800 
     34 N           3.7909  -19.5291  -40.7223 N.am      8 UNK        -0.5000 
     35 C           3.3645  -18.2607  -40.6321 C.2       7 UNK         0.5000 
     36 O           2.4891  -17.8862  -39.8513 O.2       7 UNK        -0.5000 
     37 CA          4.0044  -17.2421  -41.5986 C.3       7 UNK         0.1400 
     38 CB          5.4808  -17.5572  -41.9232 C.3       7 UNK        -0.1800 
     39 N           3.2403  -17.0660  -42.8401 N.am      7 UNK        -0.5000 
     40 C           2.8824  -18.0080  -43.7299 C.2       6 UNK         0.5000 
     41 O           3.0678  -19.2142  -43.5662 O.2       6 UNK        -0.5000 
     42 CA          2.1972  -17.5476  -45.0326 C.3       6 UNK         0.1400 
     43 CB          0.7211  -17.9727  -45.0583 C.3       6 UNK        -0.1800 
     44 N           2.2770  -16.1075  -45.2702 N.am      6 UNK        -0.5000 
     45 C           3.3805  -15.4489  -45.6512 C.2       5 UNK         0.5000 
     46 O           4.4479  -16.0026  -45.9144 O.2       5 UNK        -0.5000 
     47 CA          3.2822  -13.9118  -45.7360 C.3       5 UNK         0.1400 
     48 CB          3.2598  -13.4492  -47.2014 C.3       5 UNK        -0.1800 
     49 N           2.1171  -13.3428  -45.0515 N.am      5 UNK        -0.5000 
     50 C           1.8841  -13.3614  -43.7310 C.2       4 UNK         0.5000 
     51 O           2.6191  -13.9356  -42.9254 O.2       4 UNK        -0.5000 
     52 CA          0.5879  -12.6805  -43.2384 C.3       4 UNK         0.1400 
     53 CB          0.8116  -11.8438  -41.9622 C.3       4 UNK        -0.1800 
     54 N          -0.1184  -11.9134  -44.2765 N.am      4 UNK        -0.5000 
     55 C           0.2572  -10.7622  -44.8601 C.2       3 UNK         0.5000 
     56 O           1.2811  -10.1486  -44.5598 O.2       3 UNK        -0.5000 
     57 CA         -0.6220  -10.2211  -46.0101 C.3       3 UNK         0.1400 
     58 CB          0.1413  -10.2950  -47.3434 C.3       3 UNK        -0.1800 
     59 N          -1.8920  -10.9323  -46.1698 N.am      3 UNK        -0.5000 
     60 C          -2.9644  -10.7899  -45.3796 C.2       2 UNK         0.5000 
     61 O          -3.0286   -9.9781  -44.4561 O.2       2 UNK        -0.5000 
     62 CA         -4.1556  -11.7351  -45.6477 C.3       2 UNK         0.1400 
     63 CB         -5.2209  -11.0247  -46.4966 C.3       2 UNK        -0.1800 
     64 N          -3.8009  -13.0073  -46.2945 N.am      2 UNK        -0.5000 
     65 C          -2.9669  -13.9258  -45.7865 C.2       1 UNK         0.5000 
     66 O          -2.3264  -13.7600  -44.7451 O.2       1 UNK        -0.5000 
     67 C          -1.9380  -22.1095  -47.0361 C.2       11 UNK         0.5000 
     68 O          -2.5705  -22.0716  -48.0923 O.2       11 UNK        -0.5000 
     69 N          -2.5188  -21.9637  -45.8325 N.am      12 UNK        -0.5000 
     70 CA         -3.9707  -21.8983  -45.6288 C.3       12 UNK         0.1400 
     71 CB         -4.2862  -21.5851  -44.1597 C.3       12 UNK        -0.1800 
     72 C          -4.6830  -23.1986  -46.0477 C.2       12 UNK         0.5000 
     73 O          -5.8275  -23.1411  -46.4948 O.2       12 UNK        -0.5000 
     74 N          -3.9823  -24.3334  -45.9195 N.am      13 UNK        -0.5000 
     75 CA         -4.4252  -25.6403  -46.3896 C.3       13 UNK         0.1400 
     76 CB         -4.0728  -26.7049  -45.3382 C.3       13 UNK        -0.1800 
     77 C          -3.7764  -25.9720  -47.7420 C.2       13 UNK         0.5000 
     78 O          -4.4866  -26.3386  -48.6778 O.2       13 UNK        -0.5000 
     79 N          -2.4437  -25.8372  -47.8263 N.am      14 UNK        -0.5000 
     80 CA         -1.6412  -26.3114  -48.9585 C.3       14 UNK         0.1400 
     81 CB         -0.1588  -26.3514  -48.5546 C.3       14 UNK        -0.1800 
     82 C          -1.8329  -25.5226  -50.2688 C.2       14 UNK         0.5000 
     83 O          -1.6520  -26.1025  -51.3401 O.2       14 UNK        -0.5000 
     84 N          -2.1951  -24.2365  -50.1731 N.am      15 UNK        -0.5000 
     85 CA         -2.4480  -23.3558  -51.3184 C.3       15 UNK         0.1400 
     86 CB         -1.3306  -22.3019  -51.3974 C.3       15 UNK        -0.1800 
     87 C          -3.8309  -22.6850  -51.2363 C.2       15 UNK         0.5000 
     88 O          -4.1148  -21.7964  -52.0421 O.2       15 UNK        -0.5000 
     89 N          -4.6540  -23.0880  -50.2558 N.am      16 UNK        -0.5000 
     90 CA         -5.9710  -22.5313  -49.9261 C.3       16 UNK         0.1400 
     91 CB         -6.9880  -22.8701  -51.0361 C.3       16 UNK        -0.1800 
     92 C          -5.9210  -21.0218  -49.5930 C.2       16 UNK         0.5000 
     93 O          -6.8180  -20.2777  -49.9862 O.2       16 UNK        -0.5000 
     94 N          -4.8433  -20.5851  -48.9211 N.am      17 UNK        -0.5000 
     95 CA         -4.4899  -19.1863  -48.6363 C.3       17 UNK         0.1400 
     96 CB         -5.5049  -18.5313  -47.6760 C.3       17 UNK        -0.1800 
     97 C          -4.2638  -18.3787  -49.9325 C.2       17 UNK         0.5000 
     98 O          -4.7179  -17.2401  -50.0517 O.2       17 UNK        -0.5000 
     99 N          -3.5866  -19.0298  -50.8887 N.am      18 UNK        -0.5000 
    100 CA        -3.2620  -18.5955  -52.2498 C.3       18 UNK         0.1400 
    101 CB        -2.4950  -17.2587  -52.2586 C.3       18 UNK        -0.1800 
    102 C         -4.4585  -18.5929  -53.2234 C.2       18 UNK         0.5000 
    103 O         -4.2723  -18.2373  -54.3880 O.2       18 UNK        -0.5000 
    104 N         -5.6486  -19.0349  -52.7854 N.am      19 UNK        -0.5000 
    105 CA        -6.8440  -19.1481  -53.6292 C.3       19 UNK         0.1400 
    106 CB        -8.0885  -19.3599  -52.7562 C.3       19 UNK        -0.1800 
    107 C         -6.7360  -20.2547  -54.6973 C.2       19 UNK         0.5000 
    108 O         -7.4245  -20.1748  -55.7150 O.2       19 UNK        -0.5000 
    109 N         -5.8515  -21.2398  -54.4783 N.am      20 UNK        -0.5000 
    110 CA        -5.4979  -22.2707  -55.4586 C.3       20 UNK         0.1400 
    111 CB        -4.9896  -23.5148  -54.7110 C.3       20 UNK        -0.1800 
    112 C         -4.4490  -21.7865  -56.4851 C.2       20 UNK         0.5000 
    113 O         -4.0245  -22.5792  -57.3267 O.2       20 UNK        -0.5000 
    114 N         -4.0116  -20.5206  -56.3743 N.am      21 UNK        -0.5000 
    115 CA        -2.9804  -19.8444  -57.1724 C.3       21 UNK         0.1400 
    116 CB        -3.3818  -19.7754  -58.6606 C.3       21 UNK        -0.1800 
    117 C         -1.5599  -20.4126  -56.9655 C.2       21 UNK         0.5000 
    118 O         -0.6640  -20.1133  -57.7564 O.2       21 UNK        -0.5000 
    119 N         -1.3786  -21.2051  -55.8994 N.am      22 UNK        -0.5000 
    120 CA        -0.1199  -21.8476  -55.4826 C.3       22 UNK         0.1400 
    121 C          0.4220  -22.9204  -56.4779 C.2       22 UNK         0.5000 
    122 N         -0.3998  -23.4664  -57.3670 N.am      22 UNK        -0.7600 
    123 O          1.5917  -23.2913  -56.4273 O.2       22 UNK        -0.5000 
    124 C124        0.9598  -20.8198  -55.0405 C.3       23 UNK        -0.0398 
    125 S125        0.3645  -19.7607  -53.6784 S.3       23 UNK        -0.2404 
    126 C126        1.9087  -18.9827  -53.1209 C.3       23 UNK        -0.0205 
    127 H127       -2.1421  -17.6399  -43.2585 H         1 UNK         0.0600 
    128 H128       -3.7015  -18.4484  -43.4032 H         1 UNK         0.0600 
    129 H129       -2.4215  -18.7920  -44.5754 H         1 UNK         0.0600 
    130 H130       -1.5823  -16.7441  -45.7685 H         1 UNK         0.3000 
    131 H131       -3.6824  -15.4246  -47.1595 H         1 UNK         0.0600 
    132 H132       -1.8576  -14.2164  -48.3250 H         1 UNK         0.0800 
    133 H133       -0.7034  -14.7017  -47.1037 H         1 UNK         0.0800 
    134 H134        1.0104  -15.6380  -48.4552 H         1 UNK         0.0800 
    135 H135        0.2945  -15.3222  -50.0208 H         1 UNK         0.0800 
    136 H136        0.7429  -16.8660  -51.8541 H         1 UNK         0.1150 
    137 H137        2.9253  -20.4784  -51.0846 H         1 UNK         0.1150 
    138 H138        1.6334  -18.0148  -47.8292 H         1 UNK         0.1150 
    139 H139        3.9948  -20.5537  -48.6702 H         1 UNK         0.0800 
    140 H140        3.0470  -19.8861  -47.3665 H         1 UNK         0.0800 
    141 H141        0.4736  -20.4416  -47.0768 H         1 UNK         0.0800 
    142 H142       -0.1205  -20.9112  -48.6509 H         1 UNK         0.0800 
    143 H143       -0.3630  -23.2917  -47.7646 H         1 UNK         0.0600 
    144 H144        0.8160  -22.2099  -45.4058 H         1 UNK         0.3000 
    145 H145       -0.1517  -24.7425  -43.1512 H         1 UNK         0.0600 
    146 H146        2.3072  -24.9920  -42.8999 H         1 UNK         0.0600 
    147 H147        1.7662  -25.7831  -44.3720 H         1 UNK         0.0600 
    148 H148        2.5730  -24.2220  -44.4646 H         1 UNK         0.0600 
    149 H149        1.6211  -22.5211  -42.8967 H         1 UNK         0.3000 
    150 H150        0.0333  -19.9783  -43.0279 H         1 UNK         0.0600 
    151 H151       -2.0159  -19.9725  -41.7113 H         1 UNK         0.0600 
    152 H152       -0.7789  -19.0724  -40.8508 H         1 UNK         0.0600 
    153 H153       -1.2068  -20.7050  -40.3371 H         1 UNK         0.0600 
    154 H154        2.0322  -20.0070  -42.1376 H         1 UNK         0.3000 
    155 H155        3.2048  -20.4232  -38.9356 H         1 UNK         0.0600 
    156 H156        3.8211  -22.7458  -39.6300 H         1 UNK         0.0600 
    157 H157        5.1814  -21.6513  -39.8150 H         1 UNK         0.0600 
    158 H158        4.2626  -22.1645  -41.2310 H         1 UNK         0.0600 
    159 H159        4.4822  -19.7401  -41.4278 H         1 UNK         0.3000 
    160 H160        3.9827  -16.2786  -41.0868 H         1 UNK         0.0600 
    161 H161        5.5917  -18.4569  -42.5292 H         1 UNK         0.0600 
    162 H162        5.9386  -16.7352  -42.4738 H         1 UNK         0.0600 
    163 H163        6.0626  -17.6967  -41.0111 H         1 UNK         0.0600 
    164 H164        2.9976  -16.1050  -43.0508 H         1 UNK         0.3000 
    165 H165        2.7157  -18.0534  -45.8479 H         1 UNK         0.0600 
    166 H166        0.1748  -17.5712  -44.2043 H         1 UNK         0.0600 
    167 H167        0.2254  -17.6343  -45.9675 H         1 UNK         0.0600 
    168 H168        0.6317  -19.0582  -45.0334 H         1 UNK         0.0600 
    169 H169        1.4531  -15.5641  -45.0634 H         1 UNK         0.3000 
    170 H170        4.1785  -13.5069  -45.2617 H         1 UNK         0.0600 
    171 H171        4.1168  -13.8410  -47.7510 H         1 UNK         0.0600 
    172 H172        2.3588  -13.7827  -47.7163 H         1 UNK         0.0600 
    173 H173        3.3017  -12.3619  -47.2714 H         1 UNK         0.0600 
    174 H174        1.4560  -12.8481  -45.6300 H         1 UNK         0.3000 
    175 H175       -0.0865  -13.4958  -42.9727 H         1 UNK         0.0600 
    176 H176        1.5545  -11.0603  -42.1116 H         1 UNK         0.0600 
    177 H177       -0.1142  -11.3723  -41.6324 H         1 UNK         0.0600 
    178 H178        1.1648  -12.4707  -41.1427 H         1 UNK         0.0600 
    179 H179       -0.9832  -12.3461  -44.5885 H         1 UNK         0.3000 
    180 H180       -0.8332   -9.1719  -45.7931 H         1 UNK         0.0600 
    181 H181        0.3805  -11.3237  -47.6160 H         1 UNK         0.0600 
    182 H182       -0.4411   -9.8593  -48.1555 H         1 UNK         0.0600 
    183 H183        1.0808   -9.7432  -47.2903 H         1 UNK         0.0600 
    184 H184       -1.9406  -11.6087  -46.9166 H         1 UNK         0.3000 
    185 H185       -4.5974  -11.9748  -44.6782 H         1 UNK         0.0600 
    186 H186       -4.8485  -10.7891  -47.4944 H         1 UNK         0.0600 
    187 H187       -6.1139  -11.6403  -46.6069 H         1 UNK         0.0600 
    188 H188       -5.5309  -10.0874  -46.0323 H         1 UNK         0.0600 
    189 H189       -4.2789  -13.2078  -47.1616 H         1 UNK         0.3000 
    190 H190       -1.9572  -22.0450  -44.9936 H         1 UNK         0.3000 
    191 H191       -4.3579  -21.0827  -46.2391 H         1 UNK         0.0600 
    192 H192       -4.0766  -22.4369  -43.5116 H         1 UNK         0.0600 
    193 H193       -5.3402  -21.3346  -44.0351 H         1 UNK         0.0600 
    194 H194       -3.7036  -20.7425  -43.7943 H         1 UNK         0.0600 
    195 H195       -3.0389  -24.2845  -45.5548 H         1 UNK         0.3000 
    196 H196       -5.5090  -25.6501  -46.5237 H         1 UNK         0.0600 
    197 H197       -4.3817  -27.6973  -45.6688 H         1 UNK         0.0600 
    198 H198       -4.5798  -26.5046  -44.3942 H         1 UNK         0.0600 
    199 H199       -3.0012  -26.7433  -45.1383 H         1 UNK         0.0600 
    200 H200       -1.9268  -25.5320  -47.0057 H         1 UNK         0.3000 
    201 H201       -1.9494  -27.3391  -49.1631 H         1 UNK         0.0600 
    202 H202       -0.0091  -26.9597  -47.6623 H         1 UNK         0.0600 
    203 H203        0.2392  -25.3588  -48.3519 H         1 UNK         0.0600 
    204 H204        0.4484  -26.7876  -49.3488 H         1 UNK         0.0600 
    205 H205       -2.3142  -23.8171  -49.2594 H         1 UNK         0.3000 
    206 H206       -2.4447  -23.9242  -52.2501 H         1 UNK         0.0600 
    207 H207       -0.3466  -22.7678  -51.4522 H         1 UNK         0.0600 
    208 H208       -1.4438  -21.6817  -52.2863 H         1 UNK         0.0600 
    209 H209       -1.3401  -21.6379  -50.5337 H         1 UNK         0.0600 
    210 H210       -4.3434  -23.8478  -49.6682 H         1 UNK         0.3000 
    211 H211       -6.3043  -23.0358  -49.0203 H         1 UNK         0.0600 
    212 H212       -6.7474  -22.3711  -51.9741 H         1 UNK         0.0600 
    213 H213       -7.9956  -22.5649  -50.7517 H         1 UNK         0.0600 
    214 H214       -7.0175  -23.9426  -51.2277 H         1 UNK         0.0600 
    215 H215       -4.1310  -21.2670  -48.6697 H         1 UNK         0.3000 
    216 H216       -3.5266  -19.2110  -48.1242 H         1 UNK         0.0600 
    217 H217       -5.6245  -19.1138  -46.7631 H         1 UNK         0.0600 
    218 H218       -6.4878  -18.4202  -48.1339 H         1 UNK         0.0600 
    219 H219       -5.1721  -17.5358  -47.3816 H         1 UNK         0.0600 
    220 H220       -3.3378  -19.9896  -50.6958 H         1 UNK         0.3000 
    221 H221       -2.5806  -19.3558  -52.6335 H         1 UNK         0.0600 
    222 H222       -3.1354  -16.4177  -51.9929 H         1 UNK         0.0600 
    223 H223       -1.6623  -17.2818  -51.5572 H         1 UNK         0.0600 
    224 H224       -2.0805  -17.0539  -53.2462 H         1 UNK         0.0600 
    225 H225       -5.7386  -19.3374  -51.8239 H         1 UNK         0.3000 
    226 H226       -6.9662  -18.1991  -54.1555 H         1 UNK         0.0600 
    227 H227       -8.1599  -18.6037  -51.9742 H         1 UNK         0.0600 
    228 H228       -8.9973  -19.2956  -53.3556 H         1 UNK         0.0600 
    229 H229       -8.0854  -20.3397  -52.2800 H         1 UNK         0.0600 
    230 H230       -5.3247  -21.2449  -53.6099 H         1 UNK         0.3000 
    231 H231       -6.3936  -22.5549  -56.0146 H         1 UNK         0.0600 
    232 H232       -4.0214  -23.3351  -54.2442 H         1 UNK         0.0600 
    233 H233       -5.6876  -23.8263  -53.9337 H         1 UNK         0.0600 
    234 H234       -4.8682  -24.3568  -55.3935 H         1 UNK         0.0600 
    235 H235       -4.4054  -19.9476  -55.6368 H         1 UNK         0.3000 
    236 H236       -2.9436  -18.8201  -56.7991 H         1 UNK         0.0600 
    237 H237       -4.3881  -19.3737  -58.7793 H         1 UNK         0.0600 
    238 H238       -2.7070  -19.1244  -59.2175 H         1 UNK         0.0600 
    239 H239       -3.3521  -20.7557  -59.1368 H         1 UNK         0.0600 
    240 H240       -2.1788  -21.3879  -55.3141 H         1 UNK         0.3000 
    241 H241       -0.3793  -22.4279  -54.5964 H         1 UNK         0.0600 
    242 H242       -0.0504  -24.1667  -58.0022 H         1 UNK         0.3800 
    243 H243       -1.3662  -23.1795  -57.4176 H         1 UNK         0.3800 
    244 H244        1.2703  -20.1912  -55.8760 H         1 UNK         0.0800 
    245 H245        1.8544  -21.3401  -54.6952 H         1 UNK         0.0800 
    246 H246        2.0708  -18.0588  -53.6778 H         1 UNK         0.0800 
    247 H247        2.7603  -19.6284  -53.3397 H         1 UNK         0.0800 
@<TRIPOS>BOND
     1    1    2 1    
     2    1  127 1    
     3    1  128 1    
     4    1  129 1    
     5    2    3 2    
     6    2    4 am   BACKBONE|DICT|INTERRES
     7    4    5 1    
     8    4  130 1    
     9    5    6 1    
    10    5   65 1    
    11    5  131 1    
    12    6    7 1    
    13    6  132 1    
    14    6  133 1    
    15    7    8 1    
    16    8    9 1    
    17    8  134 1    
    18    8  135 1    
    19    9   10 ar   
    20    9   14 ar   
    21   10   11 ar   
    22   10  136 1    
    23   11   12 ar   
    24   11  126 1    
    25   12   13 ar   
    26   12  137 1    
    27   13   14 ar   
    28   13   15 1    
    29   14  138 1    
    30   15   16 1    
    31   15  139 1    
    32   15  140 1    
    33   16   17 1    
    34   17   18 1    
    35   17  141 1    
    36   17  142 1    
    37   18   19 1    
    38   18   67 1    
    39   18  143 1    
    40   19   20 am   BACKBONE|DICT|INTERRES
    41   19  144 1    
    42   20   21 2    
    43   20   22 1    
    44   22   23 1    
    45   22   24 1    
    46   22  145 1    
    47   23  146 1    
    48   23  147 1    
    49   23  148 1    
    50   24   25 am   BACKBONE|DICT|INTERRES
    51   24  149 1    
    52   25   26 2    
    53   25   27 1    
    54   27   28 1    
    55   27   29 1    
    56   27  150 1    
    57   28  151 1    
    58   28  152 1    
    59   28  153 1    
    60   29   30 am   BACKBONE|DICT|INTERRES
    61   29  154 1    
    62   30   31 2    
    63   30   32 1    
    64   32   33 1    
    65   32   34 1    
    66   32  155 1    
    67   33  156 1    
    68   33  157 1    
    69   33  158 1    
    70   34   35 am   BACKBONE|DICT|INTERRES
    71   34  159 1    
    72   35   36 2    
    73   35   37 1    
    74   37   38 1    
    75   37   39 1    
    76   37  160 1    
    77   38  161 1    
    78   38  162 1    
    79   38  163 1    
    80   39   40 am   BACKBONE|DICT|INTERRES
    81   39  164 1    
    82   40   41 2    
    83   40   42 1    
    84   42   43 1    
    85   42   44 1    
    86   42  165 1    
    87   43  166 1    
    88   43  167 1    
    89   43  168 1    
    90   44   45 am   BACKBONE|DICT|INTERRES
    91   44  169 1    
    92   45   46 2    
    93   45   47 1    
    94   47   48 1    
    95   47   49 1    
    96   47  170 1    
    97   48  171 1    
    98   48  172 1    
    99   48  173 1    
   100   49   50 am   BACKBONE|DICT|INTERRES
   101   49  174 1    
   102   50   51 2    
   103   50   52 1    
   104   52   53 1    
   105   52   54 1    
   106   52  175 1    
   107   53  176 1    
   108   53  177 1    
   109   53  178 1    
   110   54   55 am   BACKBONE|DICT|INTERRES
   111   54  179 1    
   112   55   56 2    
   113   55   57 1    
   114   57   58 1    
   115   57   59 1    
   116   57  180 1    
   117   58  181 1    
   118   58  182 1    
   119   58  183 1    
   120   59   60 am   BACKBONE|DICT|INTERRES
   121   59  184 1    
   122   60   61 2    
   123   60   62 1    
   124   62   63 1    
   125   62   64 1    
   126   62  185 1    
   127   63  186 1    
   128   63  187 1    
   129   63  188 1    
   130   64   65 am   BACKBONE|DICT|INTERRES
   131   64  189 1    
   132   65   66 2    
   133   67   68 2    
   134   67   69 am   BACKBONE|DICT|INTERRES
   135   69   70 1    
   136   69  190 1    
   137   70   71 1    
   138   70   72 1    
   139   70  191 1    
   140   71  192 1    
   141   71  193 1    
   142   71  194 1    
   143   72   73 2    
   144   72   74 am   BACKBONE|DICT|INTERRES
   145   74   75 1    
   146   74  195 1    
   147   75   76 1    
   148   75   77 1    
   149   75  196 1    
   150   76  197 1    
   151   76  198 1    
   152   76  199 1    
   153   77   78 2    
   154   77   79 am   BACKBONE|DICT|INTERRES
   155   79   80 1    
   156   79  200 1    
   157   80   81 1    
   158   80   82 1    
   159   80  201 1    
   160   81  202 1    
   161   81  203 1    
   162   81  204 1    
   163   82   83 2    
   164   82   84 am   BACKBONE|DICT|INTERRES
   165   84   85 1    
   166   84  205 1    
   167   85   86 1    
   168   85   87 1    
   169   85  206 1    
   170   86  207 1    
   171   86  208 1    
   172   86  209 1    
   173   87   88 2    
   174   87   89 am   BACKBONE|DICT|INTERRES
   175   89   90 1    
   176   89  210 1    
   177   90   91 1    
   178   90   92 1    
   179   90  211 1    
   180   91  212 1    
   181   91  213 1    
   182   91  214 1    
   183   92   93 2    
   184   92   94 am   BACKBONE|DICT|INTERRES
   185   94   95 1    
   186   94  215 1    
   187   95   96 1    
   188   95   97 1    
   189   95  216 1    
   190   96  217 1    
   191   96  218 1    
   192   96  219 1    
   193   97   98 2    
   194   97   99 am   BACKBONE|DICT|INTERRES
   195   99  100 1    
   196   99  220 1    
   197  100  101 1    
   198  100  102 1    
   199  100  221 1    
   200  101  222 1    
   201  101  223 1    
   202  101  224 1    
   203  102  103 2    
   204  102  104 am   BACKBONE|DICT|INTERRES
   205  104  105 1    
   206  104  225 1    
   207  105  106 1    
   208  105  107 1    
   209  105  226 1    
   210  106  227 1    
   211  106  228 1    
   212  106  229 1    
   213  107  108 2    
   214  107  109 am   BACKBONE|DICT|INTERRES
   215  109  110 1    
   216  109  230 1    
   217  110  111 1    
   218  110  112 1    
   219  110  231 1    
   220  111  232 1    
   221  111  233 1    
   222  111  234 1    
   223  112  113 2    
   224  112  114 am   BACKBONE|DICT|INTERRES
   225  114  115 1    
   226  114  235 1    
   227  115  116 1    
   228  115  117 1    
   229  115  236 1    
   230  116  237 1    
   231  116  238 1    
   232  116  239 1    
   233  117  118 2    
   234  117  119 am   BACKBONE|DICT|INTERRES
   235  119  120 1    
   236  119  240 1    
   237  120  121 1    
   238  120  124 1    
   239  120  241 1    
   240  121  122 am   BACKBONE|DICT|INTERRES
   241  121  123 2    
   242  122  242 1    
   243  122  243 1    
   244  124  125 1    
   245  124  244 1    
   246  124  245 1    
   247  125  126 1    
   248  126  246 1    
   249  126  247 1    
@<TRIPOS>SUBSTRUCTURE
     1 UNK         1 GROUP             0       ****    0 ROOT    
