@<TRIPOS>MOLECULE
3R540
247   249    1
SMALL
USER_CHARGES


@<TRIPOS>ATOM
      1 CA          2.9231  -12.8214  -47.0172 C.3       0 UNK        -0.1800 
      2 C           1.4710  -12.9245  -46.5777 C.2       0 UNK         0.5000 
      3 O           1.1843  -12.8567  -45.3832 O.2       0 UNK        -0.5000 
      4 N           0.5481  -13.0756  -47.5352 N.am      1 UNK        -0.5000 
      5 CA         -0.8963  -13.2016  -47.2951 C.3       1 UNK         0.1400 
      6 C6         -1.6454  -13.7278  -48.5437 C.3       23 UNK        -0.0398 
      7 S7         -1.3831  -15.5126  -48.8252 S.3       23 UNK        -0.2404 
      8 C8          0.1738  -15.5355  -49.7637 C.3       23 UNK        -0.0205 
      9 C9          0.4016  -16.8942  -50.4047 C.ar      23 UNK        -0.0193 
     10 C10        -0.0271  -17.1241  -51.7132 C.ar      23 UNK        -0.1150 
     11 C11         0.1715  -18.3671  -52.3184 C.ar      23 UNK        -0.0193 
     12 C12         0.8169  -19.3833  -51.6069 C.ar      23 UNK        -0.1150 
     13 C13         1.2607  -19.1644  -50.2978 C.ar      23 UNK        -0.0193 
     14 C14         1.0495  -17.9156  -49.7031 C.ar      23 UNK        -0.1150 
     15 C15         2.0237  -20.2491  -49.5458 C.3       23 UNK        -0.0205 
     16 S16         1.1178  -21.8255  -49.4096 S.3       23 UNK        -0.2404 
     17 C17        -0.2938  -21.4025  -48.3354 C.3       23 UNK        -0.0398 
     18 CA         -0.5692  -22.5211  -47.2938 C.3       11 UNK         0.1400 
     19 N           0.1943  -22.3545  -46.0505 N.am      11 UNK        -0.5000 
     20 C           0.2489  -23.2685  -45.0691 C.2       10 UNK         0.5000 
     21 O          -0.3032  -24.3666  -45.1282 O.2       10 UNK        -0.5000 
     22 CA          0.9968  -22.8814  -43.7813 C.3       10 UNK         0.1400 
     23 CB          2.5163  -23.0081  -43.9648 C.3       10 UNK        -0.1800 
     24 N           0.6539  -21.5393  -43.3104 N.am      10 UNK        -0.5000 
     25 C          -0.5689  -21.1675  -42.9035 C.2       9 UNK         0.5000 
     26 O          -1.5289  -21.9335  -42.8418 O.2       9 UNK        -0.5000 
     27 CA         -0.7741  -19.6806  -42.5602 C.3       9 UNK         0.1400 
     28 CB         -0.2554  -19.3603  -41.1510 C.3       9 UNK        -0.1800 
     29 N          -0.1432  -18.7907  -43.5330 N.am      9 UNK        -0.5000 
     30 C          -0.4561  -18.7441  -44.8354 C.2       8 UNK         0.5000 
     31 O          -1.3551  -19.4055  -45.3541 O.2       8 UNK        -0.5000 
     32 CA          0.4329  -17.8580  -45.7192 C.3       8 UNK         0.1400 
     33 CB          0.0212  -16.3847  -45.6199 C.3       8 UNK        -0.1800 
     34 N           1.8507  -17.9974  -45.3890 N.am      8 UNK        -0.5000 
     35 C           2.5586  -19.1224  -45.5587 C.2       7 UNK         0.5000 
     36 O           2.0947  -20.1537  -46.0427 O.2       7 UNK        -0.5000 
     37 CA          4.0147  -19.1010  -45.0616 C.3       7 UNK         0.1400 
     38 CB          4.9190  -18.3734  -46.0679 C.3       7 UNK        -0.1800 
     39 N           4.1421  -18.4734  -43.7453 N.am      7 UNK        -0.5000 
     40 C           3.6246  -18.9762  -42.6148 C.2       6 UNK         0.5000 
     41 O           3.0356  -20.0541  -42.5554 O.2       6 UNK        -0.5000 
     42 CA          3.7405  -18.1084  -41.3464 C.3       6 UNK         0.1400 
     43 CB          5.0533  -18.4076  -40.6077 C.3       6 UNK        -0.1800 
     44 N           3.6477  -16.6687  -41.6081 N.am      6 UNK        -0.5000 
     45 C           2.5972  -16.0596  -42.1744 C.2       5 UNK         0.5000 
     46 O           1.5885  -16.6581  -42.5560 O.2       5 UNK        -0.5000 
     47 CA          2.7450  -14.5445  -42.4094 C.3       5 UNK         0.1400 
     48 CB          3.7010  -14.2840  -43.5849 C.3       5 UNK        -0.1800 
     49 N           1.4761  -13.8805  -42.7004 N.am      5 UNK        -0.5000 
     50 C           0.4523  -13.7323  -41.8489 C.2       4 UNK         0.5000 
     51 O           0.4609  -14.1358  -40.6839 O.2       4 UNK        -0.5000 
     52 CA         -0.7612  -12.9570  -42.4060 C.3       4 UNK         0.1400 
     53 CB         -1.8464  -12.6611  -41.3500 C.3       4 UNK        -0.1800 
     54 N          -0.3404  -11.7343  -43.0988 N.am      4 UNK        -0.5000 
     55 C           0.3164  -10.6853  -42.5791 C.2       3 UNK         0.5000 
     56 O           0.5254  -10.5275  -41.3757 O.2       3 UNK        -0.5000 
     57 CA          0.8714   -9.6477  -43.5739 C.3       3 UNK         0.1400 
     58 CB          2.3924   -9.8201  -43.7202 C.3       3 UNK        -0.1800 
     59 N           0.2657   -9.7521  -44.9020 N.am      3 UNK        -0.5000 
     60 C          -0.8628   -9.1377  -45.2816 C.2       2 UNK         0.5000 
     61 O          -1.5139   -8.3886  -44.5528 O.2       2 UNK        -0.5000 
     62 CA         -1.3469   -9.4114  -46.7197 C.3       2 UNK         0.1400 
     63 CB         -0.7967   -8.3491  -47.6835 C.3       2 UNK        -0.1800 
     64 N          -0.9619  -10.7404  -47.2023 N.am      2 UNK        -0.5000 
     65 C          -1.5165  -11.8860  -46.7803 C.2       1 UNK         0.5000 
     66 O          -2.4516  -11.9336  -45.9810 O.2       1 UNK        -0.5000 
     67 C          -2.0802  -22.6867  -47.0290 C.2       11 UNK         0.5000 
     68 O          -2.6993  -23.5713  -47.6217 O.2       11 UNK        -0.5000 
     69 N          -2.6370  -21.8739  -46.1204 N.am      12 UNK        -0.5000 
     70 CA         -4.0328  -21.9525  -45.6882 C.3       12 UNK         0.1400 
     71 CB         -4.3744  -20.7288  -44.8250 C.3       12 UNK        -0.1800 
     72 C          -4.3599  -23.2592  -44.9406 C.2       12 UNK         0.5000 
     73 O          -5.4096  -23.8504  -45.1940 O.2       12 UNK        -0.5000 
     74 N          -3.4557  -23.6929  -44.0505 N.am      13 UNK        -0.5000 
     75 CA         -3.5723  -24.9326  -43.2809 C.3       13 UNK         0.1400 
     76 CB         -2.5107  -24.9558  -42.1706 C.3       13 UNK        -0.1800 
     77 C          -3.4675  -26.1925  -44.1577 C.2       13 UNK         0.5000 
     78 O          -4.2398  -27.1318  -43.9610 O.2       13 UNK        -0.5000 
     79 N          -2.5279  -26.1871  -45.1139 N.am      14 UNK        -0.5000 
     80 CA         -2.3463  -27.2537  -46.0993 C.3       14 UNK         0.1400 
     81 CB         -1.0102  -27.0523  -46.8293 C.3       14 UNK        -0.1800 
     82 C          -3.5030  -27.3244  -47.1113 C.2       14 UNK         0.5000 
     83 O          -3.8734  -28.4215  -47.5310 O.2       14 UNK        -0.5000 
     84 N          -4.0377  -26.1530  -47.4865 N.am      15 UNK        -0.5000 
     85 CA         -5.1480  -25.8828  -48.4066 C.3       15 UNK         0.1400 
     86 CB         -6.4536  -26.5502  -47.9363 C.3       15 UNK        -0.1800 
     87 C          -4.8332  -26.2198  -49.8749 C.2       15 UNK         0.5000 
     88 O          -5.0139  -25.3674  -50.7424 O.2       15 UNK        -0.5000 
     89 N          -4.3254  -27.4320  -50.1273 N.am      16 UNK        -0.5000 
     90 CA         -3.9003  -27.9274  -51.4389 C.3       16 UNK         0.1400 
     91 CB         -3.6695  -29.4431  -51.3407 C.3       16 UNK        -0.1800 
     92 C          -2.6415  -27.2230  -51.9849 C.2       16 UNK         0.5000 
     93 O          -2.3943  -27.2721  -53.1901 O.2       16 UNK        -0.5000 
     94 N          -1.8713  -26.5828  -51.0942 N.am      17 UNK        -0.5000 
     95 CA         -0.7169  -25.7505  -51.4329 C.3       17 UNK         0.1400 
     96 CB          0.1340  -25.5519  -50.1707 C.3       17 UNK        -0.1800 
     97 C          -1.1186  -24.3859  -52.0282 C.2       17 UNK         0.5000 
     98 O          -0.3248  -23.7925  -52.7592 O.2       17 UNK        -0.5000 
     99 N          -2.3322  -23.9169  -51.7095 N.am      18 UNK        -0.5000 
    100 CA        -2.9210  -22.6969  -52.2509 C.3       18 UNK         0.1400 
    101 CB        -3.8030  -22.0536  -51.1674 C.3       18 UNK        -0.1800 
    102 C         -3.7372  -23.0050  -53.5209 C.2       18 UNK         0.5000 
    103 O         -4.0389  -24.1649  -53.8129 O.2       18 UNK        -0.5000 
    104 N         -4.0958  -21.9463  -54.2480 N.am      19 UNK        -0.5000 
    105 CA        -4.9050  -21.9673  -55.4609 C.3       19 UNK         0.1400 
    106 CB        -3.9925  -22.2109  -56.6774 C.3       19 UNK        -0.1800 
    107 C         -5.6379  -20.6229  -55.5752 C.2       19 UNK         0.5000 
    108 O         -5.3595  -19.7062  -54.7982 O.2       19 UNK        -0.5000 
    109 N         -6.5286  -20.4979  -56.5686 N.am      20 UNK        -0.5000 
    110 CA        -7.2650  -19.2634  -56.8765 C.3       20 UNK         0.1400 
    111 CB        -8.2526  -19.5357  -58.0210 C.3       20 UNK        -0.1800 
    112 C         -6.3508  -18.0687  -57.2232 C.2       20 UNK         0.5000 
    113 O         -6.6982  -16.9243  -56.9274 O.2       20 UNK        -0.5000 
    114 N         -5.1715  -18.3668  -57.7875 N.am      21 UNK        -0.5000 
    115 CA        -4.0940  -17.4178  -58.0738 C.3       21 UNK         0.1400 
    116 CB        -3.0044  -18.1421  -58.8797 C.3       21 UNK        -0.1800 
    117 C         -3.4831  -16.7598  -56.8179 C.2       21 UNK         0.5000 
    118 O         -2.8719  -15.6972  -56.9387 O.2       21 UNK        -0.5000 
    119 N         -3.6592  -17.3824  -55.6441 N.am      22 UNK        -0.5000 
    120 CA        -3.2377  -16.8461  -54.3407 C.3       22 UNK         0.1400 
    121 C         -4.1746  -15.7334  -53.7829 C.2       22 UNK         0.5000 
    122 N         -5.3353  -15.4710  -54.3752 N.am      22 UNK        -0.7600 
    123 O         -3.8357  -15.0854  -52.7970 O.2       22 UNK        -0.5000 
    124 C124       -3.0253  -17.9640  -53.2842 C.3       23 UNK        -0.0398 
    125 S125       -1.9461  -19.3287  -53.8472 S.3       23 UNK        -0.2404 
    126 C126       -0.2826  -18.5969  -53.7514 C.3       23 UNK        -0.0205 
    127 H127        3.4045  -11.9759  -46.5260 H         1 UNK         0.0600 
    128 H128        3.4620  -13.7282  -46.7446 H         1 UNK         0.0600 
    129 H129        3.0100  -12.6833  -48.0949 H         1 UNK         0.0600 
    130 H130        0.8403  -13.1087  -48.5006 H         1 UNK         0.3000 
    131 H131       -1.0380  -13.9231  -46.4892 H         1 UNK         0.0600 
    132 H132       -1.3743  -13.1628  -49.4369 H         1 UNK         0.0800 
    133 H133       -2.7230  -13.5972  -48.4259 H         1 UNK         0.0800 
    134 H134        0.1552  -14.7601  -50.5311 H         1 UNK         0.0800 
    135 H135        1.0060  -15.3012  -49.0992 H         1 UNK         0.0800 
    136 H136       -0.5196  -16.3327  -52.2607 H         1 UNK         0.1150 
    137 H137        0.9836  -20.3434  -52.0754 H         1 UNK         0.1150 
    138 H138        1.4035  -17.7296  -48.6997 H         1 UNK         0.1150 
    139 H139        2.9599  -20.4365  -50.0727 H         1 UNK         0.0800 
    140 H140        2.3041  -19.9076  -48.5512 H         1 UNK         0.0800 
    141 H141       -0.1254  -20.4438  -47.8429 H         1 UNK         0.0800 
    142 H142       -1.1449  -21.2499  -49.0018 H         1 UNK         0.0800 
    143 H143       -0.2477  -23.4724  -47.7201 H         1 UNK         0.0600 
    144 H144        0.7226  -21.4919  -45.9486 H         1 UNK         0.3000 
    145 H145        0.6968  -23.5870  -43.0039 H         1 UNK         0.0600 
    146 H146        3.0422  -22.8240  -43.0279 H         1 UNK         0.0600 
    147 H147        2.7863  -24.0112  -44.2971 H         1 UNK         0.0600 
    148 H148        2.8966  -22.3046  -44.7048 H         1 UNK         0.0600 
    149 H149        1.4101  -20.8621  -43.2812 H         1 UNK         0.3000 
    150 H150       -1.8472  -19.4798  -42.5797 H         1 UNK         0.0600 
    151 H151       -0.7682  -19.9646  -40.4018 H         1 UNK         0.0600 
    152 H152       -0.4221  -18.3133  -40.8969 H         1 UNK         0.0600 
    153 H153        0.8114  -19.5611  -41.0585 H         1 UNK         0.0600 
    154 H154        0.5869  -18.1728  -43.1883 H         1 UNK         0.3000 
    155 H155        0.2881  -18.1804  -46.7512 H         1 UNK         0.0600 
    156 H156        0.5930  -15.7788  -46.3212 H         1 UNK         0.0600 
    157 H157        0.1729  -15.9762  -44.6216 H         1 UNK         0.0600 
    158 H158       -1.0345  -16.2633  -45.8639 H         1 UNK         0.0600 
    159 H159        2.2826  -17.2183  -44.9158 H         1 UNK         0.3000 
    160 H160        4.3555  -20.1354  -44.9807 H         1 UNK         0.0600 
    161 H161        4.6487  -17.3215  -46.1699 H         1 UNK         0.0600 
    162 H162        4.8463  -18.8284  -47.0567 H         1 UNK         0.0600 
    163 H163        5.9650  -18.4231  -45.7647 H         1 UNK         0.0600 
    164 H164        4.6168  -17.5841  -43.7036 H         1 UNK         0.3000 
    165 H165        2.9119  -18.3765  -40.6884 H         1 UNK         0.0600 
    166 H166        5.9237  -18.1275  -41.2022 H         1 UNK         0.0600 
    167 H167        5.1050  -17.8699  -39.6608 H         1 UNK         0.0600 
    168 H168        5.1393  -19.4712  -40.3804 H         1 UNK         0.0600 
    169 H169        4.4444  -16.1126  -41.3326 H         1 UNK         0.3000 
    170 H170        3.1607  -14.0944  -41.5058 H         1 UNK         0.0600 
    171 H171        4.6968  -14.6809  -43.3848 H         1 UNK         0.0600 
    172 H172        3.3394  -14.7497  -44.5024 H         1 UNK         0.0600 
    173 H173        3.8125  -13.2161  -43.7746 H         1 UNK         0.0600 
    174 H174        1.3695  -13.5156  -43.6438 H         1 UNK         0.3000 
    175 H175       -1.2094  -13.5986  -43.1662 H         1 UNK         0.0600 
    176 H176       -2.6838  -12.1185  -41.7886 H         1 UNK         0.0600 
    177 H177       -2.2425  -13.5871  -40.9318 H         1 UNK         0.0600 
    178 H178       -1.4602  -12.0690  -40.5201 H         1 UNK         0.0600 
    179 H179       -0.4027  -11.7740  -44.1069 H         1 UNK         0.3000 
    180 H180        0.6783   -8.6549  -43.1618 H         1 UNK         0.0600 
    181 H181        2.8123   -9.0702  -44.3907 H         1 UNK         0.0600 
    182 H182        2.8931   -9.7105  -42.7574 H         1 UNK         0.0600 
    183 H183        2.6506  -10.8046  -44.1125 H         1 UNK         0.0600 
    184 H184        0.7253  -10.3671  -45.5572 H         1 UNK         0.3000 
    185 H185       -2.4369   -9.3426  -46.7226 H         1 UNK         0.0600 
    186 H186       -1.1842   -8.4932  -48.6922 H         1 UNK         0.0600 
    187 H187       -1.0865   -7.3466  -47.3657 H         1 UNK         0.0600 
    188 H188        0.2925   -8.3752  -47.7343 H         1 UNK         0.0600 
    189 H189       -0.1962  -10.7846  -47.8588 H         1 UNK         0.3000 
    190 H190       -2.0732  -21.1371  -45.7036 H         1 UNK         0.3000 
    191 H191       -4.6587  -21.9190  -46.5825 H         1 UNK         0.0600 
    192 H192       -5.4174  -20.7532  -44.5068 H         1 UNK         0.0600 
    193 H193       -4.2245  -19.8021  -45.3793 H         1 UNK         0.0600 
    194 H194       -3.7573  -20.6837  -43.9274 H         1 UNK         0.0600 
    195 H195       -2.6450  -23.1127  -43.8517 H         1 UNK         0.3000 
    196 H196       -4.5558  -24.9404  -42.8063 H         1 UNK         0.0600 
    197 H197       -2.5801  -25.8707  -41.5810 H         1 UNK         0.0600 
    198 H198       -2.6396  -24.1176  -41.4857 H         1 UNK         0.0600 
    199 H199       -1.5008  -24.9022  -42.5784 H         1 UNK         0.0600 
    200 H200       -1.8841  -25.4011  -45.1691 H         1 UNK         0.3000 
    201 H201       -2.3068  -28.2079  -45.5699 H         1 UNK         0.0600 
    202 H202       -0.1717  -27.1036  -46.1346 H         1 UNK         0.0600 
    203 H203       -0.9701  -26.0829  -47.3259 H         1 UNK         0.0600 
    204 H204       -0.8536  -27.8210  -47.5872 H         1 UNK         0.0600 
    205 H205       -3.5878  -25.3114  -47.1397 H         1 UNK         0.3000 
    206 H206       -5.3020  -24.8033  -48.3600 H         1 UNK         0.0600 
    207 H207       -6.6969  -26.2557  -46.9151 H         1 UNK         0.0600 
    208 H208       -7.2904  -26.2527  -48.5693 H         1 UNK         0.0600 
    209 H209       -6.3942  -27.6384  -47.9664 H         1 UNK         0.0600 
    210 H210       -4.1918  -28.0523  -49.3322 H         1 UNK         0.3000 
    211 H211       -4.7099  -27.7461  -52.1488 H         1 UNK         0.0600 
    212 H212       -2.8821  -29.6834  -50.6251 H         1 UNK         0.0600 
    213 H213       -3.3760  -29.8586  -52.3056 H         1 UNK         0.0600 
    214 H214       -4.5766  -29.9605  -51.0276 H         1 UNK         0.0600 
    215 H215       -2.1452  -26.6105  -50.1239 H         1 UNK         0.3000 
    216 H216       -0.1127  -26.2753  -52.1759 H         1 UNK         0.0600 
    217 H217        1.0242  -24.9600  -50.3875 H         1 UNK         0.0600 
    218 H218        0.4680  -26.5053  -49.7611 H         1 UNK         0.0600 
    219 H219       -0.4268  -25.0287  -49.3975 H         1 UNK         0.0600 
    220 H220       -2.9655  -24.5135  -51.1940 H         1 UNK         0.3000 
    221 H221       -2.1276  -21.9932  -52.5097 H         1 UNK         0.0600 
    222 H222       -4.6564  -22.6834  -50.9143 H         1 UNK         0.0600 
    223 H223       -3.2378  -21.8756  -50.2525 H         1 UNK         0.0600 
    224 H224       -4.1926  -21.0905  -51.4993 H         1 UNK         0.0600 
    225 H225       -3.8627  -21.0122  -53.9309 H         1 UNK         0.3000 
    226 H226       -5.6550  -22.7578  -55.3920 H         1 UNK         0.0600 
    227 H227       -4.5658  -22.2554  -57.6038 H         1 UNK         0.0600 
    228 H228       -3.2498  -21.4189  -56.7853 H         1 UNK         0.0600 
    229 H229       -3.4584  -23.1568  -56.5862 H         1 UNK         0.0600 
    230 H230       -6.7089  -21.2897  -57.1691 H         1 UNK         0.3000 
    231 H231       -7.8372  -18.9883  -55.9881 H         1 UNK         0.0600 
    232 H232       -8.8320  -18.6423  -58.2578 H         1 UNK         0.0600 
    233 H233       -8.9618  -20.3190  -57.7527 H         1 UNK         0.0600 
    234 H234       -7.7382  -19.8445  -58.9319 H         1 UNK         0.0600 
    235 H235       -4.9783  -19.3364  -57.9887 H         1 UNK         0.3000 
    236 H236       -4.5076  -16.6188  -58.6924 H         1 UNK         0.0600 
    237 H237       -2.5683  -18.9666  -58.3140 H         1 UNK         0.0600 
    238 H238       -3.4031  -18.5456  -59.8106 H         1 UNK         0.0600 
    239 H239       -2.1945  -17.4607  -59.1436 H         1 UNK         0.0600 
    240 H240       -4.1940  -18.2425  -55.6070 H         1 UNK         0.3000 
    241 H241       -2.2714  -16.3608  -54.4866 H         1 UNK         0.0600 
    242 H242       -5.9257  -14.7438  -54.0035 H         1 UNK         0.3800 
    243 H243       -5.6340  -15.9890  -55.1910 H         1 UNK         0.3800 
    244 H244       -3.9860  -18.4003  -53.0085 H         1 UNK         0.0800 
    245 H245       -2.6256  -17.5519  -52.3580 H         1 UNK         0.0800 
    246 H246        0.4187  -19.2672  -54.2505 H         1 UNK         0.0800 
    247 H247       -0.2567  -17.6644  -54.3164 H         1 UNK         0.0800 
@<TRIPOS>BOND
     1    1    2 1    
     2    1  127 1    
     3    1  128 1    
     4    1  129 1    
     5    2    3 2    
     6    2    4 am   BACKBONE|DICT|INTERRES
     7    4    5 1    
     8    4  130 1    
     9    5    6 1    
    10    5   65 1    
    11    5  131 1    
    12    6    7 1    
    13    6  132 1    
    14    6  133 1    
    15    7    8 1    
    16    8    9 1    
    17    8  134 1    
    18    8  135 1    
    19    9   10 ar   
    20    9   14 ar   
    21   10   11 ar   
    22   10  136 1    
    23   11   12 ar   
    24   11  126 1    
    25   12   13 ar   
    26   12  137 1    
    27   13   14 ar   
    28   13   15 1    
    29   14  138 1    
    30   15   16 1    
    31   15  139 1    
    32   15  140 1    
    33   16   17 1    
    34   17   18 1    
    35   17  141 1    
    36   17  142 1    
    37   18   19 1    
    38   18   67 1    
    39   18  143 1    
    40   19   20 am   BACKBONE|DICT|INTERRES
    41   19  144 1    
    42   20   21 2    
    43   20   22 1    
    44   22   23 1    
    45   22   24 1    
    46   22  145 1    
    47   23  146 1    
    48   23  147 1    
    49   23  148 1    
    50   24   25 am   BACKBONE|DICT|INTERRES
    51   24  149 1    
    52   25   26 2    
    53   25   27 1    
    54   27   28 1    
    55   27   29 1    
    56   27  150 1    
    57   28  151 1    
    58   28  152 1    
    59   28  153 1    
    60   29   30 am   BACKBONE|DICT|INTERRES
    61   29  154 1    
    62   30   31 2    
    63   30   32 1    
    64   32   33 1    
    65   32   34 1    
    66   32  155 1    
    67   33  156 1    
    68   33  157 1    
    69   33  158 1    
    70   34   35 am   BACKBONE|DICT|INTERRES
    71   34  159 1    
    72   35   36 2    
    73   35   37 1    
    74   37   38 1    
    75   37   39 1    
    76   37  160 1    
    77   38  161 1    
    78   38  162 1    
    79   38  163 1    
    80   39   40 am   BACKBONE|DICT|INTERRES
    81   39  164 1    
    82   40   41 2    
    83   40   42 1    
    84   42   43 1    
    85   42   44 1    
    86   42  165 1    
    87   43  166 1    
    88   43  167 1    
    89   43  168 1    
    90   44   45 am   BACKBONE|DICT|INTERRES
    91   44  169 1    
    92   45   46 2    
    93   45   47 1    
    94   47   48 1    
    95   47   49 1    
    96   47  170 1    
    97   48  171 1    
    98   48  172 1    
    99   48  173 1    
   100   49   50 am   BACKBONE|DICT|INTERRES
   101   49  174 1    
   102   50   51 2    
   103   50   52 1    
   104   52   53 1    
   105   52   54 1    
   106   52  175 1    
   107   53  176 1    
   108   53  177 1    
   109   53  178 1    
   110   54   55 am   BACKBONE|DICT|INTERRES
   111   54  179 1    
   112   55   56 2    
   113   55   57 1    
   114   57   58 1    
   115   57   59 1    
   116   57  180 1    
   117   58  181 1    
   118   58  182 1    
   119   58  183 1    
   120   59   60 am   BACKBONE|DICT|INTERRES
   121   59  184 1    
   122   60   61 2    
   123   60   62 1    
   124   62   63 1    
   125   62   64 1    
   126   62  185 1    
   127   63  186 1    
   128   63  187 1    
   129   63  188 1    
   130   64   65 am   BACKBONE|DICT|INTERRES
   131   64  189 1    
   132   65   66 2    
   133   67   68 2    
   134   67   69 am   BACKBONE|DICT|INTERRES
   135   69   70 1    
   136   69  190 1    
   137   70   71 1    
   138   70   72 1    
   139   70  191 1    
   140   71  192 1    
   141   71  193 1    
   142   71  194 1    
   143   72   73 2    
   144   72   74 am   BACKBONE|DICT|INTERRES
   145   74   75 1    
   146   74  195 1    
   147   75   76 1    
   148   75   77 1    
   149   75  196 1    
   150   76  197 1    
   151   76  198 1    
   152   76  199 1    
   153   77   78 2    
   154   77   79 am   BACKBONE|DICT|INTERRES
   155   79   80 1    
   156   79  200 1    
   157   80   81 1    
   158   80   82 1    
   159   80  201 1    
   160   81  202 1    
   161   81  203 1    
   162   81  204 1    
   163   82   83 2    
   164   82   84 am   BACKBONE|DICT|INTERRES
   165   84   85 1    
   166   84  205 1    
   167   85   86 1    
   168   85   87 1    
   169   85  206 1    
   170   86  207 1    
   171   86  208 1    
   172   86  209 1    
   173   87   88 2    
   174   87   89 am   BACKBONE|DICT|INTERRES
   175   89   90 1    
   176   89  210 1    
   177   90   91 1    
   178   90   92 1    
   179   90  211 1    
   180   91  212 1    
   181   91  213 1    
   182   91  214 1    
   183   92   93 2    
   184   92   94 am   BACKBONE|DICT|INTERRES
   185   94   95 1    
   186   94  215 1    
   187   95   96 1    
   188   95   97 1    
   189   95  216 1    
   190   96  217 1    
   191   96  218 1    
   192   96  219 1    
   193   97   98 2    
   194   97   99 am   BACKBONE|DICT|INTERRES
   195   99  100 1    
   196   99  220 1    
   197  100  101 1    
   198  100  102 1    
   199  100  221 1    
   200  101  222 1    
   201  101  223 1    
   202  101  224 1    
   203  102  103 2    
   204  102  104 am   BACKBONE|DICT|INTERRES
   205  104  105 1    
   206  104  225 1    
   207  105  106 1    
   208  105  107 1    
   209  105  226 1    
   210  106  227 1    
   211  106  228 1    
   212  106  229 1    
   213  107  108 2    
   214  107  109 am   BACKBONE|DICT|INTERRES
   215  109  110 1    
   216  109  230 1    
   217  110  111 1    
   218  110  112 1    
   219  110  231 1    
   220  111  232 1    
   221  111  233 1    
   222  111  234 1    
   223  112  113 2    
   224  112  114 am   BACKBONE|DICT|INTERRES
   225  114  115 1    
   226  114  235 1    
   227  115  116 1    
   228  115  117 1    
   229  115  236 1    
   230  116  237 1    
   231  116  238 1    
   232  116  239 1    
   233  117  118 2    
   234  117  119 am   BACKBONE|DICT|INTERRES
   235  119  120 1    
   236  119  240 1    
   237  120  121 1    
   238  120  124 1    
   239  120  241 1    
   240  121  122 am   BACKBONE|DICT|INTERRES
   241  121  123 2    
   242  122  242 1    
   243  122  243 1    
   244  124  125 1    
   245  124  244 1    
   246  124  245 1    
   247  125  126 1    
   248  126  246 1    
   249  126  247 1    
@<TRIPOS>SUBSTRUCTURE
     1 UNK         1 GROUP             0       ****    0 ROOT    
