@<TRIPOS>MOLECULE
3R540
247   249    1
SMALL
USER_CHARGES


@<TRIPOS>ATOM
      1 CA         -8.7888  -14.8685  -45.9200 C.3       0 UNK        -0.1800 
      2 C          -7.4986  -15.5798  -46.3010 C.2       0 UNK         0.5000 
      3 O          -6.5889  -14.9545  -46.8467 O.2       0 UNK        -0.5000 
      4 N          -7.4031  -16.8807  -46.0016 N.am      1 UNK        -0.5000 
      5 CA         -6.2665  -17.7611  -46.3109 C.3       1 UNK         0.1400 
      6 C6         -6.6994  -19.2490  -46.4097 C.3       23 UNK        -0.0398 
      7 S7         -8.1217  -19.5283  -47.5257 S.3       23 UNK        -0.2404 
      8 C8         -7.3188  -20.1457  -49.0462 C.3       23 UNK        -0.0205 
      9 C9         -6.6630  -21.5276  -48.9645 C.ar      23 UNK        -0.0193 
     10 C10        -5.9391  -21.9772  -50.0724 C.ar      23 UNK        -0.1150 
     11 C11        -5.2942  -23.2199  -50.0645 C.ar      23 UNK        -0.0193 
     12 C12        -5.3945  -24.0291  -48.9280 C.ar      23 UNK        -0.1150 
     13 C13        -6.1357  -23.6093  -47.8200 C.ar      23 UNK        -0.0193 
     14 C14        -6.7656  -22.3630  -47.8451 C.ar      23 UNK        -0.1150 
     15 C15        -6.3033  -24.5094  -46.6053 C.3       23 UNK        -0.0205 
     16 S16        -5.2728  -23.9731  -45.2037 S.3       23 UNK        -0.2404 
     17 C17        -3.6829  -24.7865  -45.5704 C.3       23 UNK        -0.0398 
     18 CA         -2.4810  -23.8101  -45.5232 C.3       11 UNK         0.1400 
     19 N          -1.2486  -24.4976  -45.1074 N.am      11 UNK        -0.5000 
     20 C          -0.0905  -23.8851  -44.8331 C.2       10 UNK         0.5000 
     21 O           0.0787  -22.6685  -44.9480 O.2       10 UNK        -0.5000 
     22 CA          1.0852  -24.7676  -44.3872 C.3       10 UNK         0.1400 
     23 CB          1.6495  -25.5775  -45.5684 C.3       10 UNK        -0.1800 
     24 N           2.1126  -23.8795  -43.8605 N.am      10 UNK        -0.5000 
     25 C           3.1167  -24.1809  -43.0321 C.2       9 UNK         0.5000 
     26 O           3.3377  -25.3153  -42.6072 O.2       9 UNK        -0.5000 
     27 CA          4.0292  -23.0099  -42.6067 C.3       9 UNK         0.1400 
     28 CB          5.3348  -23.0281  -43.4162 C.3       9 UNK        -0.1800 
     29 N           3.3891  -21.7035  -42.7848 N.am      9 UNK        -0.5000 
     30 C           2.4445  -21.1892  -41.9894 C.2       8 UNK         0.5000 
     31 O           2.0961  -21.7122  -40.9297 O.2       8 UNK        -0.5000 
     32 CA          1.7569  -19.8996  -42.4889 C.3       8 UNK         0.1400 
     33 CB          0.6924  -19.3664  -41.5135 C.3       8 UNK        -0.1800 
     34 N           2.6760  -18.8109  -42.8238 N.am      8 UNK        -0.5000 
     35 C           3.4445  -18.7416  -43.9196 C.2       7 UNK         0.5000 
     36 O           3.5604  -19.6678  -44.7204 O.2       7 UNK        -0.5000 
     37 CA          4.2024  -17.4284  -44.1828 C.3       7 UNK         0.1400 
     38 CB          3.5128  -16.6344  -45.3039 C.3       7 UNK        -0.1800 
     39 N           4.3029  -16.5825  -42.9938 N.am      7 UNK        -0.5000 
     40 C           5.2253  -16.7303  -42.0326 C.2       6 UNK         0.5000 
     41 O           6.1110  -17.5851  -42.0615 O.2       6 UNK        -0.5000 
     42 CA          5.1441  -15.7643  -40.8340 C.3       6 UNK         0.1400 
     43 CB          6.1006  -14.5791  -41.0355 C.3       6 UNK        -0.1800 
     44 N           3.7933  -15.2490  -40.5999 N.am      6 UNK        -0.5000 
     45 C           2.7666  -15.9780  -40.1401 C.2       5 UNK         0.5000 
     46 O           2.8574  -17.1661  -39.8344 O.2       5 UNK        -0.5000 
     47 CA          1.4028  -15.2680  -40.0478 C.3       5 UNK         0.1400 
     48 CB          1.2203  -14.6261  -38.6644 C.3       5 UNK        -0.1800 
     49 N           1.2270  -14.2459  -41.0843 N.am      5 UNK        -0.5000 
     50 C           1.0781  -14.5169  -42.3865 C.2       4 UNK         0.5000 
     51 O           1.0558  -15.6595  -42.8513 O.2       4 UNK        -0.5000 
     52 CA          0.9824  -13.3158  -43.3329 C.3       4 UNK         0.1400 
     53 CB          2.3679  -12.9575  -43.9003 C.3       4 UNK        -0.1800 
     54 N           0.0640  -13.6625  -44.4085 N.am      4 UNK        -0.5000 
     55 C          -0.5797  -12.7979  -45.2010 C.2       3 UNK         0.5000 
     56 O          -0.4054  -11.5789  -45.1732 O.2       3 UNK        -0.5000 
     57 CA         -1.6200  -13.3963  -46.1671 C.3       3 UNK         0.1400 
     58 CB         -0.9552  -13.8127  -47.4887 C.3       3 UNK        -0.1800 
     59 N          -2.3106  -14.5538  -45.5976 N.am      3 UNK        -0.5000 
     60 C          -3.1636  -14.5173  -44.5683 C.2       2 UNK         0.5000 
     61 O          -3.5394  -13.4775  -44.0244 O.2       2 UNK        -0.5000 
     62 CA         -3.7128  -15.8755  -44.1125 C.3       2 UNK         0.1400 
     63 CB         -4.3198  -15.8363  -42.6962 C.3       2 UNK        -0.1800 
     64 N          -4.7172  -16.3031  -45.0781 N.am      2 UNK        -0.5000 
     65 C          -5.1082  -17.5613  -45.3012 C.2       1 UNK         0.5000 
     66 O          -4.6174  -18.5299  -44.7210 O.2       1 UNK        -0.5000 
     67 C          -2.3110  -23.0437  -46.8539 C.2       11 UNK         0.5000 
     68 O          -2.7021  -21.8805  -46.9522 O.2       11 UNK        -0.5000 
     69 N          -1.6615  -23.6921  -47.8320 N.am      12 UNK        -0.5000 
     70 CA         -1.3288  -23.0950  -49.1259 C.3       12 UNK         0.1400 
     71 CB         -0.8522  -24.1935  -50.0873 C.3       12 UNK        -0.1800 
     72 C          -0.2678  -21.9864  -49.0132 C.2       12 UNK         0.5000 
     73 O          -0.3328  -21.0057  -49.7528 O.2       12 UNK        -0.5000 
     74 N           0.6786  -22.1490  -48.0788 N.am      13 UNK        -0.5000 
     75 CA          1.7220  -21.1666  -47.7904 C.3       13 UNK         0.1400 
     76 CB          2.8404  -21.8264  -46.9714 C.3       13 UNK        -0.1800 
     77 C           1.1483  -19.9220  -47.0887 C.2       13 UNK         0.5000 
     78 O           1.4941  -18.8046  -47.4706 O.2       13 UNK        -0.5000 
     79 N           0.2209  -20.1335  -46.1406 N.am      14 UNK        -0.5000 
     80 CA         -0.5600  -19.0912  -45.4690 C.3       14 UNK         0.1400 
     81 CB         -1.4795  -19.7242  -44.4104 C.3       14 UNK        -0.1800 
     82 C          -1.3975  -18.2681  -46.4607 C.2       14 UNK         0.5000 
     83 O          -1.4426  -17.0451  -46.3524 O.2       14 UNK        -0.5000 
     84 N          -2.0019  -18.9505  -47.4406 N.am      15 UNK        -0.5000 
     85 CA         -2.7515  -18.3496  -48.5416 C.3       15 UNK         0.1400 
     86 CB         -3.5948  -19.4473  -49.2072 C.3       15 UNK        -0.1800 
     87 C          -1.8728  -17.6482  -49.5979 C.2       15 UNK         0.5000 
     88 O          -2.4286  -17.0313  -50.5066 O.2       15 UNK        -0.5000 
     89 N          -0.5398  -17.7884  -49.5093 N.am      16 UNK        -0.5000 
     90 CA          0.4652  -17.3316  -50.4780 C.3       16 UNK         0.1400 
     91 CB          0.5661  -15.7926  -50.4761 C.3       16 UNK        -0.1800 
     92 C           0.2236  -17.9278  -51.8819 C.2       16 UNK         0.5000 
     93 O           0.2463  -17.2095  -52.8830 O.2       16 UNK        -0.5000 
     94 N          -0.0818  -19.2337  -51.9018 N.am      17 UNK        -0.5000 
     95 CA         -0.5071  -20.0588  -53.0368 C.3       17 UNK         0.1400 
     96 CB          0.5833  -20.1179  -54.1257 C.3       17 UNK        -0.1800 
     97 C          -1.8823  -19.6752  -53.6220 C.2       17 UNK         0.5000 
     98 O          -2.2600  -20.2288  -54.6564 O.2       17 UNK        -0.5000 
     99 N          -2.6055  -18.7520  -52.9631 N.am      18 UNK        -0.5000 
    100 CA        -3.8650  -18.1365  -53.3920 C.3       18 UNK         0.1400 
    101 CB        -5.0240  -19.1425  -53.2693 C.3       18 UNK        -0.1800 
    102 C         -3.7229  -17.5108  -54.7936 C.2       18 UNK         0.5000 
    103 O         -4.5017  -17.8150  -55.7010 O.2       18 UNK        -0.5000 
    104 N         -2.6413  -16.7319  -54.9566 N.am      19 UNK        -0.5000 
    105 CA        -2.0422  -16.2389  -56.2025 C.3       19 UNK         0.1400 
    106 CB        -3.0132  -15.3543  -57.0098 C.3       19 UNK        -0.1800 
    107 C         -1.4538  -17.3851  -57.0482 C.2       19 UNK         0.5000 
    108 O         -0.2457  -17.4116  -57.2852 O.2       19 UNK        -0.5000 
    109 N         -2.3150  -18.3256  -57.4447 N.am      20 UNK        -0.5000 
    110 CA        -1.9726  -19.5843  -58.1007 C.3       20 UNK         0.1400 
    111 CB        -1.7268  -19.3388  -59.6018 C.3       20 UNK        -0.1800 
    112 C         -3.0425  -20.6742  -57.8838 C.2       20 UNK         0.5000 
    113 O         -2.8432  -21.7970  -58.3520 O.2       20 UNK        -0.5000 
    114 N         -4.1604  -20.3601  -57.2060 N.am      21 UNK        -0.5000 
    115 CA        -5.3156  -21.2518  -57.0686 C.3       21 UNK         0.1400 
    116 CB        -6.5303  -20.4547  -56.5699 C.3       21 UNK        -0.1800 
    117 C         -5.0689  -22.5075  -56.2078 C.2       21 UNK         0.5000 
    118 O         -5.8175  -23.4754  -56.3545 O.2       21 UNK        -0.5000 
    119 N         -4.0233  -22.5070  -55.3677 N.am      22 UNK        -0.5000 
    120 CA        -3.5342  -23.7206  -54.6873 C.3       22 UNK         0.1400 
    121 C         -2.7525  -24.6976  -55.6189 C.2       22 UNK         0.5000 
    122 N         -2.4104  -24.3356  -56.8509 N.am      22 UNK        -0.7600 
    123 O         -2.4555  -25.8189  -55.2157 O.2       22 UNK        -0.5000 
    124 C124       -2.7042  -23.4134  -53.4140 C.3       23 UNK        -0.0398 
    125 S125       -3.5957  -22.4310  -52.1629 S.3       23 UNK        -0.2404 
    126 C126       -4.5334  -23.7281  -51.2875 C.3       23 UNK        -0.0205 
    127 H127       -9.2610  -14.4480  -46.8079 H         1 UNK         0.0600 
    128 H128       -8.5777  -14.0546  -45.2265 H         1 UNK         0.0600 
    129 H129       -9.4996  -15.5452  -45.4450 H         1 UNK         0.0600 
    130 H130       -8.1791  -17.3331  -45.5395 H         1 UNK         0.3000 
    131 H131       -5.8754  -17.4773  -47.2902 H         1 UNK         0.0600 
    132 H132       -6.9854  -19.6251  -45.4258 H         1 UNK         0.0800 
    133 H133       -5.8591  -19.8667  -46.7300 H         1 UNK         0.0800 
    134 H134       -8.0749  -20.1772  -49.8317 H         1 UNK         0.0800 
    135 H135       -6.5795  -19.4110  -49.3661 H         1 UNK         0.0800 
    136 H136       -5.8797  -21.3507  -50.9503 H         1 UNK         0.1150 
    137 H137       -4.9148  -24.9976  -48.9142 H         1 UNK         0.1150 
    138 H138       -7.3370  -22.0596  -46.9807 H         1 UNK         0.1150 
    139 H139       -7.3483  -24.4882  -46.2924 H         1 UNK         0.0800 
    140 H140       -6.0895  -25.5499  -46.8545 H         1 UNK         0.0800 
    141 H141       -3.7284  -25.3197  -46.5216 H         1 UNK         0.0800 
    142 H142       -3.5649  -25.5599  -44.8101 H         1 UNK         0.0800 
    143 H143       -2.6783  -23.0623  -44.7514 H         1 UNK         0.0600 
    144 H144       -1.3077  -25.4998  -44.9985 H         1 UNK         0.3000 
    145 H145        0.7423  -25.4382  -43.5969 H         1 UNK         0.0600 
    146 H146        2.4909  -26.1964  -45.2565 H         1 UNK         0.0600 
    147 H147        0.8964  -26.2467  -45.9855 H         1 UNK         0.0600 
    148 H148        1.9959  -24.9274  -46.3728 H         1 UNK         0.0600 
    149 H149        1.9639  -22.9106  -44.1114 H         1 UNK         0.3000 
    150 H150        4.2743  -23.1428  -41.5510 H         1 UNK         0.0600 
    151 H151        5.8584  -23.9772  -43.2937 H         1 UNK         0.0600 
    152 H152        6.0122  -22.2389  -43.0892 H         1 UNK         0.0600 
    153 H153        5.1484  -22.8898  -44.4822 H         1 UNK         0.0600 
    154 H154        3.6259  -21.1796  -43.6242 H         1 UNK         0.3000 
    155 H155        1.2477  -20.1823  -43.4095 H         1 UNK         0.0600 
    156 H156        1.1288  -19.0941  -40.5525 H         1 UNK         0.0600 
    157 H157       -0.0762  -20.1165  -41.3235 H         1 UNK         0.0600 
    158 H158        0.1920  -18.4856  -41.9171 H         1 UNK         0.0600 
    159 H159        2.6764  -18.0226  -42.1922 H         1 UNK         0.3000 
    160 H160        5.2068  -17.6900  -44.5226 H         1 UNK         0.0600 
    161 H161        2.4889  -16.3666  -45.0411 H         1 UNK         0.0600 
    162 H162        3.4683  -17.2191  -46.2237 H         1 UNK         0.0600 
    163 H163        4.0555  -15.7169  -45.5309 H         1 UNK         0.0600 
    164 H164        3.5902  -15.8767  -42.8807 H         1 UNK         0.3000 
    165 H165        5.4607  -16.3136  -39.9448 H         1 UNK         0.0600 
    166 H166        6.1067  -13.9241  -40.1641 H         1 UNK         0.0600 
    167 H167        7.1241  -14.9245  -41.1874 H         1 UNK         0.0600 
    168 H168        5.8237  -13.9809  -41.9046 H         1 UNK         0.0600 
    169 H169        3.6336  -14.2766  -40.8174 H         1 UNK         0.3000 
    170 H170        0.6265  -16.0256  -40.1779 H         1 UNK         0.0600 
    171 H171        1.3244  -15.3694  -37.8727 H         1 UNK         0.0600 
    172 H172        1.9591  -13.8450  -38.4805 H         1 UNK         0.0600 
    173 H173        0.2296  -14.1825  -38.5632 H         1 UNK         0.0600 
    174 H174        1.2342  -13.2839  -40.7759 H         1 UNK         0.3000 
    175 H175        0.5799  -12.4634  -42.7815 H         1 UNK         0.0600 
    176 H176        2.7836  -13.7748  -44.4899 H         1 UNK         0.0600 
    177 H177        2.3186  -12.0773  -44.5413 H         1 UNK         0.0600 
    178 H178        3.0749  -12.7344  -43.1005 H         1 UNK         0.0600 
    179 H179       -0.1395  -14.6515  -44.4818 H         1 UNK         0.3000 
    180 H180       -2.3635  -12.6260  -46.3817 H         1 UNK         0.0600 
    181 H181       -0.2099  -14.5939  -47.3326 H         1 UNK         0.0600 
    182 H182       -0.4526  -12.9666  -47.9587 H         1 UNK         0.0600 
    183 H183       -1.6900  -14.1919  -48.1994 H         1 UNK         0.0600 
    184 H184       -2.0458  -15.4653  -45.9738 H         1 UNK         0.3000 
    185 H185       -2.8831  -16.5848  -44.1082 H         1 UNK         0.0600 
    186 H186       -3.5934  -15.4671  -41.9712 H         1 UNK         0.0600 
    187 H187       -5.1940  -15.1858  -42.6504 H         1 UNK         0.0600 
    188 H188       -4.6259  -16.8302  -42.3696 H         1 UNK         0.0600 
    189 H189       -5.1656  -15.5647  -45.6140 H         1 UNK         0.3000 
    190 H190       -1.3540  -24.6399  -47.6718 H         1 UNK         0.3000 
    191 H191       -2.2359  -22.6452  -49.5332 H         1 UNK         0.0600 
    192 H192        0.0571  -24.6773  -49.7286 H         1 UNK         0.0600 
    193 H193       -0.6365  -23.7792  -51.0730 H         1 UNK         0.0600 
    194 H194       -1.6115  -24.9641  -50.2173 H         1 UNK         0.0600 
    195 H195        0.6372  -22.9613  -47.4834 H         1 UNK         0.3000 
    196 H196        2.1529  -20.8452  -48.7413 H         1 UNK         0.0600 
    197 H197        3.7006  -21.1613  -46.8930 H         1 UNK         0.0600 
    198 H198        3.1884  -22.7470  -47.4397 H         1 UNK         0.0600 
    199 H199        2.5174  -22.0631  -45.9592 H         1 UNK         0.0600 
    200 H200        0.0248  -21.0915  -45.8600 H         1 UNK         0.3000 
    201 H201        0.1416  -18.4195  -44.9695 H         1 UNK         0.0600 
    202 H202       -1.9339  -18.9551  -43.7852 H         1 UNK         0.0600 
    203 H203       -0.9472  -20.4064  -43.7513 H         1 UNK         0.0600 
    204 H204       -2.2925  -20.2894  -44.8664 H         1 UNK         0.0600 
    205 H205       -1.9625  -19.9642  -47.4190 H         1 UNK         0.3000 
    206 H206       -3.4262  -17.5982  -48.1273 H         1 UNK         0.0600 
    207 H207       -4.2205  -19.9609  -48.4786 H         1 UNK         0.0600 
    208 H208       -4.2520  -19.0296  -49.9698 H         1 UNK         0.0600 
    209 H209       -2.9708  -20.1984  -49.6924 H         1 UNK         0.0600 
    210 H210       -0.1687  -18.3099  -48.7242 H         1 UNK         0.3000 
    211 H211        1.4238  -17.7263  -50.1385 H         1 UNK         0.0600 
    212 H212       -0.3558  -15.3225  -50.8195 H         1 UNK         0.0600 
    213 H213        1.3699  -15.4531  -51.1301 H         1 UNK         0.0600 
    214 H214        0.7827  -15.4166  -49.4767 H         1 UNK         0.0600 
    215 H215       -0.1109  -19.7269  -51.0094 H         1 UNK         0.3000 
    216 H216       -0.6240  -21.0648  -52.6330 H         1 UNK         0.0600 
    217 H217        1.5507  -20.3878  -53.7027 H         1 UNK         0.0600 
    218 H218        0.6938  -19.1637  -54.6419 H         1 UNK         0.0600 
    219 H219        0.3402  -20.8664  -54.8809 H         1 UNK         0.0600 
    220 H220       -2.2082  -18.3505  -52.1223 H         1 UNK         0.3000 
    221 H221       -4.0687  -17.3128  -52.7068 H         1 UNK         0.0600 
    222 H222       -4.8533  -20.0312  -53.8757 H         1 UNK         0.0600 
    223 H223       -5.1457  -19.4688  -52.2374 H         1 UNK         0.0600 
    224 H224       -5.9687  -18.6964  -53.5812 H         1 UNK         0.0600 
    225 H225       -2.0494  -16.6142  -54.1445 H         1 UNK         0.3000 
    226 H226       -1.2052  -15.6082  -55.8985 H         1 UNK         0.0600 
    227 H227       -3.3858  -14.5280  -56.4046 H         1 UNK         0.0600 
    228 H228       -2.5101  -14.9221  -57.8754 H         1 UNK         0.0600 
    229 H229       -3.8738  -15.9099  -57.3819 H         1 UNK         0.0600 
    230 H230       -3.2786  -18.2059  -57.1546 H         1 UNK         0.3000 
    231 H231       -1.0538  -19.9676  -57.6518 H         1 UNK         0.0600 
    232 H232       -0.9085  -18.6368  -59.7622 H         1 UNK         0.0600 
    233 H233       -2.6148  -18.9355  -60.0896 H         1 UNK         0.0600 
    234 H234       -1.4601  -20.2636  -60.1148 H         1 UNK         0.0600 
    235 H235       -4.2492  -19.4618  -56.7467 H         1 UNK         0.3000 
    236 H236       -5.5598  -21.6124  -58.0702 H         1 UNK         0.0600 
    237 H237       -7.4183  -21.0861  -56.5199 H         1 UNK         0.0600 
    238 H238       -6.3681  -20.0431  -55.5767 H         1 UNK         0.0600 
    239 H239       -6.7594  -19.6260  -57.2400 H         1 UNK         0.0600 
    240 H240       -3.4540  -21.6705  -55.2714 H         1 UNK         0.3000 
    241 H241       -4.4098  -24.2820  -54.3567 H         1 UNK         0.0600 
    242 H242       -1.9105  -24.9891  -57.4325 H         1 UNK         0.3800 
    243 H243       -2.6471  -23.4218  -57.2234 H         1 UNK         0.3800 
    244 H244       -2.3677  -24.3371  -52.9401 H         1 UNK         0.0800 
    245 H245       -1.7976  -22.8734  -53.6876 H         1 UNK         0.0800 
    246 H246       -3.8450  -24.5209  -50.9939 H         1 UNK         0.0800 
    247 H247       -5.2493  -24.1753  -51.9778 H         1 UNK         0.0800 
@<TRIPOS>BOND
     1    1    2 1    
     2    1  127 1    
     3    1  128 1    
     4    1  129 1    
     5    2    3 2    
     6    2    4 am   BACKBONE|DICT|INTERRES
     7    4    5 1    
     8    4  130 1    
     9    5    6 1    
    10    5   65 1    
    11    5  131 1    
    12    6    7 1    
    13    6  132 1    
    14    6  133 1    
    15    7    8 1    
    16    8    9 1    
    17    8  134 1    
    18    8  135 1    
    19    9   10 ar   
    20    9   14 ar   
    21   10   11 ar   
    22   10  136 1    
    23   11   12 ar   
    24   11  126 1    
    25   12   13 ar   
    26   12  137 1    
    27   13   14 ar   
    28   13   15 1    
    29   14  138 1    
    30   15   16 1    
    31   15  139 1    
    32   15  140 1    
    33   16   17 1    
    34   17   18 1    
    35   17  141 1    
    36   17  142 1    
    37   18   19 1    
    38   18   67 1    
    39   18  143 1    
    40   19   20 am   BACKBONE|DICT|INTERRES
    41   19  144 1    
    42   20   21 2    
    43   20   22 1    
    44   22   23 1    
    45   22   24 1    
    46   22  145 1    
    47   23  146 1    
    48   23  147 1    
    49   23  148 1    
    50   24   25 am   BACKBONE|DICT|INTERRES
    51   24  149 1    
    52   25   26 2    
    53   25   27 1    
    54   27   28 1    
    55   27   29 1    
    56   27  150 1    
    57   28  151 1    
    58   28  152 1    
    59   28  153 1    
    60   29   30 am   BACKBONE|DICT|INTERRES
    61   29  154 1    
    62   30   31 2    
    63   30   32 1    
    64   32   33 1    
    65   32   34 1    
    66   32  155 1    
    67   33  156 1    
    68   33  157 1    
    69   33  158 1    
    70   34   35 am   BACKBONE|DICT|INTERRES
    71   34  159 1    
    72   35   36 2    
    73   35   37 1    
    74   37   38 1    
    75   37   39 1    
    76   37  160 1    
    77   38  161 1    
    78   38  162 1    
    79   38  163 1    
    80   39   40 am   BACKBONE|DICT|INTERRES
    81   39  164 1    
    82   40   41 2    
    83   40   42 1    
    84   42   43 1    
    85   42   44 1    
    86   42  165 1    
    87   43  166 1    
    88   43  167 1    
    89   43  168 1    
    90   44   45 am   BACKBONE|DICT|INTERRES
    91   44  169 1    
    92   45   46 2    
    93   45   47 1    
    94   47   48 1    
    95   47   49 1    
    96   47  170 1    
    97   48  171 1    
    98   48  172 1    
    99   48  173 1    
   100   49   50 am   BACKBONE|DICT|INTERRES
   101   49  174 1    
   102   50   51 2    
   103   50   52 1    
   104   52   53 1    
   105   52   54 1    
   106   52  175 1    
   107   53  176 1    
   108   53  177 1    
   109   53  178 1    
   110   54   55 am   BACKBONE|DICT|INTERRES
   111   54  179 1    
   112   55   56 2    
   113   55   57 1    
   114   57   58 1    
   115   57   59 1    
   116   57  180 1    
   117   58  181 1    
   118   58  182 1    
   119   58  183 1    
   120   59   60 am   BACKBONE|DICT|INTERRES
   121   59  184 1    
   122   60   61 2    
   123   60   62 1    
   124   62   63 1    
   125   62   64 1    
   126   62  185 1    
   127   63  186 1    
   128   63  187 1    
   129   63  188 1    
   130   64   65 am   BACKBONE|DICT|INTERRES
   131   64  189 1    
   132   65   66 2    
   133   67   68 2    
   134   67   69 am   BACKBONE|DICT|INTERRES
   135   69   70 1    
   136   69  190 1    
   137   70   71 1    
   138   70   72 1    
   139   70  191 1    
   140   71  192 1    
   141   71  193 1    
   142   71  194 1    
   143   72   73 2    
   144   72   74 am   BACKBONE|DICT|INTERRES
   145   74   75 1    
   146   74  195 1    
   147   75   76 1    
   148   75   77 1    
   149   75  196 1    
   150   76  197 1    
   151   76  198 1    
   152   76  199 1    
   153   77   78 2    
   154   77   79 am   BACKBONE|DICT|INTERRES
   155   79   80 1    
   156   79  200 1    
   157   80   81 1    
   158   80   82 1    
   159   80  201 1    
   160   81  202 1    
   161   81  203 1    
   162   81  204 1    
   163   82   83 2    
   164   82   84 am   BACKBONE|DICT|INTERRES
   165   84   85 1    
   166   84  205 1    
   167   85   86 1    
   168   85   87 1    
   169   85  206 1    
   170   86  207 1    
   171   86  208 1    
   172   86  209 1    
   173   87   88 2    
   174   87   89 am   BACKBONE|DICT|INTERRES
   175   89   90 1    
   176   89  210 1    
   177   90   91 1    
   178   90   92 1    
   179   90  211 1    
   180   91  212 1    
   181   91  213 1    
   182   91  214 1    
   183   92   93 2    
   184   92   94 am   BACKBONE|DICT|INTERRES
   185   94   95 1    
   186   94  215 1    
   187   95   96 1    
   188   95   97 1    
   189   95  216 1    
   190   96  217 1    
   191   96  218 1    
   192   96  219 1    
   193   97   98 2    
   194   97   99 am   BACKBONE|DICT|INTERRES
   195   99  100 1    
   196   99  220 1    
   197  100  101 1    
   198  100  102 1    
   199  100  221 1    
   200  101  222 1    
   201  101  223 1    
   202  101  224 1    
   203  102  103 2    
   204  102  104 am   BACKBONE|DICT|INTERRES
   205  104  105 1    
   206  104  225 1    
   207  105  106 1    
   208  105  107 1    
   209  105  226 1    
   210  106  227 1    
   211  106  228 1    
   212  106  229 1    
   213  107  108 2    
   214  107  109 am   BACKBONE|DICT|INTERRES
   215  109  110 1    
   216  109  230 1    
   217  110  111 1    
   218  110  112 1    
   219  110  231 1    
   220  111  232 1    
   221  111  233 1    
   222  111  234 1    
   223  112  113 2    
   224  112  114 am   BACKBONE|DICT|INTERRES
   225  114  115 1    
   226  114  235 1    
   227  115  116 1    
   228  115  117 1    
   229  115  236 1    
   230  116  237 1    
   231  116  238 1    
   232  116  239 1    
   233  117  118 2    
   234  117  119 am   BACKBONE|DICT|INTERRES
   235  119  120 1    
   236  119  240 1    
   237  120  121 1    
   238  120  124 1    
   239  120  241 1    
   240  121  122 am   BACKBONE|DICT|INTERRES
   241  121  123 2    
   242  122  242 1    
   243  122  243 1    
   244  124  125 1    
   245  124  244 1    
   246  124  245 1    
   247  125  126 1    
   248  126  246 1    
   249  126  247 1    
@<TRIPOS>SUBSTRUCTURE
     1 UNK         1 GROUP             0       ****    0 ROOT    
