@<TRIPOS>MOLECULE
3R540
247   249    1
SMALL
USER_CHARGES


@<TRIPOS>ATOM
      1 CA          2.2567  -11.9090  -50.9399 C.3       0 UNK        -0.1800 
      2 C           1.8227  -13.0822  -50.0742 C.2       0 UNK         0.5000 
      3 O           1.2108  -12.8793  -49.0261 O.2       0 UNK        -0.5000 
      4 N           2.1196  -14.3106  -50.5138 N.am      1 UNK        -0.5000 
      5 CA          1.8165  -15.5841  -49.8456 C.3       1 UNK         0.1400 
      6 C6          2.8083  -16.7022  -50.2637 C.3       23 UNK        -0.0398 
      7 S7          3.0194  -16.8734  -52.0709 S.3       23 UNK        -0.2404 
      8 C8          4.5134  -17.9074  -52.1435 C.3       23 UNK        -0.0205 
      9 C9          4.1951  -19.3545  -51.8088 C.ar      23 UNK        -0.0193 
     10 C10         3.6828  -20.1964  -52.7978 C.ar      23 UNK        -0.1150 
     11 C11         3.3665  -21.5240  -52.5032 C.ar      23 UNK        -0.0193 
     12 C12         3.5697  -22.0100  -51.2076 C.ar      23 UNK        -0.1150 
     13 C13         4.0815  -21.1775  -50.2079 C.ar      23 UNK        -0.0193 
     14 C14         4.4019  -19.8516  -50.5186 C.ar      23 UNK        -0.1150 
     15 C15         4.3148  -21.7215  -48.8039 C.3       23 UNK        -0.0205 
     16 S16         3.4238  -20.7874  -47.5179 S.3       23 UNK        -0.2404 
     17 C17         1.6873  -21.2674  -47.8102 C.3       23 UNK        -0.0398 
     18 CA          1.1932  -22.4284  -46.9075 C.3       11 UNK         0.1400 
     19 N           1.5599  -22.2617  -45.4958 N.am      11 UNK        -0.5000 
     20 C           1.4593  -23.2055  -44.5498 C.2       10 UNK         0.5000 
     21 O           1.0782  -24.3526  -44.7858 O.2       10 UNK        -0.5000 
     22 CA          1.7548  -22.7838  -43.0952 C.3       10 UNK         0.1400 
     23 CB          2.5039  -23.8722  -42.2994 C.3       10 UNK        -0.1800 
     24 N           2.4002  -21.4707  -42.9712 N.am      10 UNK        -0.5000 
     25 C           3.6601  -21.1257  -43.2750 C.2       9 UNK         0.5000 
     26 O           4.5042  -21.9114  -43.7054 O.2       9 UNK        -0.5000 
     27 CA          4.0442  -19.6431  -43.0798 C.3       9 UNK         0.1400 
     28 CB          4.2420  -18.9493  -44.4360 C.3       9 UNK        -0.1800 
     29 N           3.0665  -18.8749  -42.3045 N.am      9 UNK        -0.5000 
     30 C           2.9093  -18.9474  -40.9755 C.2       8 UNK         0.5000 
     31 O           3.5777  -19.6794  -40.2452 O.2       8 UNK        -0.5000 
     32 CA          1.8042  -18.0678  -40.3676 C.3       8 UNK         0.1400 
     33 CB          2.2926  -16.6216  -40.1898 C.3       8 UNK        -0.1800 
     34 N           0.5990  -18.0751  -41.1971 N.am      8 UNK        -0.5000 
     35 C          -0.3634  -19.0056  -41.1279 C.2       7 UNK         0.5000 
     36 O          -0.3495  -19.9450  -40.3323 O.2       7 UNK        -0.5000 
     37 CA         -1.5329  -18.8764  -42.1237 C.3       7 UNK         0.1400 
     38 CB         -2.6582  -18.0201  -41.5257 C.3       7 UNK        -0.1800 
     39 N          -1.1212  -18.3116  -43.4099 N.am      7 UNK        -0.5000 
     40 C          -0.3479  -18.9609  -44.2903 C.2       6 UNK         0.5000 
     41 O           0.0067  -20.1300  -44.1480 O.2       6 UNK        -0.5000 
     42 CA          0.1258  -18.1943  -45.5350 C.3       6 UNK         0.1400 
     43 CB         -0.8120  -18.4774  -46.7102 C.3       6 UNK        -0.1800 
     44 N           0.2320  -16.7477  -45.3527 N.am      6 UNK        -0.5000 
     45 C           1.0519  -16.1254  -44.4959 C.2       5 UNK         0.5000 
     46 O           1.7678  -16.7181  -43.6887 O.2       5 UNK        -0.5000 
     47 CA          1.0561  -14.5900  -44.5361 C.3       5 UNK         0.1400 
     48 CB          1.9404  -14.0916  -45.6886 C.3       5 UNK        -0.1800 
     49 N          -0.2992  -14.0705  -44.7145 N.am      5 UNK        -0.5000 
     50 C          -1.0406  -13.5187  -43.7461 C.2       4 UNK         0.5000 
     51 O          -0.6341  -13.3188  -42.6008 O.2       4 UNK        -0.5000 
     52 CA         -2.4902  -13.1307  -44.1072 C.3       4 UNK         0.1400 
     53 CB         -2.5511  -11.6696  -44.5780 C.3       4 UNK        -0.1800 
     54 N          -3.1119  -13.9833  -45.1247 N.am      4 UNK        -0.5000 
     55 C          -3.3133  -15.3026  -45.0058 C.2       3 UNK         0.5000 
     56 O          -2.9742  -15.9630  -44.0240 O.2       3 UNK        -0.5000 
     57 CA         -3.9694  -16.0197  -46.2016 C.3       3 UNK         0.1400 
     58 CB         -5.4944  -15.8422  -46.1475 C.3       3 UNK        -0.1800 
     59 N          -3.4868  -15.6620  -47.5470 N.am      3 UNK        -0.5000 
     60 C          -2.2322  -15.3898  -47.9366 C.2       2 UNK         0.5000 
     61 O          -1.2834  -15.2538  -47.1592 O.2       2 UNK        -0.5000 
     62 CA         -1.9964  -15.2538  -49.4534 C.3       2 UNK         0.1400 
     63 CB         -2.7711  -14.0610  -50.0355 C.3       2 UNK        -0.1800 
     64 N          -0.5723  -15.0443  -49.7039 N.am      2 UNK        -0.5000 
     65 C           0.3283  -15.9981  -49.9596 C.2       1 UNK         0.5000 
     66 O           0.0253  -17.1539  -50.2570 O.2       1 UNK        -0.5000 
     67 C          -0.3292  -22.6399  -47.0764 C.2       11 UNK         0.5000 
     68 O          -0.7533  -23.2827  -48.0359 O.2       11 UNK        -0.5000 
     69 N          -1.1299  -22.1563  -46.1140 N.am      12 UNK        -0.5000 
     70 CA         -2.5840  -22.3350  -46.0544 C.3       12 UNK         0.1400 
     71 CB         -3.1474  -21.4457  -44.9348 C.3       12 UNK        -0.1800 
     72 C          -3.0441  -23.8003  -45.8872 C.2       12 UNK         0.5000 
     73 O          -4.2233  -24.0871  -46.0928 O.2       12 UNK        -0.5000 
     74 N          -2.1210  -24.7058  -45.5336 N.am      13 UNK        -0.5000 
     75 CA         -2.3501  -26.1497  -45.5316 C.3       13 UNK         0.1400 
     76 CB         -1.3864  -26.8033  -44.5290 C.3       13 UNK        -0.1800 
     77 C          -2.1772  -26.7797  -46.9299 C.2       13 UNK         0.5000 
     78 O          -2.6867  -27.8786  -47.1532 O.2       13 UNK        -0.5000 
     79 N          -1.4516  -26.1057  -47.8354 N.am      14 UNK        -0.5000 
     80 CA         -1.1126  -26.6138  -49.1657 C.3       14 UNK         0.1400 
     81 CB          0.2718  -26.0842  -49.5758 C.3       14 UNK        -0.1800 
     82 C          -2.1620  -26.2501  -50.2298 C.2       14 UNK         0.5000 
     83 O          -2.3474  -27.0224  -51.1717 O.2       14 UNK        -0.5000 
     84 N          -2.8294  -25.1001  -50.0753 N.am      15 UNK        -0.5000 
     85 CA         -3.8530  -24.5982  -50.9897 C.3       15 UNK         0.1400 
     86 CB         -3.1982  -23.9659  -52.2340 C.3       15 UNK        -0.1800 
     87 C          -4.7498  -23.5865  -50.2626 C.2       15 UNK         0.5000 
     88 O          -4.4153  -23.1415  -49.1616 O.2       15 UNK        -0.5000 
     89 N          -5.8765  -23.2414  -50.8996 N.am      16 UNK        -0.5000 
     90 CA         -6.8715  -22.2790  -50.4258 C.3       16 UNK         0.1400 
     91 CB         -8.1703  -22.4727  -51.2292 C.3       16 UNK        -0.1800 
     92 C          -6.3493  -20.8310  -50.5095 C.2       16 UNK         0.5000 
     93 O          -6.7113  -20.0904  -51.4256 O.2       16 UNK        -0.5000 
     94 N          -5.5061  -20.4606  -49.5392 N.am      17 UNK        -0.5000 
     95 CA         -4.7731  -19.1941  -49.4514 C.3       17 UNK         0.1400 
     96 CB         -3.8843  -19.2344  -48.2053 C.3       17 UNK        -0.1800 
     97 C          -5.6334  -17.9120  -49.4408 C.2       17 UNK         0.5000 
     98 O          -5.1046  -16.8224  -49.6688 O.2       17 UNK        -0.5000 
     99 N          -6.9303  -18.0468  -49.1390 N.am      18 UNK        -0.5000 
    100 CA        -7.9063  -16.9598  -49.1794 C.3       18 UNK         0.1400 
    101 CB        -9.0741  -17.3109  -48.2451 C.3       18 UNK        -0.1800 
    102 C         -8.4228  -16.6703  -50.6026 C.2       18 UNK         0.5000 
    103 O         -8.8816  -15.5551  -50.8534 O.2       18 UNK        -0.5000 
    104 N         -8.3647  -17.6646  -51.5010 N.am      19 UNK        -0.5000 
    105 CA        -8.8492  -17.5543  -52.8782 C.3       19 UNK         0.1400 
    106 CB        -9.3206  -18.9346  -53.3630 C.3       19 UNK        -0.1800 
    107 C         -7.7761  -16.9868  -53.8220 C.2       19 UNK         0.5000 
    108 O         -8.1061  -16.2194  -54.7267 O.2       19 UNK        -0.5000 
    109 N         -6.5162  -17.3658  -53.5898 N.am      20 UNK        -0.5000 
    110 CA        -5.3318  -16.9567  -54.3374 C.3       20 UNK         0.1400 
    111 CB        -5.2865  -17.6801  -55.6968 C.3       20 UNK        -0.1800 
    112 C         -4.0968  -17.2962  -53.4922 C.2       20 UNK         0.5000 
    113 O         -4.2179  -18.0428  -52.5228 O.2       20 UNK        -0.5000 
    114 N         -2.9311  -16.7601  -53.8717 N.am      21 UNK        -0.5000 
    115 CA        -1.6456  -17.0485  -53.2283 C.3       21 UNK         0.1400 
    116 CB        -0.5815  -16.1008  -53.8017 C.3       21 UNK        -0.1800 
    117 C         -1.2135  -18.5236  -53.3810 C.2       21 UNK         0.5000 
    118 O         -1.6500  -19.1893  -54.3232 O.2       21 UNK        -0.5000 
    119 N         -0.3473  -18.9739  -52.4652 N.am      22 UNK        -0.5000 
    120 CA         0.0543  -20.3655  -52.1874 C.3       22 UNK         0.1400 
    121 C         -0.7554  -20.9680  -51.0017 C.2       22 UNK         0.5000 
    122 N         -0.4618  -22.1972  -50.6091 N.am      22 UNK        -0.7600 
    123 O         -1.6050  -20.3232  -50.3948 O.2       22 UNK        -0.5000 
    124 C124        0.1818  -21.2806  -53.4508 C.3       23 UNK        -0.0398 
    125 S125        1.0640  -22.8712  -53.2337 S.3       23 UNK        -0.2404 
    126 C126        2.7919  -22.4272  -53.5815 C.3       23 UNK        -0.0205 
    127 H127        1.3871  -11.3287  -51.2478 H         1 UNK         0.0600 
    128 H128        2.7811  -12.2393  -51.8369 H         1 UNK         0.0600 
    129 H129        2.9229  -11.2550  -50.3777 H         1 UNK         0.0600 
    130 H130        2.5932  -14.4120  -51.4008 H         1 UNK         0.3000 
    131 H131        1.9759  -15.4306  -48.7769 H         1 UNK         0.0600 
    132 H132        3.7854  -16.4758  -49.8351 H         1 UNK         0.0800 
    133 H133        2.5234  -17.6669  -49.8394 H         1 UNK         0.0800 
    134 H134        5.2781  -17.5118  -51.4734 H         1 UNK         0.0800 
    135 H135        4.9325  -17.8497  -53.1492 H         1 UNK         0.0800 
    136 H136        3.5170  -19.8104  -53.7939 H         1 UNK         0.1150 
    137 H137        3.3222  -23.0376  -50.9806 H         1 UNK         0.1150 
    138 H138        4.8016  -19.2047  -49.7504 H         1 UNK         0.1150 
    139 H139        4.0337  -22.7736  -48.7373 H         1 UNK         0.0800 
    140 H140        5.3830  -21.6763  -48.5884 H         1 UNK         0.0800 
    141 H141        1.5649  -21.5290  -48.8617 H         1 UNK         0.0800 
    142 H142        1.0839  -20.3739  -47.6575 H         1 UNK         0.0800 
    143 H143        1.6786  -23.3422  -47.2569 H         1 UNK         0.0600 
    144 H144        1.8423  -21.3364  -45.2083 H         1 UNK         0.3000 
    145 H145        0.7764  -22.6633  -42.6278 H         1 UNK         0.0600 
    146 H146        2.6994  -23.5495  -41.2768 H         1 UNK         0.0600 
    147 H147        1.9142  -24.7879  -42.2425 H         1 UNK         0.0600 
    148 H148        3.4572  -24.1311  -42.7602 H         1 UNK         0.0600 
    149 H149        1.7816  -20.7251  -42.6817 H         1 UNK         0.3000 
    150 H150        4.9975  -19.6238  -42.5476 H         1 UNK         0.0600 
    151 H151        4.9929  -19.4647  -45.0361 H         1 UNK         0.0600 
    152 H152        4.5791  -17.9206  -44.3076 H         1 UNK         0.0600 
    153 H153        3.3183  -18.9272  -45.0133 H         1 UNK         0.0600 
    154 H154        2.5146  -18.1936  -42.8205 H         1 UNK         0.3000 
    155 H155        1.5641  -18.4635  -39.3783 H         1 UNK         0.0600 
    156 H156        3.1777  -16.5853  -39.5535 H         1 UNK         0.0600 
    157 H157        1.5281  -16.0037  -39.7184 H         1 UNK         0.0600 
    158 H158        2.5548  -16.1597  -41.1422 H         1 UNK         0.0600 
    159 H159        0.5436  -17.3693  -41.9191 H         1 UNK         0.3000 
    160 H160       -1.9287  -19.8787  -42.3002 H         1 UNK         0.0600 
    161 H161       -2.3381  -16.9896  -41.3658 H         1 UNK         0.0600 
    162 H162       -2.9852  -18.4176  -40.5640 H         1 UNK         0.0600 
    163 H163       -3.5285  -18.0021  -42.1819 H         1 UNK         0.0600 
    164 H164       -1.4392  -17.3720  -43.6211 H         1 UNK         0.3000 
    165 H165        1.1170  -18.5699  -45.7924 H         1 UNK         0.0600 
    166 H166       -0.4389  -18.0397  -47.6358 H         1 UNK         0.0600 
    167 H167       -0.9395  -19.5444  -46.8838 H         1 UNK         0.0600 
    168 H168       -1.7971  -18.0658  -46.5111 H         1 UNK         0.0600 
    169 H169       -0.3260  -16.1790  -45.9863 H         1 UNK         0.3000 
    170 H170        1.4881  -14.2335  -43.5988 H         1 UNK         0.0600 
    171 H171        2.9548  -14.4837  -45.6047 H         1 UNK         0.0600 
    172 H172        1.5458  -14.3973  -46.6578 H         1 UNK         0.0600 
    173 H173        2.0095  -13.0038  -45.6882 H         1 UNK         0.0600 
    174 H174       -0.7319  -14.2404  -45.6179 H         1 UNK         0.3000 
    175 H175       -3.0859  -13.2209  -43.1966 H         1 UNK         0.0600 
    176 H176       -2.1195  -11.0001  -43.8328 H         1 UNK         0.0600 
    177 H177       -2.0002  -11.5246  -45.5082 H         1 UNK         0.0600 
    178 H178       -3.5802  -11.3498  -44.7425 H         1 UNK         0.0600 
    179 H179       -3.3948  -13.5331  -45.9825 H         1 UNK         0.3000 
    180 H180       -3.7698  -17.0825  -46.0672 H         1 UNK         0.0600 
    181 H181       -5.7912  -14.8267  -46.4120 H         1 UNK         0.0600 
    182 H182       -5.8818  -16.0490  -45.1487 H         1 UNK         0.0600 
    183 H183       -5.9958  -16.5275  -46.8284 H         1 UNK         0.0600 
    184 H184       -4.1697  -15.7890  -48.2889 H         1 UNK         0.3000 
    185 H185       -2.3373  -16.1723  -49.9352 H         1 UNK         0.0600 
    186 H186       -3.8477  -14.1941  -49.9228 H         1 UNK         0.0600 
    187 H187       -2.4993  -13.1255  -49.5449 H         1 UNK         0.0600 
    188 H188       -2.5725  -13.9501  -51.1017 H         1 UNK         0.0600 
    189 H189       -0.2015  -14.1470  -49.4055 H         1 UNK         0.3000 
    190 H190       -0.7062  -21.6400  -45.3504 H         1 UNK         0.3000 
    191 H191       -2.9979  -21.9932  -47.0036 H         1 UNK         0.0600 
    192 H192       -2.7203  -21.7041  -43.9652 H         1 UNK         0.0600 
    193 H193       -4.2304  -21.5494  -44.8570 H         1 UNK         0.0600 
    194 H194       -2.9394  -20.3930  -45.1253 H         1 UNK         0.0600 
    195 H195       -1.1726  -24.3994  -45.3588 H         1 UNK         0.3000 
    196 H196       -3.3699  -26.3534  -45.1985 H         1 UNK         0.0600 
    197 H197       -1.5723  -27.8753  -44.4515 H         1 UNK         0.0600 
    198 H198       -1.5056  -26.3798  -43.5316 H         1 UNK         0.0600 
    199 H199       -0.3455  -26.6729  -44.8271 H         1 UNK         0.0600 
    200 H200       -1.1186  -25.1733  -47.6169 H         1 UNK         0.3000 
    201 H201       -1.0465  -27.7033  -49.1262 H         1 UNK         0.0600 
    202 H202        1.0282  -26.3357  -48.8322 H         1 UNK         0.0600 
    203 H203        0.2740  -25.0022  -49.7044 H         1 UNK         0.0600 
    204 H204        0.5886  -26.5220  -50.5231 H         1 UNK         0.0600 
    205 H205       -2.6696  -24.5238  -49.2577 H         1 UNK         0.3000 
    206 H206       -4.4835  -25.4341  -51.3000 H         1 UNK         0.0600 
    207 H207       -2.5126  -24.6561  -52.7254 H         1 UNK         0.0600 
    208 H208       -3.9488  -23.6809  -52.9716 H         1 UNK         0.0600 
    209 H209       -2.6399  -23.0666  -51.9788 H         1 UNK         0.0600 
    210 H210       -6.0530  -23.6371  -51.8114 H         1 UNK         0.3000 
    211 H211       -7.0934  -22.4952  -49.3785 H         1 UNK         0.0600 
    212 H212       -8.9390  -21.7699  -50.9047 H         1 UNK         0.0600 
    213 H213       -8.5719  -23.4770  -51.0934 H         1 UNK         0.0600 
    214 H214       -8.0136  -22.3160  -52.2973 H         1 UNK         0.0600 
    215 H215       -5.2086  -21.1865  -48.8978 H         1 UNK         0.3000 
    216 H216       -4.1152  -19.1470  -50.3176 H         1 UNK         0.0600 
    217 H217       -3.2592  -18.3453  -48.1732 H         1 UNK         0.0600 
    218 H218       -3.2108  -20.0895  -48.2305 H         1 UNK         0.0600 
    219 H219       -4.4662  -19.2796  -47.2841 H         1 UNK         0.0600 
    220 H220       -7.2809  -18.9717  -48.9401 H         1 UNK         0.3000 
    221 H221       -7.4395  -16.0452  -48.8075 H         1 UNK         0.0600 
    222 H222       -9.5828  -18.2226  -48.5607 H         1 UNK         0.0600 
    223 H223       -8.7293  -17.4547  -47.2209 H         1 UNK         0.0600 
    224 H224       -9.8149  -16.5104  -48.2278 H         1 UNK         0.0600 
    225 H225       -7.9073  -18.5367  -51.2539 H         1 UNK         0.3000 
    226 H226       -9.7097  -16.8823  -52.9063 H         1 UNK         0.0600 
    227 H227      -10.0991  -19.3360  -52.7143 H         1 UNK         0.0600 
    228 H228       -9.7355  -18.8720  -54.3697 H         1 UNK         0.0600 
    229 H229       -8.5033  -19.6560  -53.3910 H         1 UNK         0.0600 
    230 H230       -6.3107  -17.9808  -52.8094 H         1 UNK         0.3000 
    231 H231       -5.3605  -15.8765  -54.4899 H         1 UNK         0.0600 
    232 H232       -6.1496  -17.4293  -56.3129 H         1 UNK         0.0600 
    233 H233       -5.2687  -18.7629  -55.5707 H         1 UNK         0.0600 
    234 H234       -4.3969  -17.4018  -56.2624 H         1 UNK         0.0600 
    235 H235       -2.9005  -16.1865  -54.7001 H         1 UNK         0.3000 
    236 H236       -1.7623  -16.8384  -52.1651 H         1 UNK         0.0600 
    237 H237        0.3820  -16.2569  -53.3171 H         1 UNK         0.0600 
    238 H238       -0.4396  -16.2556  -54.8714 H         1 UNK         0.0600 
    239 H239       -0.8550  -15.0579  -53.6429 H         1 UNK         0.0600 
    240 H240       -0.1101  -18.3336  -51.7097 H         1 UNK         0.3000 
    241 H241        1.0551  -20.2456  -51.7767 H         1 UNK         0.0600 
    242 H242       -0.9015  -22.5835  -49.7812 H         1 UNK         0.3800 
    243 H243        0.2065  -22.7466  -51.1286 H         1 UNK         0.3800 
    244 H244       -0.8121  -21.5290  -53.8241 H         1 UNK         0.0800 
    245 H245        0.6759  -20.7316  -54.2532 H         1 UNK         0.0800 
    246 H246        3.3870  -23.3399  -53.6342 H         1 UNK         0.0800 
    247 H247        2.8576  -21.9611  -54.5659 H         1 UNK         0.0800 
@<TRIPOS>BOND
     1    1    2 1    
     2    1  127 1    
     3    1  128 1    
     4    1  129 1    
     5    2    3 2    
     6    2    4 am   BACKBONE|DICT|INTERRES
     7    4    5 1    
     8    4  130 1    
     9    5    6 1    
    10    5   65 1    
    11    5  131 1    
    12    6    7 1    
    13    6  132 1    
    14    6  133 1    
    15    7    8 1    
    16    8    9 1    
    17    8  134 1    
    18    8  135 1    
    19    9   10 ar   
    20    9   14 ar   
    21   10   11 ar   
    22   10  136 1    
    23   11   12 ar   
    24   11  126 1    
    25   12   13 ar   
    26   12  137 1    
    27   13   14 ar   
    28   13   15 1    
    29   14  138 1    
    30   15   16 1    
    31   15  139 1    
    32   15  140 1    
    33   16   17 1    
    34   17   18 1    
    35   17  141 1    
    36   17  142 1    
    37   18   19 1    
    38   18   67 1    
    39   18  143 1    
    40   19   20 am   BACKBONE|DICT|INTERRES
    41   19  144 1    
    42   20   21 2    
    43   20   22 1    
    44   22   23 1    
    45   22   24 1    
    46   22  145 1    
    47   23  146 1    
    48   23  147 1    
    49   23  148 1    
    50   24   25 am   BACKBONE|DICT|INTERRES
    51   24  149 1    
    52   25   26 2    
    53   25   27 1    
    54   27   28 1    
    55   27   29 1    
    56   27  150 1    
    57   28  151 1    
    58   28  152 1    
    59   28  153 1    
    60   29   30 am   BACKBONE|DICT|INTERRES
    61   29  154 1    
    62   30   31 2    
    63   30   32 1    
    64   32   33 1    
    65   32   34 1    
    66   32  155 1    
    67   33  156 1    
    68   33  157 1    
    69   33  158 1    
    70   34   35 am   BACKBONE|DICT|INTERRES
    71   34  159 1    
    72   35   36 2    
    73   35   37 1    
    74   37   38 1    
    75   37   39 1    
    76   37  160 1    
    77   38  161 1    
    78   38  162 1    
    79   38  163 1    
    80   39   40 am   BACKBONE|DICT|INTERRES
    81   39  164 1    
    82   40   41 2    
    83   40   42 1    
    84   42   43 1    
    85   42   44 1    
    86   42  165 1    
    87   43  166 1    
    88   43  167 1    
    89   43  168 1    
    90   44   45 am   BACKBONE|DICT|INTERRES
    91   44  169 1    
    92   45   46 2    
    93   45   47 1    
    94   47   48 1    
    95   47   49 1    
    96   47  170 1    
    97   48  171 1    
    98   48  172 1    
    99   48  173 1    
   100   49   50 am   BACKBONE|DICT|INTERRES
   101   49  174 1    
   102   50   51 2    
   103   50   52 1    
   104   52   53 1    
   105   52   54 1    
   106   52  175 1    
   107   53  176 1    
   108   53  177 1    
   109   53  178 1    
   110   54   55 am   BACKBONE|DICT|INTERRES
   111   54  179 1    
   112   55   56 2    
   113   55   57 1    
   114   57   58 1    
   115   57   59 1    
   116   57  180 1    
   117   58  181 1    
   118   58  182 1    
   119   58  183 1    
   120   59   60 am   BACKBONE|DICT|INTERRES
   121   59  184 1    
   122   60   61 2    
   123   60   62 1    
   124   62   63 1    
   125   62   64 1    
   126   62  185 1    
   127   63  186 1    
   128   63  187 1    
   129   63  188 1    
   130   64   65 am   BACKBONE|DICT|INTERRES
   131   64  189 1    
   132   65   66 2    
   133   67   68 2    
   134   67   69 am   BACKBONE|DICT|INTERRES
   135   69   70 1    
   136   69  190 1    
   137   70   71 1    
   138   70   72 1    
   139   70  191 1    
   140   71  192 1    
   141   71  193 1    
   142   71  194 1    
   143   72   73 2    
   144   72   74 am   BACKBONE|DICT|INTERRES
   145   74   75 1    
   146   74  195 1    
   147   75   76 1    
   148   75   77 1    
   149   75  196 1    
   150   76  197 1    
   151   76  198 1    
   152   76  199 1    
   153   77   78 2    
   154   77   79 am   BACKBONE|DICT|INTERRES
   155   79   80 1    
   156   79  200 1    
   157   80   81 1    
   158   80   82 1    
   159   80  201 1    
   160   81  202 1    
   161   81  203 1    
   162   81  204 1    
   163   82   83 2    
   164   82   84 am   BACKBONE|DICT|INTERRES
   165   84   85 1    
   166   84  205 1    
   167   85   86 1    
   168   85   87 1    
   169   85  206 1    
   170   86  207 1    
   171   86  208 1    
   172   86  209 1    
   173   87   88 2    
   174   87   89 am   BACKBONE|DICT|INTERRES
   175   89   90 1    
   176   89  210 1    
   177   90   91 1    
   178   90   92 1    
   179   90  211 1    
   180   91  212 1    
   181   91  213 1    
   182   91  214 1    
   183   92   93 2    
   184   92   94 am   BACKBONE|DICT|INTERRES
   185   94   95 1    
   186   94  215 1    
   187   95   96 1    
   188   95   97 1    
   189   95  216 1    
   190   96  217 1    
   191   96  218 1    
   192   96  219 1    
   193   97   98 2    
   194   97   99 am   BACKBONE|DICT|INTERRES
   195   99  100 1    
   196   99  220 1    
   197  100  101 1    
   198  100  102 1    
   199  100  221 1    
   200  101  222 1    
   201  101  223 1    
   202  101  224 1    
   203  102  103 2    
   204  102  104 am   BACKBONE|DICT|INTERRES
   205  104  105 1    
   206  104  225 1    
   207  105  106 1    
   208  105  107 1    
   209  105  226 1    
   210  106  227 1    
   211  106  228 1    
   212  106  229 1    
   213  107  108 2    
   214  107  109 am   BACKBONE|DICT|INTERRES
   215  109  110 1    
   216  109  230 1    
   217  110  111 1    
   218  110  112 1    
   219  110  231 1    
   220  111  232 1    
   221  111  233 1    
   222  111  234 1    
   223  112  113 2    
   224  112  114 am   BACKBONE|DICT|INTERRES
   225  114  115 1    
   226  114  235 1    
   227  115  116 1    
   228  115  117 1    
   229  115  236 1    
   230  116  237 1    
   231  116  238 1    
   232  116  239 1    
   233  117  118 2    
   234  117  119 am   BACKBONE|DICT|INTERRES
   235  119  120 1    
   236  119  240 1    
   237  120  121 1    
   238  120  124 1    
   239  120  241 1    
   240  121  122 am   BACKBONE|DICT|INTERRES
   241  121  123 2    
   242  122  242 1    
   243  122  243 1    
   244  124  125 1    
   245  124  244 1    
   246  124  245 1    
   247  125  126 1    
   248  126  246 1    
   249  126  247 1    
@<TRIPOS>SUBSTRUCTURE
     1 UNK         1 GROUP             0       ****    0 ROOT    
