@<TRIPOS>MOLECULE
3R540
247   249    1
SMALL
USER_CHARGES


@<TRIPOS>ATOM
      1 CA         -0.4659  -13.9548  -53.2171 C.3       0 UNK        -0.1800 
      2 C          -0.4090  -13.3564  -51.8183 C.2       0 UNK         0.5000 
      3 O          -0.9533  -12.2751  -51.5922 O.2       0 UNK        -0.5000 
      4 N           0.2587  -14.0465  -50.8862 N.am      1 UNK        -0.5000 
      5 CA          0.3782  -13.6554  -49.4771 C.3       1 UNK         0.1400 
      6 C6          1.5310  -14.3991  -48.7538 C.3       23 UNK        -0.0398 
      7 S7          3.1452  -14.1590  -49.5759 S.3       23 UNK        -0.2404 
      8 C8          3.9961  -15.7414  -49.2327 C.3       23 UNK        -0.0205 
      9 C9          3.2873  -16.9959  -49.7450 C.ar      23 UNK        -0.0193 
     10 C10         2.4408  -16.9705  -50.8617 C.ar      23 UNK        -0.1150 
     11 C11         1.7586  -18.1198  -51.2690 C.ar      23 UNK        -0.0193 
     12 C12         1.9688  -19.3161  -50.5798 C.ar      23 UNK        -0.1150 
     13 C13         2.8661  -19.3770  -49.5126 C.ar      23 UNK        -0.0193 
     14 C14         3.5040  -18.2102  -49.0846 C.ar      23 UNK        -0.1150 
     15 C15         3.1754  -20.7171  -48.8666 C.3       23 UNK        -0.0205 
     16 S16         1.7728  -21.3492  -47.9042 S.3       23 UNK        -0.2404 
     17 C17         2.1662  -23.1305  -47.9147 C.3       23 UNK        -0.0398 
     18 CA          1.4182  -23.9742  -46.8534 C.3       11 UNK         0.1400 
     19 N           1.7777  -23.5654  -45.4941 N.am      11 UNK        -0.5000 
     20 C           2.3326  -24.3646  -44.5750 C.2       10 UNK         0.5000 
     21 O           2.6087  -25.5494  -44.7766 O.2       10 UNK        -0.5000 
     22 CA          2.6314  -23.7257  -43.2041 C.3       10 UNK         0.1400 
     23 CB          3.4292  -24.6448  -42.2558 C.3       10 UNK        -0.1800 
     24 N           3.2742  -22.4162  -43.3211 N.am      10 UNK        -0.5000 
     25 C           4.4656  -22.1076  -43.8523 C.2       9 UNK         0.5000 
     26 O           5.2484  -22.9333  -44.3233 O.2       9 UNK        -0.5000 
     27 CA          4.8535  -20.6119  -43.8528 C.3       9 UNK         0.1400 
     28 CB          4.6589  -20.0080  -45.2526 C.3       9 UNK        -0.1800 
     29 N           4.0958  -19.8170  -42.8806 N.am      9 UNK        -0.5000 
     30 C           4.2569  -19.8739  -41.5502 C.2       8 UNK         0.5000 
     31 O           5.1438  -20.5245  -40.9966 O.2       8 UNK        -0.5000 
     32 CA          3.2218  -19.1179  -40.6929 C.3       8 UNK         0.1400 
     33 CB          3.6166  -17.6445  -40.5114 C.3       8 UNK        -0.1800 
     34 N           1.8689  -19.2056  -41.2490 N.am      8 UNK        -0.5000 
     35 C           1.1477  -20.3353  -41.3024 C.2       7 UNK         0.5000 
     36 O           1.5163  -21.4035  -40.8152 O.2       7 UNK        -0.5000 
     37 CA         -0.1849  -20.2836  -42.0681 C.3       7 UNK         0.1400 
     38 CB         -1.3228  -19.8135  -41.1502 C.3       7 UNK        -0.1800 
     39 N          -0.1129  -19.4342  -43.2587 N.am      7 UNK        -0.5000 
     40 C           0.5982  -19.7262  -44.3575 C.2       6 UNK         0.5000 
     41 O           1.1953  -20.7905  -44.5084 O.2       6 UNK        -0.5000 
     42 CA          0.6989  -18.6419  -45.4494 C.3       6 UNK         0.1400 
     43 CB         -0.4518  -18.7577  -46.4484 C.3       6 UNK        -0.1800 
     44 N           0.7243  -17.2862  -44.9084 N.am      6 UNK        -0.5000 
     45 C           1.7152  -16.7925  -44.1570 C.2       5 UNK         0.5000 
     46 O           2.7444  -17.4127  -43.8926 O.2       5 UNK        -0.5000 
     47 CA          1.4827  -15.3992  -43.5502 C.3       5 UNK         0.1400 
     48 CB          1.8232  -14.2912  -44.5580 C.3       5 UNK        -0.1800 
     49 N           0.1021  -15.2409  -43.0892 N.am      5 UNK        -0.5000 
     50 C          -0.4019  -15.8479  -42.0057 C.2       4 UNK         0.5000 
     51 O           0.2636  -16.5648  -41.2582 O.2       4 UNK        -0.5000 
     52 CA         -1.9053  -15.6476  -41.7312 C.3       4 UNK         0.1400 
     53 CB         -2.1437  -14.3391  -40.9632 C.3       4 UNK        -0.1800 
     54 N          -2.7126  -15.6448  -42.9534 N.am      4 UNK        -0.5000 
     55 C          -2.9196  -16.7202  -43.7272 C.2       3 UNK         0.5000 
     56 O          -2.4832  -17.8381  -43.4662 O.2       3 UNK        -0.5000 
     57 CA         -3.6974  -16.5048  -45.0404 C.3       3 UNK         0.1400 
     58 CB         -5.2024  -16.7165  -44.8234 C.3       3 UNK        -0.1800 
     59 N          -3.4701  -15.1923  -45.6526 N.am      3 UNK        -0.5000 
     60 C          -2.2734  -14.7368  -46.0451 C.2       2 UNK         0.5000 
     61 O          -1.2174  -15.3505  -45.8704 O.2       2 UNK        -0.5000 
     62 CA         -2.2485  -13.3359  -46.6841 C.3       2 UNK         0.1400 
     63 CB         -2.1490  -12.2611  -45.5902 C.3       2 UNK        -0.1800 
     64 N          -1.1242  -13.1712  -47.6061 N.am      2 UNK        -0.5000 
     65 C          -0.9529  -13.8798  -48.7298 C.2       1 UNK         0.5000 
     66 O          -1.7759  -14.6945  -49.1563 O.2       1 UNK        -0.5000 
     67 C          -0.1131  -23.9536  -47.0462 C.2       11 UNK         0.5000 
     68 O          -0.8391  -23.3597  -46.2445 O.2       11 UNK        -0.5000 
     69 N          -0.5797  -24.5947  -48.1296 N.am      12 UNK        -0.5000 
     70 CA         -1.9954  -24.7586  -48.4886 C.3       12 UNK         0.1400 
     71 CB         -2.0988  -25.6606  -49.7268 C.3       12 UNK        -0.1800 
     72 C          -2.7613  -23.4423  -48.7249 C.2       12 UNK         0.5000 
     73 O          -3.9851  -23.4170  -48.5772 O.2       12 UNK        -0.5000 
     74 N          -2.0358  -22.3557  -49.0258 N.am      13 UNK        -0.5000 
     75 CA         -2.5689  -20.9962  -49.1283 C.3       13 UNK         0.1400 
     76 CB         -1.4971  -20.0606  -49.7026 C.3       13 UNK        -0.1800 
     77 C          -3.1632  -20.4468  -47.8143 C.2       13 UNK         0.5000 
     78 O          -3.8959  -19.4621  -47.8646 O.2       13 UNK        -0.5000 
     79 N          -2.8940  -21.1016  -46.6746 N.am      14 UNK        -0.5000 
     80 CA         -3.5619  -20.8421  -45.3985 C.3       14 UNK         0.1400 
     81 CB         -2.8692  -21.6586  -44.2999 C.3       14 UNK        -0.1800 
     82 C          -5.0649  -21.1827  -45.4383 C.2       14 UNK         0.5000 
     83 O          -5.8572  -20.5061  -44.7831 O.2       14 UNK        -0.5000 
     84 N          -5.4246  -22.2171  -46.2115 N.am      15 UNK        -0.5000 
     85 CA         -6.7996  -22.6629  -46.4227 C.3       15 UNK         0.1400 
     86 CB         -6.8310  -24.1991  -46.4559 C.3       15 UNK        -0.1800 
     87 C          -7.3746  -22.0836  -47.7248 C.2       15 UNK         0.5000 
     88 O          -8.5231  -21.6406  -47.7362 O.2       15 UNK        -0.5000 
     89 N          -6.5685  -22.0892  -48.7967 N.am      16 UNK        -0.5000 
     90 CA         -6.9656  -21.6424  -50.1353 C.3       16 UNK         0.1400 
     91 CB         -6.0648  -22.3299  -51.1742 C.3       16 UNK        -0.1800 
     92 C          -6.9447  -20.1118  -50.3250 C.2       16 UNK         0.5000 
     93 O          -7.3318  -19.6392  -51.3944 O.2       16 UNK        -0.5000 
     94 N          -6.4482  -19.3659  -49.3254 N.am      17 UNK        -0.5000 
     95 CA         -6.3044  -17.9015  -49.2789 C.3       17 UNK         0.1400 
     96 CB         -7.6927  -17.2306  -49.2354 C.3       17 UNK        -0.1800 
     97 C          -5.4069  -17.3273  -50.3994 C.2       17 UNK         0.5000 
     98 O          -5.5620  -16.1642  -50.7732 O.2       17 UNK        -0.5000 
     99 N          -4.5234  -18.1790  -50.9451 N.am      18 UNK        -0.5000 
    100 CA        -3.6821  -17.9826  -52.1331 C.3       18 UNK         0.1400 
    101 CB        -2.6547  -16.8548  -51.8997 C.3       18 UNK        -0.1800 
    102 C         -4.4754  -17.7779  -53.4463 C.2       18 UNK         0.5000 
    103 O         -3.8765  -17.4090  -54.4574 O.2       18 UNK        -0.5000 
    104 N         -5.7963  -18.0138  -53.4269 N.am      19 UNK        -0.5000 
    105 CA        -6.6947  -17.7649  -54.5531 C.3       19 UNK         0.1400 
    106 CB        -8.1299  -17.5928  -54.0321 C.3       19 UNK        -0.1800 
    107 C         -6.6271  -18.8788  -55.6085 C.2       19 UNK         0.5000 
    108 O         -6.6701  -18.5830  -56.8033 O.2       19 UNK        -0.5000 
    109 N         -6.5193  -20.1344  -55.1516 N.am      20 UNK        -0.5000 
    110 CA        -6.3772  -21.3056  -56.0162 C.3       20 UNK         0.1400 
    111 CB        -6.7762  -22.5750  -55.2457 C.3       20 UNK        -0.1800 
    112 C         -4.9462  -21.4160  -56.5678 C.2       20 UNK         0.5000 
    113 O         -4.7628  -21.4871  -57.7835 O.2       20 UNK        -0.5000 
    114 N         -3.9675  -21.4062  -55.6559 N.am      21 UNK        -0.5000 
    115 CA        -2.5330  -21.5141  -55.8991 C.3       21 UNK         0.1400 
    116 CB        -2.1845  -22.8809  -56.5283 C.3       21 UNK        -0.1800 
    117 C         -1.8074  -21.3583  -54.5545 C.2       21 UNK         0.5000 
    118 O         -2.4407  -21.4400  -53.4962 O.2       21 UNK        -0.5000 
    119 N         -0.4823  -21.1940  -54.6155 N.am      22 UNK        -0.5000 
    120 CA         0.4335  -21.2209  -53.4636 C.3       22 UNK         0.1400 
    121 C          0.6998  -22.6637  -52.9386 C.2       22 UNK         0.5000 
    122 N         -0.3406  -23.4267  -52.6320 N.am      22 UNK        -0.7600 
    123 O          1.8398  -23.1002  -52.8076 O.2       22 UNK        -0.5000 
    124 C124        1.7344  -20.4187  -53.7441 C.3       23 UNK        -0.0398 
    125 S125        1.4577  -18.6314  -54.0136 S.3       23 UNK        -0.2404 
    126 C126        0.7684  -18.0553  -52.4241 C.3       23 UNK        -0.0205 
    127 H127        0.2303  -14.7851  -53.3320 H         1 UNK         0.0600 
    128 H128       -0.2105  -13.1991  -53.9599 H         1 UNK         0.0600 
    129 H129       -1.4718  -14.3164  -53.4301 H         1 UNK         0.0600 
    130 H130        0.6616  -14.9395  -51.1208 H         1 UNK         0.3000 
    131 H131        0.5984  -12.5859  -49.4475 H         1 UNK         0.0600 
    132 H132        1.6343  -14.0387  -47.7299 H         1 UNK         0.0800 
    133 H133        1.3047  -15.4637  -48.6754 H         1 UNK         0.0800 
    134 H134        4.1432  -15.8160  -48.1539 H         1 UNK         0.0800 
    135 H135        4.9909  -15.7028  -49.6780 H         1 UNK         0.0800 
    136 H136        2.2950  -16.0508  -51.4077 H         1 UNK         0.1150 
    137 H137        1.4494  -20.2138  -50.8786 H         1 UNK         0.1150 
    138 H138        4.1831  -18.2508  -48.2443 H         1 UNK         0.1150 
    139 H139        3.4292  -21.4282  -49.6544 H         1 UNK         0.0800 
    140 H140        4.0515  -20.6477  -48.2208 H         1 UNK         0.0800 
    141 H141        3.2403  -23.2449  -47.7600 H         1 UNK         0.0800 
    142 H142        1.9726  -23.5167  -48.9168 H         1 UNK         0.0800 
    143 H143        1.7195  -25.0116  -47.0114 H         1 UNK         0.0600 
    144 H144        1.5384  -22.6091  -45.2433 H         1 UNK         0.3000 
    145 H145        1.6608  -23.5432  -42.7409 H         1 UNK         0.0600 
    146 H146        3.5953  -24.1634  -41.2918 H         1 UNK         0.0600 
    147 H147        2.8889  -25.5727  -42.0656 H         1 UNK         0.0600 
    148 H148        4.4018  -24.9115  -42.6700 H         1 UNK         0.0600 
    149 H149        2.6958  -21.6373  -43.0369 H         1 UNK         0.3000 
    150 H150        5.9128  -20.5450  -43.5967 H         1 UNK         0.0600 
    151 H151        5.2774  -20.5239  -45.9878 H         1 UNK         0.0600 
    152 H152        4.9373  -18.9542  -45.2736 H         1 UNK         0.0600 
    153 H153        3.6239  -20.0882  -45.5839 H         1 UNK         0.0600 
    154 H154        3.3968  -19.1832  -43.2557 H         1 UNK         0.3000 
    155 H155        3.2076  -19.5836  -39.7052 H         1 UNK         0.0600 
    156 H156        4.5943  -17.5608  -40.0355 H         1 UNK         0.0600 
    157 H157        2.9002  -17.1196  -39.8790 H         1 UNK         0.0600 
    158 H158        3.6712  -17.1165  -41.4627 H         1 UNK         0.0600 
    159 H159        1.4724  -18.3543  -41.6287 H         1 UNK         0.3000 
    160 H160       -0.4131  -21.3013  -42.3903 H         1 UNK         0.0600 
    161 H161       -1.1676  -18.7924  -40.8035 H         1 UNK         0.0600 
    162 H162       -1.4008  -20.4506  -40.2685 H         1 UNK         0.0600 
    163 H163       -2.2844  -19.8504  -41.6613 H         1 UNK         0.0600 
    164 H164       -0.6750  -18.5897  -43.2485 H         1 UNK         0.3000 
    165 H165        1.6315  -18.8045  -45.9929 H         1 UNK         0.0600 
    166 H166       -1.4133  -18.5554  -45.9795 H         1 UNK         0.0600 
    167 H167       -0.3282  -18.0671  -47.2831 H         1 UNK         0.0600 
    168 H168       -0.4883  -19.7658  -46.8561 H         1 UNK         0.0600 
    169 H169       -0.0681  -16.6873  -45.1248 H         1 UNK         0.3000 
    170 H170        2.1500  -15.2932  -42.6922 H         1 UNK         0.0600 
    171 H171        2.8471  -14.3934  -44.9197 H         1 UNK         0.0600 
    172 H172        1.1646  -14.3177  -45.4250 H         1 UNK         0.0600 
    173 H173        1.7354  -13.3049  -44.1022 H         1 UNK         0.0600 
    174 H174       -0.5220  -14.7303  -43.6967 H         1 UNK         0.3000 
    175 H175       -2.2412  -16.4760  -41.1038 H         1 UNK         0.0600 
    176 H176       -1.5676  -14.3201  -40.0371 H         1 UNK         0.0600 
    177 H177       -1.8516  -13.4671  -41.5497 H         1 UNK         0.0600 
    178 H178       -3.1939  -14.2263  -40.6934 H         1 UNK         0.0600 
    179 H179       -3.1088  -14.7621  -43.2396 H         1 UNK         0.3000 
    180 H180       -3.3548  -17.2585  -45.7518 H         1 UNK         0.0600 
    181 H181       -5.3983  -17.6957  -44.3839 H         1 UNK         0.0600 
    182 H182       -5.6237  -15.9653  -44.1543 H         1 UNK         0.0600 
    183 H183       -5.7471  -16.6731  -45.7668 H         1 UNK         0.0600 
    184 H184       -4.2887  -14.6227  -45.8111 H         1 UNK         0.3000 
    185 H185       -3.1735  -13.1893  -47.2456 H         1 UNK         0.0600 
    186 H186       -2.9877  -12.3264  -44.8959 H         1 UNK         0.0600 
    187 H187       -1.2321  -12.3626  -45.0076 H         1 UNK         0.0600 
    188 H188       -2.1642  -11.2589  -46.0192 H         1 UNK         0.0600 
    189 H189       -0.4002  -12.5325  -47.3123 H         1 UNK         0.3000 
    190 H190        0.0794  -25.0557  -48.7401 H         1 UNK         0.3000 
    191 H191       -2.4868  -25.2656  -47.6558 H         1 UNK         0.0600 
    192 H192       -1.5988  -25.2186  -50.5888 H         1 UNK         0.0600 
    193 H193       -3.1409  -25.8284  -50.0031 H         1 UNK         0.0600 
    194 H194       -1.6528  -26.6381  -49.5427 H         1 UNK         0.0600 
    195 H195       -1.0354  -22.4588  -49.1094 H         1 UNK         0.3000 
    196 H196       -3.3912  -21.0207  -49.8431 H         1 UNK         0.0600 
    197 H197       -1.8280  -19.0218  -49.6911 H         1 UNK         0.0600 
    198 H198       -1.2783  -20.3191  -50.7367 H         1 UNK         0.0600 
    199 H199       -0.5666  -20.1108  -49.1413 H         1 UNK         0.0600 
    200 H200       -2.2469  -21.8831  -46.6919 H         1 UNK         0.3000 
    201 H201       -3.4564  -19.7813  -45.1652 H         1 UNK         0.0600 
    202 H202       -3.2590  -21.3996  -43.3153 H         1 UNK         0.0600 
    203 H203       -3.0130  -22.7305  -44.4422 H         1 UNK         0.0600 
    204 H204       -1.7973  -21.4722  -44.2925 H         1 UNK         0.0600 
    205 H205       -4.7113  -22.6935  -46.7501 H         1 UNK         0.3000 
    206 H206       -7.4335  -22.3325  -45.5970 H         1 UNK         0.0600 
    207 H207       -6.4725  -24.6191  -45.5160 H         1 UNK         0.0600 
    208 H208       -7.8469  -24.5655  -46.6090 H         1 UNK         0.0600 
    209 H209       -6.2119  -24.6014  -47.2589 H         1 UNK         0.0600 
    210 H210       -5.6490  -22.5151  -48.7153 H         1 UNK         0.3000 
    211 H211       -7.9915  -21.9684  -50.3194 H         1 UNK         0.0600 
    212 H212       -6.3729  -22.0700  -52.1864 H         1 UNK         0.0600 
    213 H213       -6.1216  -23.4152  -51.0884 H         1 UNK         0.0600 
    214 H214       -5.0199  -22.0422  -51.0671 H         1 UNK         0.0600 
    215 H215       -6.0913  -19.8502  -48.5127 H         1 UNK         0.3000 
    216 H216       -5.8002  -17.6697  -48.3399 H         1 UNK         0.0600 
    217 H217       -7.6059  -16.1596  -49.0491 H         1 UNK         0.0600 
    218 H218       -8.3066  -17.6478  -48.4371 H         1 UNK         0.0600 
    219 H219       -8.2322  -17.3566  -50.1747 H         1 UNK         0.0600 
    220 H220       -4.4935  -19.1015  -50.5391 H         1 UNK         0.3000 
    221 H221       -3.1254  -18.9116  -52.2648 H         1 UNK         0.0600 
    222 H222       -3.1336  -15.8802  -51.8042 H         1 UNK         0.0600 
    223 H223       -2.0703  -17.0252  -50.9960 H         1 UNK         0.0600 
    224 H224       -1.9543  -16.7869  -52.7318 H         1 UNK         0.0600 
    225 H225       -6.2267  -18.3545  -52.5741 H         1 UNK         0.3000 
    226 H226       -6.3998  -16.8293  -55.0334 H         1 UNK         0.0600 
    227 H227       -8.8120  -17.3440  -54.8459 H         1 UNK         0.0600 
    228 H228       -8.5020  -18.5027  -53.5601 H         1 UNK         0.0600 
    229 H229       -8.1892  -16.7879  -53.2992 H         1 UNK         0.0600 
    230 H230       -6.5029  -20.2849  -54.1537 H         1 UNK         0.3000 
    231 H231       -7.0606  -21.2019  -56.8621 H         1 UNK         0.0600 
    232 H232       -7.7914  -22.4982  -54.8557 H         1 UNK         0.0600 
    233 H233       -6.1080  -22.7735  -54.4079 H         1 UNK         0.0600 
    234 H234       -6.7448  -23.4481  -55.8986 H         1 UNK         0.0600 
    235 H235       -4.1970  -21.3283  -54.6731 H         1 UNK         0.3000 
    236 H236       -2.2237  -20.7037  -56.5617 H         1 UNK         0.0600 
    237 H237       -2.6294  -22.9992  -57.5157 H         1 UNK         0.0600 
    238 H238       -1.1077  -22.9976  -56.6560 H         1 UNK         0.0600 
    239 H239       -2.5306  -23.7066  -55.9052 H         1 UNK         0.0600 
    240 H240       -0.0399  -21.1524  -55.5218 H         1 UNK         0.3000 
    241 H241       -0.0697  -20.7358  -52.6315 H         1 UNK         0.0600 
    242 H242       -1.2789  -23.0637  -52.7422 H         1 UNK         0.3800 
    243 H243       -0.1897  -24.3706  -52.3161 H         1 UNK         0.3800 
    244 H244        2.4586  -20.5327  -52.9379 H         1 UNK         0.0800 
    245 H245        2.2300  -20.8192  -54.6295 H         1 UNK         0.0800 
    246 H246       -0.1381  -18.6040  -52.1740 H         1 UNK         0.0800 
    247 H247        0.4448  -17.0244  -52.5622 H         1 UNK         0.0800 
@<TRIPOS>BOND
     1    1    2 1    
     2    1  127 1    
     3    1  128 1    
     4    1  129 1    
     5    2    3 2    
     6    2    4 am   BACKBONE|DICT|INTERRES
     7    4    5 1    
     8    4  130 1    
     9    5    6 1    
    10    5   65 1    
    11    5  131 1    
    12    6    7 1    
    13    6  132 1    
    14    6  133 1    
    15    7    8 1    
    16    8    9 1    
    17    8  134 1    
    18    8  135 1    
    19    9   10 ar   
    20    9   14 ar   
    21   10   11 ar   
    22   10  136 1    
    23   11   12 ar   
    24   11  126 1    
    25   12   13 ar   
    26   12  137 1    
    27   13   14 ar   
    28   13   15 1    
    29   14  138 1    
    30   15   16 1    
    31   15  139 1    
    32   15  140 1    
    33   16   17 1    
    34   17   18 1    
    35   17  141 1    
    36   17  142 1    
    37   18   19 1    
    38   18   67 1    
    39   18  143 1    
    40   19   20 am   BACKBONE|DICT|INTERRES
    41   19  144 1    
    42   20   21 2    
    43   20   22 1    
    44   22   23 1    
    45   22   24 1    
    46   22  145 1    
    47   23  146 1    
    48   23  147 1    
    49   23  148 1    
    50   24   25 am   BACKBONE|DICT|INTERRES
    51   24  149 1    
    52   25   26 2    
    53   25   27 1    
    54   27   28 1    
    55   27   29 1    
    56   27  150 1    
    57   28  151 1    
    58   28  152 1    
    59   28  153 1    
    60   29   30 am   BACKBONE|DICT|INTERRES
    61   29  154 1    
    62   30   31 2    
    63   30   32 1    
    64   32   33 1    
    65   32   34 1    
    66   32  155 1    
    67   33  156 1    
    68   33  157 1    
    69   33  158 1    
    70   34   35 am   BACKBONE|DICT|INTERRES
    71   34  159 1    
    72   35   36 2    
    73   35   37 1    
    74   37   38 1    
    75   37   39 1    
    76   37  160 1    
    77   38  161 1    
    78   38  162 1    
    79   38  163 1    
    80   39   40 am   BACKBONE|DICT|INTERRES
    81   39  164 1    
    82   40   41 2    
    83   40   42 1    
    84   42   43 1    
    85   42   44 1    
    86   42  165 1    
    87   43  166 1    
    88   43  167 1    
    89   43  168 1    
    90   44   45 am   BACKBONE|DICT|INTERRES
    91   44  169 1    
    92   45   46 2    
    93   45   47 1    
    94   47   48 1    
    95   47   49 1    
    96   47  170 1    
    97   48  171 1    
    98   48  172 1    
    99   48  173 1    
   100   49   50 am   BACKBONE|DICT|INTERRES
   101   49  174 1    
   102   50   51 2    
   103   50   52 1    
   104   52   53 1    
   105   52   54 1    
   106   52  175 1    
   107   53  176 1    
   108   53  177 1    
   109   53  178 1    
   110   54   55 am   BACKBONE|DICT|INTERRES
   111   54  179 1    
   112   55   56 2    
   113   55   57 1    
   114   57   58 1    
   115   57   59 1    
   116   57  180 1    
   117   58  181 1    
   118   58  182 1    
   119   58  183 1    
   120   59   60 am   BACKBONE|DICT|INTERRES
   121   59  184 1    
   122   60   61 2    
   123   60   62 1    
   124   62   63 1    
   125   62   64 1    
   126   62  185 1    
   127   63  186 1    
   128   63  187 1    
   129   63  188 1    
   130   64   65 am   BACKBONE|DICT|INTERRES
   131   64  189 1    
   132   65   66 2    
   133   67   68 2    
   134   67   69 am   BACKBONE|DICT|INTERRES
   135   69   70 1    
   136   69  190 1    
   137   70   71 1    
   138   70   72 1    
   139   70  191 1    
   140   71  192 1    
   141   71  193 1    
   142   71  194 1    
   143   72   73 2    
   144   72   74 am   BACKBONE|DICT|INTERRES
   145   74   75 1    
   146   74  195 1    
   147   75   76 1    
   148   75   77 1    
   149   75  196 1    
   150   76  197 1    
   151   76  198 1    
   152   76  199 1    
   153   77   78 2    
   154   77   79 am   BACKBONE|DICT|INTERRES
   155   79   80 1    
   156   79  200 1    
   157   80   81 1    
   158   80   82 1    
   159   80  201 1    
   160   81  202 1    
   161   81  203 1    
   162   81  204 1    
   163   82   83 2    
   164   82   84 am   BACKBONE|DICT|INTERRES
   165   84   85 1    
   166   84  205 1    
   167   85   86 1    
   168   85   87 1    
   169   85  206 1    
   170   86  207 1    
   171   86  208 1    
   172   86  209 1    
   173   87   88 2    
   174   87   89 am   BACKBONE|DICT|INTERRES
   175   89   90 1    
   176   89  210 1    
   177   90   91 1    
   178   90   92 1    
   179   90  211 1    
   180   91  212 1    
   181   91  213 1    
   182   91  214 1    
   183   92   93 2    
   184   92   94 am   BACKBONE|DICT|INTERRES
   185   94   95 1    
   186   94  215 1    
   187   95   96 1    
   188   95   97 1    
   189   95  216 1    
   190   96  217 1    
   191   96  218 1    
   192   96  219 1    
   193   97   98 2    
   194   97   99 am   BACKBONE|DICT|INTERRES
   195   99  100 1    
   196   99  220 1    
   197  100  101 1    
   198  100  102 1    
   199  100  221 1    
   200  101  222 1    
   201  101  223 1    
   202  101  224 1    
   203  102  103 2    
   204  102  104 am   BACKBONE|DICT|INTERRES
   205  104  105 1    
   206  104  225 1    
   207  105  106 1    
   208  105  107 1    
   209  105  226 1    
   210  106  227 1    
   211  106  228 1    
   212  106  229 1    
   213  107  108 2    
   214  107  109 am   BACKBONE|DICT|INTERRES
   215  109  110 1    
   216  109  230 1    
   217  110  111 1    
   218  110  112 1    
   219  110  231 1    
   220  111  232 1    
   221  111  233 1    
   222  111  234 1    
   223  112  113 2    
   224  112  114 am   BACKBONE|DICT|INTERRES
   225  114  115 1    
   226  114  235 1    
   227  115  116 1    
   228  115  117 1    
   229  115  236 1    
   230  116  237 1    
   231  116  238 1    
   232  116  239 1    
   233  117  118 2    
   234  117  119 am   BACKBONE|DICT|INTERRES
   235  119  120 1    
   236  119  240 1    
   237  120  121 1    
   238  120  124 1    
   239  120  241 1    
   240  121  122 am   BACKBONE|DICT|INTERRES
   241  121  123 2    
   242  122  242 1    
   243  122  243 1    
   244  124  125 1    
   245  124  244 1    
   246  124  245 1    
   247  125  126 1    
   248  126  246 1    
   249  126  247 1    
@<TRIPOS>SUBSTRUCTURE
     1 UNK         1 GROUP             0       ****    0 ROOT    
