@<TRIPOS>MOLECULE
3R540
247   249    1
SMALL
USER_CHARGES


@<TRIPOS>ATOM
      1 CA          6.7732  -16.4930  -44.6107 C.3       0 UNK        -0.1800 
      2 C           5.3341  -16.0164  -44.4782 C.2       0 UNK         0.5000 
      3 O           4.6387  -16.4236  -43.5498 O.2       0 UNK        -0.5000 
      4 N           4.8889  -15.1540  -45.4010 N.am      1 UNK        -0.5000 
      5 CA          3.5192  -14.6275  -45.4745 C.3       1 UNK         0.1400 
      6 C6          3.2275  -13.9535  -46.8378 C.3       23 UNK        -0.0398 
      7 S7          3.4443  -15.0602  -48.2704 S.3       23 UNK        -0.2404 
      8 C8          1.7240  -15.5901  -48.5235 C.3       23 UNK        -0.0205 
      9 C9          1.5788  -16.4961  -49.7355 C.ar      23 UNK        -0.0193 
     10 C10         0.9954  -16.0225  -50.9141 C.ar      23 UNK        -0.1150 
     11 C11         0.8580  -16.8616  -52.0240 C.ar      23 UNK        -0.0193 
     12 C12         1.2963  -18.1880  -51.9409 C.ar      23 UNK        -0.1150 
     13 C13         1.8757  -18.6786  -50.7669 C.ar      23 UNK        -0.0193 
     14 C14         2.0232  -17.8182  -49.6743 C.ar      23 UNK        -0.1150 
     15 C15         2.3801  -20.1203  -50.7174 C.3       23 UNK        -0.0205 
     16 S16         2.1392  -20.9474  -49.1067 S.3       23 UNK        -0.2404 
     17 C17         0.3224  -21.0250  -49.0247 C.3       23 UNK        -0.0398 
     18 CA         -0.1748  -22.1503  -48.0904 C.3       11 UNK         0.1400 
     19 N           0.2377  -21.9390  -46.7022 N.am      11 UNK        -0.5000 
     20 C           0.1289  -22.8266  -45.7066 C.2       10 UNK         0.5000 
     21 O          -0.3270  -23.9599  -45.8645 O.2       10 UNK        -0.5000 
     22 CA          0.5183  -22.3481  -44.2913 C.3       10 UNK         0.1400 
     23 CB          1.3140  -23.4112  -43.5083 C.3       10 UNK        -0.1800 
     24 N           1.1832  -21.0381  -44.2705 N.am      10 UNK        -0.5000 
     25 C           2.4104  -20.7151  -44.7085 C.2       9 UNK         0.5000 
     26 O           3.2249  -21.5310  -45.1390 O.2       9 UNK        -0.5000 
     27 CA          2.7786  -19.2162  -44.7069 C.3       9 UNK         0.1400 
     28 CB          2.7863  -18.6757  -46.1428 C.3       9 UNK        -0.1800 
     29 N           1.8651  -18.3940  -43.9131 N.am      9 UNK        -0.5000 
     30 C           1.8625  -18.3323  -42.5748 C.2       8 UNK         0.5000 
     31 O           2.6591  -18.9339  -41.8538 O.2       8 UNK        -0.5000 
     32 CA          0.7343  -17.5009  -41.9398 C.3       8 UNK         0.1400 
     33 CB          1.1270  -16.0187  -41.8599 C.3       8 UNK        -0.1800 
     34 N          -0.5274  -17.6401  -42.6738 N.am      8 UNK        -0.5000 
     35 C          -1.2752  -18.7543  -42.6759 C.2       7 UNK         0.5000 
     36 O          -0.9882  -19.7690  -42.0419 O.2       7 UNK        -0.5000 
     37 CA         -2.5338  -18.7584  -43.5615 C.3       7 UNK         0.1400 
     38 CB         -3.7445  -18.2144  -42.7895 C.3       7 UNK        -0.1800 
     39 N          -2.3651  -17.9914  -44.7952 N.am      7 UNK        -0.5000 
     40 C          -1.5908  -18.3595  -45.8252 C.2       6 UNK         0.5000 
     41 O          -0.9934  -19.4341  -45.8754 O.2       6 UNK        -0.5000 
     42 CA         -1.4409  -17.3552  -46.9840 C.3       6 UNK         0.1400 
     43 CB         -2.3766  -17.7122  -48.1472 C.3       6 UNK        -0.1800 
     44 N          -1.6812  -15.9667  -46.5754 N.am      6 UNK        -0.5000 
     45 C          -0.8929  -15.2799  -45.7385 C.2       5 UNK         0.5000 
     46 O           0.1563  -15.7305  -45.2742 O.2       5 UNK        -0.5000 
     47 CA         -1.4030  -13.9039  -45.2893 C.3       5 UNK         0.1400 
     48 CB         -1.7046  -13.9152  -43.7820 C.3       5 UNK        -0.1800 
     49 N          -0.4010  -12.8789  -45.5549 N.am      5 UNK        -0.5000 
     50 C          -0.4865  -11.9527  -46.5176 C.2       4 UNK         0.5000 
     51 O          -1.4098  -11.9087  -47.3331 O.2       4 UNK        -0.5000 
     52 CA          0.6426  -10.8966  -46.5731 C.3       4 UNK         0.1400 
     53 CB          0.2735   -9.6691  -47.4324 C.3       4 UNK        -0.1800 
     54 N           1.1194  -10.4681  -45.2518 N.am      4 UNK        -0.5000 
     55 C           0.4107   -9.9012  -44.2637 C.2       3 UNK         0.5000 
     56 O          -0.7957   -9.6622  -44.3411 O.2       3 UNK        -0.5000 
     57 CA          1.1863   -9.5436  -42.9721 C.3       3 UNK         0.1400 
     58 CB          0.2522   -9.2008  -41.7971 C.3       3 UNK        -0.1800 
     59 N           2.0952  -10.6106  -42.5450 N.am      3 UNK        -0.5000 
     60 C           3.3115  -10.8562  -43.0476 C.2       2 UNK         0.5000 
     61 O           3.8305  -10.1680  -43.9280 O.2       2 UNK        -0.5000 
     62 CA          4.0488  -12.1191  -42.5512 C.3       2 UNK         0.1400 
     63 CB          3.4229  -12.7663  -41.2943 C.3       2 UNK        -0.1800 
     64 N           4.1717  -13.1095  -43.6269 N.am      2 UNK        -0.5000 
     65 C           3.1653  -13.6486  -44.3337 C.2       1 UNK         0.5000 
     66 O           1.9816  -13.3735  -44.1400 O.2       1 UNK        -0.5000 
     67 C          -1.7017  -22.3021  -48.2109 C.2       11 UNK         0.5000 
     68 O          -2.1627  -23.0368  -49.0848 O.2       11 UNK        -0.5000 
     69 N          -2.4586  -21.6279  -47.3316 N.am      12 UNK        -0.5000 
     70 CA         -3.9151  -21.7508  -47.2443 C.3       12 UNK         0.1400 
     71 CB         -4.4916  -20.5895  -46.4226 C.3       12 UNK        -0.1800 
     72 C          -4.3548  -23.0922  -46.6352 C.2       12 UNK         0.5000 
     73 O          -5.3665  -23.6473  -47.0615 O.2       12 UNK        -0.5000 
     74 N          -3.5791  -23.5905  -45.6615 N.am      13 UNK        -0.5000 
     75 CA         -3.8020  -24.8753  -44.9969 C.3       13 UNK         0.1400 
     76 CB         -2.9869  -24.9301  -43.6952 C.3       13 UNK        -0.1800 
     77 C          -3.4570  -26.0577  -45.9178 C.2       13 UNK         0.5000 
     78 O          -4.2025  -27.0368  -45.9604 O.2       13 UNK        -0.5000 
     79 N          -2.3529  -25.9244  -46.6658 N.am      14 UNK        -0.5000 
     80 CA         -1.9380  -26.8614  -47.7104 C.3       14 UNK         0.1400 
     81 CB         -0.4802  -26.5585  -48.0908 C.3       14 UNK        -0.1800 
     82 C          -2.8328  -26.8021  -48.9650 C.2       14 UNK         0.5000 
     83 O          -2.8976  -27.7849  -49.7037 O.2       14 UNK        -0.5000 
     84 N          -3.4747  -25.6442  -49.1856 N.am      15 UNK        -0.5000 
     85 CA         -4.2294  -25.2398  -50.3747 C.3       15 UNK         0.1400 
     86 CB         -5.5266  -26.0598  -50.5221 C.3       15 UNK        -0.1800 
     87 C          -3.3367  -25.2674  -51.6309 C.2       15 UNK         0.5000 
     88 O          -3.6883  -25.8874  -52.6354 O.2       15 UNK        -0.5000 
     89 N          -2.1631  -24.6283  -51.5226 N.am      16 UNK        -0.5000 
     90 CA         -1.0575  -24.7073  -52.4826 C.3       16 UNK         0.1400 
     91 CB          0.1543  -23.9492  -51.9195 C.3       16 UNK        -0.1800 
     92 C          -1.4032  -24.2293  -53.9075 C.2       16 UNK         0.5000 
     93 O          -0.8879  -24.7911  -54.8746 O.2       16 UNK        -0.5000 
     94 N          -2.2958  -23.2379  -54.0144 N.am      17 UNK        -0.5000 
     95 CA         -2.8249  -22.7104  -55.2749 C.3       17 UNK         0.1400 
     96 CB         -3.0389  -21.1968  -55.1152 C.3       17 UNK        -0.1800 
     97 C          -4.1255  -23.4121  -55.7256 C.2       17 UNK         0.5000 
     98 O          -4.7937  -22.9069  -56.6285 O.2       17 UNK        -0.5000 
     99 N          -4.4824  -24.5360  -55.0823 N.am      18 UNK        -0.5000 
    100 CA        -5.7433  -25.2807  -55.2120 C.3       18 UNK         0.1400 
    101 CB        -5.9509  -25.8139  -56.6453 C.3       18 UNK        -0.1800 
    102 C         -6.9556  -24.4910  -54.6709 C.2       18 UNK         0.5000 
    103 O         -8.0876  -24.7079  -55.1065 O.2       18 UNK        -0.5000 
    104 N         -6.6889  -23.5959  -53.7154 N.am      19 UNK        -0.5000 
    105 CA        -7.6270  -22.7209  -53.0284 C.3       19 UNK         0.1400 
    106 CB        -8.0082  -21.5401  -53.9412 C.3       19 UNK        -0.1800 
    107 C         -6.9409  -22.2222  -51.7488 C.2       19 UNK         0.5000 
    108 O         -5.7223  -22.3692  -51.6133 O.2       19 UNK        -0.5000 
    109 N         -7.7269  -21.6303  -50.8398 N.am      20 UNK        -0.5000 
    110 CA        -7.2242  -20.9982  -49.6173 C.3       20 UNK         0.1400 
    111 CB        -8.3918  -20.7133  -48.6617 C.3       20 UNK        -0.1800 
    112 C         -6.4326  -19.7108  -49.9133 C.2       20 UNK         0.5000 
    113 O         -5.3966  -19.4756  -49.2914 O.2       20 UNK        -0.5000 
    114 N         -6.9016  -18.9255  -50.8935 N.am      21 UNK        -0.5000 
    115 CA        -6.1961  -17.7670  -51.4402 C.3       21 UNK         0.1400 
    116 CB        -7.1332  -17.0074  -52.3935 C.3       21 UNK        -0.1800 
    117 C         -4.9139  -18.2300  -52.1541 C.2       21 UNK         0.5000 
    118 O         -5.0083  -18.8612  -53.2077 O.2       21 UNK        -0.5000 
    119 N         -3.7612  -17.9660  -51.5248 N.am      22 UNK        -0.5000 
    120 CA        -2.4438  -18.5307  -51.8735 C.3       22 UNK         0.1400 
    121 C         -2.3322  -20.0640  -51.6166 C.2       22 UNK         0.5000 
    122 N         -3.1423  -20.6400  -50.7384 N.am      22 UNK        -0.7600 
    123 O         -1.4780  -20.7384  -52.1804 O.2       22 UNK        -0.5000 
    124 C124       -1.9315  -18.0928  -53.2749 C.3       23 UNK        -0.0398 
    125 S125       -1.5534  -16.3085  -53.3158 S.3       23 UNK        -0.2404 
    126 C126        0.2690  -16.3238  -53.3222 C.3       23 UNK        -0.0205 
    127 H127        7.2693  -16.0511  -45.4751 H         1 UNK         0.0600 
    128 H128        7.3404  -16.2265  -43.7189 H         1 UNK         0.0600 
    129 H129        6.7989  -17.5771  -44.7213 H         1 UNK         0.0600 
    130 H130        5.5050  -14.8677  -46.1488 H         1 UNK         0.3000 
    131 H131        2.8365  -15.4720  -45.3661 H         1 UNK         0.0600 
    132 H132        3.8754  -13.0869  -46.9813 H         1 UNK         0.0800 
    133 H133        2.2063  -13.5737  -46.8584 H         1 UNK         0.0800 
    134 H134        1.0769  -14.7172  -48.6228 H         1 UNK         0.0800 
    135 H135        1.3976  -16.1217  -47.6312 H         1 UNK         0.0800 
    136 H136        0.6558  -14.9979  -50.9736 H         1 UNK         0.1150 
    137 H137        1.1996  -18.8389  -52.7985 H         1 UNK         0.1150 
    138 H138        2.4984  -18.1723  -48.7738 H         1 UNK         0.1150 
    139 H139        1.8974  -20.7198  -51.4913 H         1 UNK         0.0800 
    140 H140        3.4457  -20.1178  -50.9489 H         1 UNK         0.0800 
    141 H141       -0.0568  -20.0523  -48.7065 H         1 UNK         0.0800 
    142 H142       -0.0488  -21.1872  -50.0363 H         1 UNK         0.0800 
    143 H143        0.2654  -23.0915  -48.4264 H         1 UNK         0.0600 
    144 H144        0.5443  -21.0056  -46.4664 H         1 UNK         0.3000 
    145 H145       -0.4251  -22.2000  -43.7639 H         1 UNK         0.0600 
    146 H146        1.5786  -23.0525  -42.5136 H         1 UNK         0.0600 
    147 H147        0.7255  -24.3202  -43.3788 H         1 UNK         0.0600 
    148 H148        2.2333  -23.6932  -44.0216 H         1 UNK         0.0600 
    149 H149        0.6028  -20.2754  -43.9500 H         1 UNK         0.3000 
    150 H150        3.7861  -19.1213  -44.2963 H         1 UNK         0.0600 
    151 H151        3.1247  -17.6413  -46.1773 H         1 UNK         0.0600 
    152 H152        1.7930  -18.7216  -46.5907 H         1 UNK         0.0600 
    153 H153        3.4618  -19.2539  -46.7744 H         1 UNK         0.0600 
    154 H154        1.1909  -17.8372  -44.4204 H         1 UNK         0.3000 
    155 H155        0.5825  -17.8655  -40.9216 H         1 UNK         0.0600 
    156 H156        0.3630  -15.4317  -41.3506 H         1 UNK         0.0600 
    157 H157        1.2759  -15.5918  -42.8507 H         1 UNK         0.0600 
    158 H158        2.0595  -15.8902  -41.3087 H         1 UNK         0.0600 
    159 H159       -0.7993  -16.8628  -43.2576 H         1 UNK         0.3000 
    160 H160       -2.7359  -19.7977  -43.8246 H         1 UNK         0.0600 
    161 H161       -3.6098  -17.1683  -42.5118 H         1 UNK         0.0600 
    162 H162       -3.9082  -18.7799  -41.8711 H         1 UNK         0.0600 
    163 H163       -4.6557  -18.2906  -43.3831 H         1 UNK         0.0600 
    164 H164       -2.8445  -17.1055  -44.8486 H         1 UNK         0.3000 
    165 H165       -0.4155  -17.4417  -47.3438 H         1 UNK         0.0600 
    166 H166       -3.4262  -17.5982  -47.8739 H         1 UNK         0.0600 
    167 H167       -2.1832  -17.0707  -49.0064 H         1 UNK         0.0600 
    168 H168       -2.2315  -18.7439  -48.4708 H         1 UNK         0.0600 
    169 H169       -2.5251  -15.5340  -46.9232 H         1 UNK         0.3000 
    170 H170       -2.3340  -13.6790  -45.8137 H         1 UNK         0.0600 
    171 H171       -2.4321  -14.6873  -43.5289 H         1 UNK         0.0600 
    172 H172       -0.8055  -14.0998  -43.1929 H         1 UNK         0.0600 
    173 H173       -2.1186  -12.9594  -43.4602 H         1 UNK         0.0600 
    174 H174        0.4284  -12.9150  -44.9636 H         1 UNK         0.3000 
    175 H175        1.4895  -11.3811  -47.0581 H         1 UNK         0.0600 
    176 H176        1.0954   -8.9542  -47.4724 H         1 UNK         0.0600 
    177 H177        0.0508   -9.9614  -48.4592 H         1 UNK         0.0600 
    178 H178       -0.6030   -9.1508  -47.0423 H         1 UNK         0.0600 
    179 H179        2.1055  -10.6124  -45.0702 H         1 UNK         0.3000 
    180 H180        1.7746   -8.6513  -43.1956 H         1 UNK         0.0600 
    181 H181        0.8207   -8.9228  -40.9094 H         1 UNK         0.0600 
    182 H182       -0.3944   -8.3570  -42.0413 H         1 UNK         0.0600 
    183 H183       -0.3891  -10.0433  -41.5352 H         1 UNK         0.0600 
    184 H184        1.7199  -11.2714  -41.8803 H         1 UNK         0.3000 
    185 H185        5.0609  -11.8039  -42.2940 H         1 UNK         0.0600 
    186 H186        4.0247  -13.6093  -40.9544 H         1 UNK         0.0600 
    187 H187        3.3732  -12.0553  -40.4687 H         1 UNK         0.0600 
    188 H188        2.4145  -13.1401  -41.4750 H         1 UNK         0.0600 
    189 H189        5.1137  -13.3717  -43.8792 H         1 UNK         0.3000 
    190 H190       -1.9992  -21.0057  -46.6753 H         1 UNK         0.3000 
    191 H191       -4.3215  -21.6946  -48.2550 H         1 UNK         0.0600 
    192 H192       -5.5819  -20.6164  -46.4286 H         1 UNK         0.0600 
    193 H193       -4.1941  -19.6261  -46.8320 H         1 UNK         0.0600 
    194 H194       -4.1706  -20.6311  -45.3831 H         1 UNK         0.0600 
    195 H195       -2.7479  -23.0835  -45.3999 H         1 UNK         0.3000 
    196 H196       -4.8603  -24.9493  -44.7372 H         1 UNK         0.0600 
    197 H197       -3.1698  -25.8641  -43.1625 H         1 UNK         0.0600 
    198 H198       -3.2597  -24.1154  -43.0243 H         1 UNK         0.0600 
    199 H199       -1.9147  -24.8663  -43.8818 H         1 UNK         0.0600 
    200 H200       -1.7469  -25.1246  -46.5055 H         1 UNK         0.3000 
    201 H201       -1.9883  -27.8754  -47.3083 H         1 UNK         0.0600 
    202 H202        0.1785  -26.6379  -47.2256 H         1 UNK         0.0600 
    203 H203       -0.3736  -25.5534  -48.5008 H         1 UNK         0.0600 
    204 H204       -0.1173  -27.2602  -48.8428 H         1 UNK         0.0600 
    205 H205       -3.2980  -24.8959  -48.5296 H         1 UNK         0.3000 
    206 H206       -4.5120  -24.1996  -50.2124 H         1 UNK         0.0600 
    207 H207       -6.1340  -25.9963  -49.6192 H         1 UNK         0.0600 
    208 H208       -6.1312  -25.6826  -51.3478 H         1 UNK         0.0600 
    209 H209       -5.3239  -27.1129  -50.7183 H         1 UNK         0.0600 
    210 H210       -1.9840  -24.1206  -50.6611 H         1 UNK         0.3000 
    211 H211       -0.7828  -25.7612  -52.5605 H         1 UNK         0.0600 
    212 H212       -0.0631  -22.8913  -51.7800 H         1 UNK         0.0600 
    213 H213        1.0089  -24.0214  -52.5932 H         1 UNK         0.0600 
    214 H214        0.4636  -24.3564  -50.9567 H         1 UNK         0.0600 
    215 H215       -2.6307  -22.8020  -53.1659 H         1 UNK         0.3000 
    216 H216       -2.0927  -22.8594  -56.0709 H         1 UNK         0.0600 
    217 H217       -3.4042  -20.7426  -56.0368 H         1 UNK         0.0600 
    218 H218       -2.1047  -20.6966  -54.8618 H         1 UNK         0.0600 
    219 H219       -3.7632  -20.9782  -54.3297 H         1 UNK         0.0600 
    220 H220       -3.8751  -24.8765  -54.3431 H         1 UNK         0.3000 
    221 H221       -5.6427  -26.1487  -54.5592 H         1 UNK         0.0600 
    222 H222       -6.1709  -25.0137  -57.3521 H         1 UNK         0.0600 
    223 H223       -5.0677  -26.3447  -57.0007 H         1 UNK         0.0600 
    224 H224       -6.7857  -26.5147  -56.6814 H         1 UNK         0.0600 
    225 H225       -5.7384  -23.4993  -53.3802 H         1 UNK         0.3000 
    226 H226       -8.5174  -23.2896  -52.7535 H         1 UNK         0.0600 
    227 H227       -8.7157  -20.8720  -53.4495 H         1 UNK         0.0600 
    228 H228       -7.1326  -20.9486  -54.2142 H         1 UNK         0.0600 
    229 H229       -8.4784  -21.8840  -54.8625 H         1 UNK         0.0600 
    230 H230       -8.7196  -21.5629  -51.0120 H         1 UNK         0.3000 
    231 H231       -6.5495  -21.7006  -49.1239 H         1 UNK         0.0600 
    232 H232       -8.0348  -20.2576  -47.7371 H         1 UNK         0.0600 
    233 H233       -8.9108  -21.6326  -48.3898 H         1 UNK         0.0600 
    234 H234       -9.1207  -20.0329  -49.1037 H         1 UNK         0.0600 
    235 H235       -7.7345  -19.2153  -51.3825 H         1 UNK         0.3000 
    236 H236       -5.9319  -17.0995  -50.6172 H         1 UNK         0.0600 
    237 H237       -7.4680  -17.6364  -53.2195 H         1 UNK         0.0600 
    238 H238       -8.0173  -16.6436  -51.8699 H         1 UNK         0.0600 
    239 H239       -6.6299  -16.1408  -52.8238 H         1 UNK         0.0600 
    240 H240       -3.7991  -17.4659  -50.6494 H         1 UNK         0.3000 
    241 H241       -1.7484  -18.1135  -51.1452 H         1 UNK         0.0600 
    242 H242       -3.0483  -21.6259  -50.5518 H         1 UNK         0.3800 
    243 H243       -3.8690  -20.1104  -50.2686 H         1 UNK         0.3800 
    244 H244       -2.6626  -18.3143  -54.0517 H         1 UNK         0.0800 
    245 H245       -1.0361  -18.6438  -53.5614 H         1 UNK         0.0800 
    246 H246        0.6249  -16.9052  -54.1743 H         1 UNK         0.0800 
    247 H247        0.6255  -15.3056  -53.4852 H         1 UNK         0.0800 
@<TRIPOS>BOND
     1    1    2 1    
     2    1  127 1    
     3    1  128 1    
     4    1  129 1    
     5    2    3 2    
     6    2    4 am   BACKBONE|DICT|INTERRES
     7    4    5 1    
     8    4  130 1    
     9    5    6 1    
    10    5   65 1    
    11    5  131 1    
    12    6    7 1    
    13    6  132 1    
    14    6  133 1    
    15    7    8 1    
    16    8    9 1    
    17    8  134 1    
    18    8  135 1    
    19    9   10 ar   
    20    9   14 ar   
    21   10   11 ar   
    22   10  136 1    
    23   11   12 ar   
    24   11  126 1    
    25   12   13 ar   
    26   12  137 1    
    27   13   14 ar   
    28   13   15 1    
    29   14  138 1    
    30   15   16 1    
    31   15  139 1    
    32   15  140 1    
    33   16   17 1    
    34   17   18 1    
    35   17  141 1    
    36   17  142 1    
    37   18   19 1    
    38   18   67 1    
    39   18  143 1    
    40   19   20 am   BACKBONE|DICT|INTERRES
    41   19  144 1    
    42   20   21 2    
    43   20   22 1    
    44   22   23 1    
    45   22   24 1    
    46   22  145 1    
    47   23  146 1    
    48   23  147 1    
    49   23  148 1    
    50   24   25 am   BACKBONE|DICT|INTERRES
    51   24  149 1    
    52   25   26 2    
    53   25   27 1    
    54   27   28 1    
    55   27   29 1    
    56   27  150 1    
    57   28  151 1    
    58   28  152 1    
    59   28  153 1    
    60   29   30 am   BACKBONE|DICT|INTERRES
    61   29  154 1    
    62   30   31 2    
    63   30   32 1    
    64   32   33 1    
    65   32   34 1    
    66   32  155 1    
    67   33  156 1    
    68   33  157 1    
    69   33  158 1    
    70   34   35 am   BACKBONE|DICT|INTERRES
    71   34  159 1    
    72   35   36 2    
    73   35   37 1    
    74   37   38 1    
    75   37   39 1    
    76   37  160 1    
    77   38  161 1    
    78   38  162 1    
    79   38  163 1    
    80   39   40 am   BACKBONE|DICT|INTERRES
    81   39  164 1    
    82   40   41 2    
    83   40   42 1    
    84   42   43 1    
    85   42   44 1    
    86   42  165 1    
    87   43  166 1    
    88   43  167 1    
    89   43  168 1    
    90   44   45 am   BACKBONE|DICT|INTERRES
    91   44  169 1    
    92   45   46 2    
    93   45   47 1    
    94   47   48 1    
    95   47   49 1    
    96   47  170 1    
    97   48  171 1    
    98   48  172 1    
    99   48  173 1    
   100   49   50 am   BACKBONE|DICT|INTERRES
   101   49  174 1    
   102   50   51 2    
   103   50   52 1    
   104   52   53 1    
   105   52   54 1    
   106   52  175 1    
   107   53  176 1    
   108   53  177 1    
   109   53  178 1    
   110   54   55 am   BACKBONE|DICT|INTERRES
   111   54  179 1    
   112   55   56 2    
   113   55   57 1    
   114   57   58 1    
   115   57   59 1    
   116   57  180 1    
   117   58  181 1    
   118   58  182 1    
   119   58  183 1    
   120   59   60 am   BACKBONE|DICT|INTERRES
   121   59  184 1    
   122   60   61 2    
   123   60   62 1    
   124   62   63 1    
   125   62   64 1    
   126   62  185 1    
   127   63  186 1    
   128   63  187 1    
   129   63  188 1    
   130   64   65 am   BACKBONE|DICT|INTERRES
   131   64  189 1    
   132   65   66 2    
   133   67   68 2    
   134   67   69 am   BACKBONE|DICT|INTERRES
   135   69   70 1    
   136   69  190 1    
   137   70   71 1    
   138   70   72 1    
   139   70  191 1    
   140   71  192 1    
   141   71  193 1    
   142   71  194 1    
   143   72   73 2    
   144   72   74 am   BACKBONE|DICT|INTERRES
   145   74   75 1    
   146   74  195 1    
   147   75   76 1    
   148   75   77 1    
   149   75  196 1    
   150   76  197 1    
   151   76  198 1    
   152   76  199 1    
   153   77   78 2    
   154   77   79 am   BACKBONE|DICT|INTERRES
   155   79   80 1    
   156   79  200 1    
   157   80   81 1    
   158   80   82 1    
   159   80  201 1    
   160   81  202 1    
   161   81  203 1    
   162   81  204 1    
   163   82   83 2    
   164   82   84 am   BACKBONE|DICT|INTERRES
   165   84   85 1    
   166   84  205 1    
   167   85   86 1    
   168   85   87 1    
   169   85  206 1    
   170   86  207 1    
   171   86  208 1    
   172   86  209 1    
   173   87   88 2    
   174   87   89 am   BACKBONE|DICT|INTERRES
   175   89   90 1    
   176   89  210 1    
   177   90   91 1    
   178   90   92 1    
   179   90  211 1    
   180   91  212 1    
   181   91  213 1    
   182   91  214 1    
   183   92   93 2    
   184   92   94 am   BACKBONE|DICT|INTERRES
   185   94   95 1    
   186   94  215 1    
   187   95   96 1    
   188   95   97 1    
   189   95  216 1    
   190   96  217 1    
   191   96  218 1    
   192   96  219 1    
   193   97   98 2    
   194   97   99 am   BACKBONE|DICT|INTERRES
   195   99  100 1    
   196   99  220 1    
   197  100  101 1    
   198  100  102 1    
   199  100  221 1    
   200  101  222 1    
   201  101  223 1    
   202  101  224 1    
   203  102  103 2    
   204  102  104 am   BACKBONE|DICT|INTERRES
   205  104  105 1    
   206  104  225 1    
   207  105  106 1    
   208  105  107 1    
   209  105  226 1    
   210  106  227 1    
   211  106  228 1    
   212  106  229 1    
   213  107  108 2    
   214  107  109 am   BACKBONE|DICT|INTERRES
   215  109  110 1    
   216  109  230 1    
   217  110  111 1    
   218  110  112 1    
   219  110  231 1    
   220  111  232 1    
   221  111  233 1    
   222  111  234 1    
   223  112  113 2    
   224  112  114 am   BACKBONE|DICT|INTERRES
   225  114  115 1    
   226  114  235 1    
   227  115  116 1    
   228  115  117 1    
   229  115  236 1    
   230  116  237 1    
   231  116  238 1    
   232  116  239 1    
   233  117  118 2    
   234  117  119 am   BACKBONE|DICT|INTERRES
   235  119  120 1    
   236  119  240 1    
   237  120  121 1    
   238  120  124 1    
   239  120  241 1    
   240  121  122 am   BACKBONE|DICT|INTERRES
   241  121  123 2    
   242  122  242 1    
   243  122  243 1    
   244  124  125 1    
   245  124  244 1    
   246  124  245 1    
   247  125  126 1    
   248  126  246 1    
   249  126  247 1    
@<TRIPOS>SUBSTRUCTURE
     1 UNK         1 GROUP             0       ****    0 ROOT    
