@<TRIPOS>MOLECULE
3R540
247   249    1
SMALL
USER_CHARGES


@<TRIPOS>ATOM
      1 CA         -0.8471  -14.7789  -51.7980 C.3       0 UNK        -0.1800 
      2 C          -0.0879  -14.5885  -50.4951 C.2       0 UNK         0.5000 
      3 O          -0.5421  -13.8450  -49.6255 O.2       0 UNK        -0.5000 
      4 N           1.0649  -15.2579  -50.3505 N.am      1 UNK        -0.5000 
      5 CA          1.9787  -15.1325  -49.2028 C.3       1 UNK         0.1400 
      6 C6          3.3353  -15.8579  -49.4063 C.3       23 UNK        -0.0398 
      7 S7          4.0230  -15.6756  -51.0960 S.3       23 UNK        -0.2404 
      8 C8          4.7174  -17.3262  -51.4659 C.3       23 UNK        -0.0205 
      9 C9          3.7820  -18.4719  -51.1018 C.ar      23 UNK        -0.0193 
     10 C10         2.5648  -18.6408  -51.7673 C.ar      23 UNK        -0.1150 
     11 C11         1.6754  -19.6480  -51.3769 C.ar      23 UNK        -0.0193 
     12 C12         2.0245  -20.5056  -50.3285 C.ar      23 UNK        -0.1150 
     13 C13         3.2513  -20.3606  -49.6723 C.ar      23 UNK        -0.0193 
     14 C14         4.1247  -19.3449  -50.0658 C.ar      23 UNK        -0.1150 
     15 C15         3.6476  -21.3008  -48.5436 C.3       23 UNK        -0.0205 
     16 S16         3.5052  -20.5172  -46.9033 S.3       23 UNK        -0.2404 
     17 C17         1.6966  -20.3870  -46.7218 C.3       23 UNK        -0.0398 
     18 CA          1.0684  -21.7070  -46.2190 C.3       11 UNK         0.1400 
     19 N           1.5150  -22.0726  -44.8749 N.am      11 UNK        -0.5000 
     20 C           1.4529  -23.3112  -44.3687 C.2       10 UNK         0.5000 
     21 O           0.8395  -24.2325  -44.9092 O.2       10 UNK        -0.5000 
     22 CA          2.2066  -23.5650  -43.0532 C.3       10 UNK         0.1400 
     23 CB          3.7143  -23.7025  -43.3171 C.3       10 UNK        -0.1800 
     24 N           1.9823  -22.4769  -42.1042 N.am      10 UNK        -0.5000 
     25 C           1.4093  -22.6170  -40.9015 C.2       9 UNK         0.5000 
     26 O           1.1243  -23.7053  -40.3995 O.2       9 UNK        -0.5000 
     27 CA          1.0670  -21.3243  -40.1282 C.3       9 UNK         0.1400 
     28 CB          2.1794  -20.9908  -39.1224 C.3       9 UNK        -0.1800 
     29 N           0.8335  -20.1493  -40.9717 N.am      9 UNK        -0.5000 
     30 C          -0.0393  -20.0641  -41.9856 C.2       8 UNK         0.5000 
     31 O          -0.7881  -20.9766  -42.3299 O.2       8 UNK        -0.5000 
     32 CA         -0.0315  -18.7576  -42.7959 C.3       8 UNK         0.1400 
     33 CB         -1.0211  -17.7685  -42.1634 C.3       8 UNK        -0.1800 
     34 N           1.2827  -18.1160  -42.9244 N.am      8 UNK        -0.5000 
     35 C           2.4373  -18.6910  -43.3000 C.2       7 UNK         0.5000 
     36 O           2.5711  -19.8964  -43.5127 O.2       7 UNK        -0.5000 
     37 CA          3.6540  -17.7649  -43.4382 C.3       7 UNK         0.1400 
     38 CB          3.6219  -17.0311  -44.7862 C.3       7 UNK        -0.1800 
     39 N           3.6962  -16.7875  -42.3529 N.am      7 UNK        -0.5000 
     40 C           4.2337  -17.0202  -41.1478 C.2       6 UNK         0.5000 
     41 O           4.8065  -18.0670  -40.8440 O.2       6 UNK        -0.5000 
     42 CA          4.1039  -15.8983  -40.0994 C.3       6 UNK         0.1400 
     43 CB          5.3109  -14.9507  -40.1732 C.3       6 UNK        -0.1800 
     44 N           2.8740  -15.1183  -40.2449 N.am      6 UNK        -0.5000 
     45 C           1.6438  -15.5855  -39.9915 C.2       5 UNK         0.5000 
     46 O           1.4155  -16.7181  -39.5653 O.2       5 UNK        -0.5000 
     47 CA          0.4684  -14.6348  -40.2942 C.3       5 UNK         0.1400 
     48 CB          0.1159  -13.8065  -39.0496 C.3       5 UNK        -0.1800 
     49 N           0.6916  -13.7286  -41.4278 N.am      5 UNK        -0.5000 
     50 C           0.9462  -14.1165  -42.6842 C.2       4 UNK         0.5000 
     51 O           1.1338  -15.2888  -43.0130 O.2       4 UNK        -0.5000 
     52 CA          1.0340  -13.0161  -43.7515 C.3       4 UNK         0.1400 
     53 CB          2.4707  -12.8898  -44.2816 C.3       4 UNK        -0.1800 
     54 N           0.1325  -13.3355  -44.8561 N.am      4 UNK        -0.5000 
     55 C          -1.1888  -13.1010  -44.8392 C.2       3 UNK         0.5000 
     56 O          -1.7575  -12.4991  -43.9270 O.2       3 UNK        -0.5000 
     57 CA         -2.0263  -13.6181  -46.0284 C.3       3 UNK         0.1400 
     58 CB         -2.2447  -12.4984  -47.0568 C.3       3 UNK        -0.1800 
     59 N          -1.4244  -14.7712  -46.6971 N.am      3 UNK        -0.5000 
     60 C          -1.3170  -15.9917  -46.1513 C.2       2 UNK         0.5000 
     61 O          -1.8624  -16.3051  -45.0947 O.2       2 UNK        -0.5000 
     62 CA         -0.4597  -17.0443  -46.8873 C.3       2 UNK         0.1400 
     63 CB         -1.3518  -18.1628  -47.4505 C.3       2 UNK        -0.1800 
     64 N           0.3633  -16.5164  -47.9775 N.am      2 UNK        -0.5000 
     65 C           1.3289  -15.5895  -47.8796 C.2       1 UNK         0.5000 
     66 O           1.6694  -15.0643  -46.8211 O.2       1 UNK        -0.5000 
     67 C          -0.4576  -21.6850  -46.3972 C.2       11 UNK         0.5000 
     68 O          -0.8977  -21.7828  -47.5406 O.2       11 UNK        -0.5000 
     69 N          -1.2516  -21.5993  -45.3181 N.am      12 UNK        -0.5000 
     70 CA         -2.7157  -21.6650  -45.4126 C.3       12 UNK         0.1400 
     71 CB         -3.3575  -21.3057  -44.0661 C.3       12 UNK        -0.1800 
     72 C          -3.2174  -23.0356  -45.9060 C.2       12 UNK         0.5000 
     73 O          -4.1959  -23.0903  -46.6502 O.2       12 UNK        -0.5000 
     74 N          -2.5093  -24.1103  -45.5294 N.am      13 UNK        -0.5000 
     75 CA         -2.7739  -25.4723  -45.9945 C.3       13 UNK         0.1400 
     76 CB         -2.0313  -26.4697  -45.0928 C.3       13 UNK        -0.1800 
     77 C          -2.3822  -25.6763  -47.4702 C.2       13 UNK         0.5000 
     78 O          -3.0488  -26.4356  -48.1736 O.2       13 UNK        -0.5000 
     79 N          -1.3198  -24.9883  -47.9120 N.am      14 UNK        -0.5000 
     80 CA         -0.8492  -24.9914  -49.2968 C.3       14 UNK         0.1400 
     81 CB          0.5984  -24.4761  -49.3484 C.3       14 UNK        -0.1800 
     82 C          -1.7606  -24.1569  -50.2139 C.2       14 UNK         0.5000 
     83 O          -2.0881  -24.6010  -51.3146 O.2       14 UNK        -0.5000 
     84 N          -2.1526  -22.9666  -49.7397 N.am      15 UNK        -0.5000 
     85 CA         -3.0303  -22.0322  -50.4388 C.3       15 UNK         0.1400 
     86 CB         -2.9727  -20.6668  -49.7363 C.3       15 UNK        -0.1800 
     87 C          -4.4809  -22.5322  -50.5380 C.2       15 UNK         0.5000 
     88 O          -5.1118  -22.3317  -51.5769 O.2       15 UNK        -0.5000 
     89 N          -4.9792  -23.1670  -49.4656 N.am      16 UNK        -0.5000 
     90 CA         -6.3304  -23.7093  -49.3019 C.3       16 UNK         0.1400 
     91 CB         -6.5377  -24.9355  -50.2187 C.3       16 UNK        -0.1800 
     92 C          -7.4003  -22.6100  -49.4663 C.2       16 UNK         0.5000 
     93 O          -7.5761  -21.7992  -48.5562 O.2       16 UNK        -0.5000 
     94 N          -8.0685  -22.5774  -50.6274 N.am      17 UNK        -0.5000 
     95 CA         -9.0214  -21.5365  -51.0229 C.3       17 UNK         0.1400 
     96 CB         -9.8261  -22.0415  -52.2308 C.3       17 UNK        -0.1800 
     97 C          -8.3548  -20.1844  -51.3554 C.2       17 UNK         0.5000 
     98 O          -9.0517  -19.1709  -51.4211 O.2       17 UNK        -0.5000 
     99 N          -7.0335  -20.1963  -51.5873 N.am      18 UNK        -0.5000 
    100 CA        -6.1316  -19.0906  -51.9240 C.3       18 UNK         0.1400 
    101 CB        -6.1236  -17.9939  -50.8446 C.3       18 UNK        -0.1800 
    102 C         -6.3544  -18.5133  -53.3293 C.2       18 UNK         0.5000 
    103 O         -5.4014  -18.4340  -54.1026 O.2       18 UNK        -0.5000 
    104 N         -7.6028  -18.1807  -53.6730 N.am      19 UNK        -0.5000 
    105 CA        -8.0118  -17.6749  -54.9879 C.3       19 UNK         0.1400 
    106 CB        -9.4831  -17.2397  -54.9101 C.3       19 UNK        -0.1800 
    107 C         -7.8072  -18.6846  -56.1383 C.2       19 UNK         0.5000 
    108 O         -7.7787  -18.2842  -57.3023 O.2       19 UNK        -0.5000 
    109 N         -7.6709  -19.9709  -55.7908 N.am      20 UNK        -0.5000 
    110 CA        -7.4688  -21.0840  -56.7126 C.3       20 UNK         0.1400 
    111 CB        -7.7532  -22.3952  -55.9625 C.3       20 UNK        -0.1800 
    112 C         -6.0693  -21.1313  -57.3577 C.2       20 UNK         0.5000 
    113 O         -5.9455  -21.7127  -58.4370 O.2       20 UNK        -0.5000 
    114 N         -5.0440  -20.5553  -56.7088 N.am      21 UNK        -0.5000 
    115 CA        -3.6571  -20.6187  -57.1864 C.3       21 UNK         0.1400 
    116 CB        -3.0741  -22.0326  -56.9820 C.3       21 UNK        -0.1800 
    117 C         -2.7392  -19.5766  -56.5311 C.2       21 UNK         0.5000 
    118 O         -1.9336  -18.9631  -57.2322 O.2       21 UNK        -0.5000 
    119 N         -2.8427  -19.4220  -55.2051 N.am      22 UNK        -0.5000 
    120 CA        -2.0042  -18.5180  -54.3988 C.3       22 UNK         0.1400 
    121 C         -2.2217  -17.0108  -54.7168 C.2       22 UNK         0.5000 
    122 N         -3.4614  -16.5644  -54.8653 N.am      22 UNK        -0.7600 
    123 O         -1.2654  -16.2547  -54.8586 O.2       22 UNK        -0.5000 
    124 C124       -2.1642  -18.8263  -52.8856 C.3       23 UNK        -0.0398 
    125 S125       -0.7212  -18.3537  -51.8768 S.3       23 UNK        -0.2404 
    126 C126        0.3445  -19.8131  -52.0954 C.3       23 UNK        -0.0205 
    127 H127       -1.1042  -13.8124  -52.2309 H         1 UNK         0.0600 
    128 H128       -0.2524  -15.3278  -52.5279 H         1 UNK         0.0600 
    129 H129       -1.7694  -15.3320  -51.6209 H         1 UNK         0.0600 
    130 H130        1.3930  -15.8525  -51.0988 H         1 UNK         0.3000 
    131 H131        2.1928  -14.0669  -49.0969 H         1 UNK         0.0600 
    132 H132        3.2316  -16.9124  -49.1564 H         1 UNK         0.0800 
    133 H133        4.0706  -15.4675  -48.7008 H         1 UNK         0.0800 
    134 H134        4.9516  -17.3806  -52.5298 H         1 UNK         0.0800 
    135 H135        5.6684  -17.4265  -50.9405 H         1 UNK         0.0800 
    136 H136        2.2963  -17.9702  -52.5716 H         1 UNK         0.1150 
    137 H137        1.3418  -21.2862  -50.0238 H         1 UNK         0.1150 
    138 H138        5.0650  -19.2234  -49.5462 H         1 UNK         0.1150 
    139 H139        3.0517  -22.2137  -48.5735 H         1 UNK         0.0800 
    140 H140        4.6822  -21.6148  -48.6892 H         1 UNK         0.0800 
    141 H141        1.2777  -20.0866  -47.6822 H         1 UNK         0.0800 
    142 H142        1.4743  -19.5720  -46.0332 H         1 UNK         0.0800 
    143 H143        1.4157  -22.4996  -46.8841 H         1 UNK         0.0600 
    144 H144        2.0272  -21.3489  -44.3746 H         1 UNK         0.3000 
    145 H145        1.8436  -24.5132  -42.6514 H         1 UNK         0.0600 
    146 H146        4.2516  -23.9473  -42.4008 H         1 UNK         0.0600 
    147 H147        3.9149  -24.4987  -44.0352 H         1 UNK         0.0600 
    148 H148        4.1400  -22.7815  -43.7182 H         1 UNK         0.0600 
    149 H149        2.1724  -21.5379  -42.4383 H         1 UNK         0.3000 
    150 H150        0.1458  -21.5131  -39.5738 H         1 UNK         0.0600 
    151 H151        2.3694  -21.8316  -38.4541 H         1 UNK         0.0600 
    152 H152        1.9071  -20.1375  -38.5007 H         1 UNK         0.0600 
    153 H153        3.1169  -20.7522  -39.6269 H         1 UNK         0.0600 
    154 H154        1.4039  -19.3380  -40.7783 H         1 UNK         0.3000 
    155 H155       -0.3730  -18.9882  -43.8068 H         1 UNK         0.0600 
    156 H156       -0.7703  -17.5632  -41.1227 H         1 UNK         0.0600 
    157 H157       -2.0360  -18.1677  -42.1833 H         1 UNK         0.0600 
    158 H158       -1.0376  -16.8183  -42.6945 H         1 UNK         0.0600 
    159 H159        1.2789  -17.1034  -42.8204 H         1 UNK         0.3000 
    160 H160        4.5549  -18.3817  -43.4113 H         1 UNK         0.0600 
    161 H161        4.4976  -16.3945  -44.9119 H         1 UNK         0.0600 
    162 H162        2.7366  -16.4031  -44.8763 H         1 UNK         0.0600 
    163 H163        3.6087  -17.7355  -45.6183 H         1 UNK         0.0600 
    164 H164        3.1827  -15.9289  -42.5009 H         1 UNK         0.3000 
    165 H165        4.0966  -16.3662  -39.1126 H         1 UNK         0.0600 
    166 H166        5.2684  -14.1955  -39.3881 H         1 UNK         0.0600 
    167 H167        6.2455  -15.4986  -40.0451 H         1 UNK         0.0600 
    168 H168        5.3612  -14.4358  -41.1335 H         1 UNK         0.0600 
    169 H169        2.9678  -14.1738  -40.5880 H         1 UNK         0.3000 
    170 H170       -0.3953  -15.2544  -40.5411 H         1 UNK         0.0600 
    171 H171       -0.0812  -14.4524  -38.1928 H         1 UNK         0.0600 
    172 H172        0.9265  -13.1315  -38.7725 H         1 UNK         0.0600 
    173 H173       -0.7798  -13.2073  -39.2145 H         1 UNK         0.0600 
    174 H174        0.5605  -12.7447  -41.2413 H         1 UNK         0.3000 
    175 H175        0.7464  -12.0573  -43.3149 H         1 UNK         0.0600 
    176 H176        2.8300  -13.8267  -44.7090 H         1 UNK         0.0600 
    177 H177        2.5397  -12.1235  -45.0537 H         1 UNK         0.0600 
    178 H178        3.1580  -12.6105  -43.4823 H         1 UNK         0.0600 
    179 H179        0.5279  -13.8959  -45.6043 H         1 UNK         0.3000 
    180 H180       -3.0016  -13.9193  -45.6405 H         1 UNK         0.0600 
    181 H181       -1.3005  -12.1523  -47.4792 H         1 UNK         0.0600 
    182 H182       -2.7360  -11.6382  -46.6004 H         1 UNK         0.0600 
    183 H183       -2.8757  -12.8352  -47.8796 H         1 UNK         0.0600 
    184 H184       -0.9775  -14.5919  -47.5886 H         1 UNK         0.3000 
    185 H185        0.2162  -17.4759  -46.1468 H         1 UNK         0.0600 
    186 H186       -1.9109  -18.6569  -46.6550 H         1 UNK         0.0600 
    187 H187       -2.0753  -17.7750  -48.1688 H         1 UNK         0.0600 
    188 H188       -0.7640  -18.9276  -47.9563 H         1 UNK         0.0600 
    189 H189        0.1426  -16.8550  -48.9033 H         1 UNK         0.3000 
    190 H190       -0.8509  -21.5398  -44.3888 H         1 UNK         0.3000 
    191 H191       -3.0377  -20.9187  -46.1420 H         1 UNK         0.0600 
    192 H192       -3.0765  -22.0125  -43.2846 H         1 UNK         0.0600 
    193 H193       -4.4458  -21.3142  -44.1388 H         1 UNK         0.0600 
    194 H194       -3.0630  -20.3072  -43.7429 H         1 UNK         0.0600 
    195 H195       -1.6968  -23.9787  -44.9426 H         1 UNK         0.3000 
    196 H196       -3.8453  -25.6646  -45.9042 H         1 UNK         0.0600 
    197 H197       -0.9510  -26.3277  -45.1375 H         1 UNK         0.0600 
    198 H198       -2.2396  -27.4971  -45.3942 H         1 UNK         0.0600 
    199 H199       -2.3406  -26.3675  -44.0525 H         1 UNK         0.0600 
    200 H200       -0.8370  -24.3828  -47.2650 H         1 UNK         0.3000 
    201 H201       -0.8541  -26.0207  -49.6619 H         1 UNK         0.0600 
    202 H202        1.2550  -25.0777  -48.7197 H         1 UNK         0.0600 
    203 H203        0.6727  -23.4410  -49.0170 H         1 UNK         0.0600 
    204 H204        0.9904  -24.5208  -50.3652 H         1 UNK         0.0600 
    205 H205       -1.7816  -22.6479  -48.8467 H         1 UNK         0.3000 
    206 H206       -2.6508  -21.9118  -51.4550 H         1 UNK         0.0600 
    207 H207       -1.9545  -20.2784  -49.7201 H         1 UNK         0.0600 
    208 H208       -3.5909  -19.9288  -50.2454 H         1 UNK         0.0600 
    209 H209       -3.3204  -20.7299  -48.7046 H         1 UNK         0.0600 
    210 H210       -4.4082  -23.2101  -48.6272 H         1 UNK         0.3000 
    211 H211       -6.4013  -24.0557  -48.2697 H         1 UNK         0.0600 
    212 H212       -6.4127  -24.6961  -51.2750 H         1 UNK         0.0600 
    213 H213       -7.5345  -25.3587  -50.0882 H         1 UNK         0.0600 
    214 H214       -5.8215  -25.7210  -49.9763 H         1 UNK         0.0600 
    215 H215       -7.8404  -23.2700  -51.3262 H         1 UNK         0.3000 
    216 H216       -9.7123  -21.3665  -50.1946 H         1 UNK         0.0600 
    217 H217      -10.5675  -21.3053  -52.5447 H         1 UNK         0.0600 
    218 H218      -10.3639  -22.9589  -51.9909 H         1 UNK         0.0600 
    219 H219       -9.1817  -22.2440  -53.0868 H         1 UNK         0.0600 
    220 H220       -6.5686  -21.1000  -51.5464 H         1 UNK         0.3000 
    221 H221       -5.1367  -19.5346  -51.9386 H         1 UNK         0.0600 
    222 H222       -7.0824  -17.4798  -50.7739 H         1 UNK         0.0600 
    223 H223       -5.8934  -18.4109  -49.8640 H         1 UNK         0.0600 
    224 H224       -5.3660  -17.2404  -51.0635 H         1 UNK         0.0600 
    225 H225       -8.3307  -18.3134  -52.9760 H         1 UNK         0.3000 
    226 H226       -7.4033  -16.7971  -55.2142 H         1 UNK         0.0600 
    227 H227       -9.6260  -16.4663  -54.1552 H         1 UNK         0.0600 
    228 H228       -9.8223  -16.8297  -55.8623 H         1 UNK         0.0600 
    229 H229      -10.1360  -18.0771  -54.6605 H         1 UNK         0.0600 
    230 H230       -7.7111  -20.1976  -54.8090 H         1 UNK         0.3000 
    231 H231       -8.1970  -20.9906  -57.5211 H         1 UNK         0.0600 
    232 H232       -8.7776  -22.4223  -55.5908 H         1 UNK         0.0600 
    233 H233       -7.0818  -22.5276  -55.1129 H         1 UNK         0.0600 
    234 H234       -7.6261  -23.2576  -56.6185 H         1 UNK         0.0600 
    235 H235       -5.2257  -20.0151  -55.8729 H         1 UNK         0.3000 
    236 H236       -3.6564  -20.4001  -58.2567 H         1 UNK         0.0600 
    237 H237       -2.0254  -22.0715  -57.2800 H         1 UNK         0.0600 
    238 H238       -3.1304  -22.3421  -55.9377 H         1 UNK         0.0600 
    239 H239       -3.6012  -22.7765  -57.5789 H         1 UNK         0.0600 
    240 H240       -3.5495  -19.9367  -54.7032 H         1 UNK         0.3000 
    241 H241       -0.9727  -18.7464  -54.6742 H         1 UNK         0.0600 
    242 H242       -3.6253  -15.5963  -55.0880 H         1 UNK         0.3800 
    243 H243       -4.2436  -17.1992  -54.7200 H         1 UNK         0.3800 
    244 H244       -3.0466  -18.3298  -52.4794 H         1 UNK         0.0800 
    245 H245       -2.3327  -19.8925  -52.7343 H         1 UNK         0.0800 
    246 H246        0.5337  -19.9739  -53.1574 H         1 UNK         0.0800 
    247 H247       -0.1815  -20.6981  -51.7336 H         1 UNK         0.0800 
@<TRIPOS>BOND
     1    1    2 1    
     2    1  127 1    
     3    1  128 1    
     4    1  129 1    
     5    2    3 2    
     6    2    4 am   BACKBONE|DICT|INTERRES
     7    4    5 1    
     8    4  130 1    
     9    5    6 1    
    10    5   65 1    
    11    5  131 1    
    12    6    7 1    
    13    6  132 1    
    14    6  133 1    
    15    7    8 1    
    16    8    9 1    
    17    8  134 1    
    18    8  135 1    
    19    9   10 ar   
    20    9   14 ar   
    21   10   11 ar   
    22   10  136 1    
    23   11   12 ar   
    24   11  126 1    
    25   12   13 ar   
    26   12  137 1    
    27   13   14 ar   
    28   13   15 1    
    29   14  138 1    
    30   15   16 1    
    31   15  139 1    
    32   15  140 1    
    33   16   17 1    
    34   17   18 1    
    35   17  141 1    
    36   17  142 1    
    37   18   19 1    
    38   18   67 1    
    39   18  143 1    
    40   19   20 am   BACKBONE|DICT|INTERRES
    41   19  144 1    
    42   20   21 2    
    43   20   22 1    
    44   22   23 1    
    45   22   24 1    
    46   22  145 1    
    47   23  146 1    
    48   23  147 1    
    49   23  148 1    
    50   24   25 am   BACKBONE|DICT|INTERRES
    51   24  149 1    
    52   25   26 2    
    53   25   27 1    
    54   27   28 1    
    55   27   29 1    
    56   27  150 1    
    57   28  151 1    
    58   28  152 1    
    59   28  153 1    
    60   29   30 am   BACKBONE|DICT|INTERRES
    61   29  154 1    
    62   30   31 2    
    63   30   32 1    
    64   32   33 1    
    65   32   34 1    
    66   32  155 1    
    67   33  156 1    
    68   33  157 1    
    69   33  158 1    
    70   34   35 am   BACKBONE|DICT|INTERRES
    71   34  159 1    
    72   35   36 2    
    73   35   37 1    
    74   37   38 1    
    75   37   39 1    
    76   37  160 1    
    77   38  161 1    
    78   38  162 1    
    79   38  163 1    
    80   39   40 am   BACKBONE|DICT|INTERRES
    81   39  164 1    
    82   40   41 2    
    83   40   42 1    
    84   42   43 1    
    85   42   44 1    
    86   42  165 1    
    87   43  166 1    
    88   43  167 1    
    89   43  168 1    
    90   44   45 am   BACKBONE|DICT|INTERRES
    91   44  169 1    
    92   45   46 2    
    93   45   47 1    
    94   47   48 1    
    95   47   49 1    
    96   47  170 1    
    97   48  171 1    
    98   48  172 1    
    99   48  173 1    
   100   49   50 am   BACKBONE|DICT|INTERRES
   101   49  174 1    
   102   50   51 2    
   103   50   52 1    
   104   52   53 1    
   105   52   54 1    
   106   52  175 1    
   107   53  176 1    
   108   53  177 1    
   109   53  178 1    
   110   54   55 am   BACKBONE|DICT|INTERRES
   111   54  179 1    
   112   55   56 2    
   113   55   57 1    
   114   57   58 1    
   115   57   59 1    
   116   57  180 1    
   117   58  181 1    
   118   58  182 1    
   119   58  183 1    
   120   59   60 am   BACKBONE|DICT|INTERRES
   121   59  184 1    
   122   60   61 2    
   123   60   62 1    
   124   62   63 1    
   125   62   64 1    
   126   62  185 1    
   127   63  186 1    
   128   63  187 1    
   129   63  188 1    
   130   64   65 am   BACKBONE|DICT|INTERRES
   131   64  189 1    
   132   65   66 2    
   133   67   68 2    
   134   67   69 am   BACKBONE|DICT|INTERRES
   135   69   70 1    
   136   69  190 1    
   137   70   71 1    
   138   70   72 1    
   139   70  191 1    
   140   71  192 1    
   141   71  193 1    
   142   71  194 1    
   143   72   73 2    
   144   72   74 am   BACKBONE|DICT|INTERRES
   145   74   75 1    
   146   74  195 1    
   147   75   76 1    
   148   75   77 1    
   149   75  196 1    
   150   76  197 1    
   151   76  198 1    
   152   76  199 1    
   153   77   78 2    
   154   77   79 am   BACKBONE|DICT|INTERRES
   155   79   80 1    
   156   79  200 1    
   157   80   81 1    
   158   80   82 1    
   159   80  201 1    
   160   81  202 1    
   161   81  203 1    
   162   81  204 1    
   163   82   83 2    
   164   82   84 am   BACKBONE|DICT|INTERRES
   165   84   85 1    
   166   84  205 1    
   167   85   86 1    
   168   85   87 1    
   169   85  206 1    
   170   86  207 1    
   171   86  208 1    
   172   86  209 1    
   173   87   88 2    
   174   87   89 am   BACKBONE|DICT|INTERRES
   175   89   90 1    
   176   89  210 1    
   177   90   91 1    
   178   90   92 1    
   179   90  211 1    
   180   91  212 1    
   181   91  213 1    
   182   91  214 1    
   183   92   93 2    
   184   92   94 am   BACKBONE|DICT|INTERRES
   185   94   95 1    
   186   94  215 1    
   187   95   96 1    
   188   95   97 1    
   189   95  216 1    
   190   96  217 1    
   191   96  218 1    
   192   96  219 1    
   193   97   98 2    
   194   97   99 am   BACKBONE|DICT|INTERRES
   195   99  100 1    
   196   99  220 1    
   197  100  101 1    
   198  100  102 1    
   199  100  221 1    
   200  101  222 1    
   201  101  223 1    
   202  101  224 1    
   203  102  103 2    
   204  102  104 am   BACKBONE|DICT|INTERRES
   205  104  105 1    
   206  104  225 1    
   207  105  106 1    
   208  105  107 1    
   209  105  226 1    
   210  106  227 1    
   211  106  228 1    
   212  106  229 1    
   213  107  108 2    
   214  107  109 am   BACKBONE|DICT|INTERRES
   215  109  110 1    
   216  109  230 1    
   217  110  111 1    
   218  110  112 1    
   219  110  231 1    
   220  111  232 1    
   221  111  233 1    
   222  111  234 1    
   223  112  113 2    
   224  112  114 am   BACKBONE|DICT|INTERRES
   225  114  115 1    
   226  114  235 1    
   227  115  116 1    
   228  115  117 1    
   229  115  236 1    
   230  116  237 1    
   231  116  238 1    
   232  116  239 1    
   233  117  118 2    
   234  117  119 am   BACKBONE|DICT|INTERRES
   235  119  120 1    
   236  119  240 1    
   237  120  121 1    
   238  120  124 1    
   239  120  241 1    
   240  121  122 am   BACKBONE|DICT|INTERRES
   241  121  123 2    
   242  122  242 1    
   243  122  243 1    
   244  124  125 1    
   245  124  244 1    
   246  124  245 1    
   247  125  126 1    
   248  126  246 1    
   249  126  247 1    
@<TRIPOS>SUBSTRUCTURE
     1 UNK         1 GROUP             0       ****    0 ROOT    
