@<TRIPOS>MOLECULE
3R540
247   249    1
SMALL
USER_CHARGES


@<TRIPOS>ATOM
      1 CA          0.4992  -13.8019  -52.4269 C.3       0 UNK        -0.1800 
      2 C           0.8421  -13.5262  -50.9694 C.2       0 UNK         0.5000 
      3 O           0.9968  -12.3701  -50.5781 O.2       0 UNK        -0.5000 
      4 N           0.9436  -14.5876  -50.1628 N.am      1 UNK        -0.5000 
      5 CA          1.2612  -14.5691  -48.7271 C.3       1 UNK         0.1400 
      6 C6          2.0821  -15.8202  -48.3156 C.3       23 UNK        -0.0398 
      7 S7          1.3729  -17.3961  -48.9075 S.3       23 UNK        -0.2404 
      8 C8          2.6231  -17.9028  -50.1249 C.3       23 UNK        -0.0205 
      9 C9          2.1593  -19.1244  -50.8986 C.ar      23 UNK        -0.0193 
     10 C10         1.4136  -18.9676  -52.0674 C.ar      23 UNK        -0.1150 
     11 C11         0.9656  -20.0820  -52.7810 C.ar      23 UNK        -0.0193 
     12 C12         1.2696  -21.3623  -52.3073 C.ar      23 UNK        -0.1150 
     13 C13         2.0079  -21.5415  -51.1320 C.ar      23 UNK        -0.0193 
     14 C14         2.4567  -20.4086  -50.4370 C.ar      23 UNK        -0.1150 
     15 C15         2.2336  -22.9711  -50.6334 C.3       23 UNK        -0.0205 
     16 S16         3.3866  -23.1448  -49.2255 S.3       23 UNK        -0.2404 
     17 C17         2.7220  -24.6230  -48.3750 C.3       23 UNK        -0.0398 
     18 CA          1.9292  -24.3171  -47.0677 C.3       11 UNK         0.1400 
     19 N           2.6211  -23.4255  -46.1290 N.am      11 UNK        -0.5000 
     20 C           3.7843  -23.7378  -45.5362 C.2       10 UNK         0.5000 
     21 O           4.3483  -24.8240  -45.6766 O.2       10 UNK        -0.5000 
     22 CA          4.4522  -22.6757  -44.6400 C.3       10 UNK         0.1400 
     23 CB          5.4218  -21.8184  -45.4682 C.3       10 UNK        -0.1800 
     24 N           3.5097  -21.7929  -43.9599 N.am      10 UNK        -0.5000 
     25 C           2.6309  -22.1666  -43.0206 C.2       9 UNK         0.5000 
     26 O           2.5609  -23.3089  -42.5665 O.2       9 UNK        -0.5000 
     27 CA          1.6543  -21.0866  -42.5085 C.3       9 UNK         0.1400 
     28 CB          2.0698  -20.6046  -41.1111 C.3       9 UNK        -0.1800 
     29 N           1.5081  -19.9204  -43.3876 N.am      9 UNK        -0.5000 
     30 C           1.1028  -19.9419  -44.6658 C.2       8 UNK         0.5000 
     31 O           0.8273  -20.9805  -45.2677 O.2       8 UNK        -0.5000 
     32 CA          1.0060  -18.5997  -45.4099 C.3       8 UNK         0.1400 
     33 CB         -0.4531  -18.2772  -45.7653 C.3       8 UNK        -0.1800 
     34 N           1.5640  -17.4833  -44.6469 N.am      8 UNK        -0.5000 
     35 C           2.8548  -17.1249  -44.6382 C.2       7 UNK         0.5000 
     36 O           3.7276  -17.7117  -45.2776 O.2       7 UNK        -0.5000 
     37 CA          3.2408  -15.9119  -43.7669 C.3       7 UNK         0.1400 
     38 CB          3.3006  -14.6351  -44.6192 C.3       7 UNK        -0.1800 
     39 N           2.3232  -15.6932  -42.6462 N.am      7 UNK        -0.5000 
     40 C           2.2767  -16.4574  -41.5461 C.2       6 UNK         0.5000 
     41 O           3.0496  -17.3912  -41.3355 O.2       6 UNK        -0.5000 
     42 CA          1.1529  -16.1579  -40.5314 C.3       6 UNK         0.1400 
     43 CB          1.6439  -15.1713  -39.4614 C.3       6 UNK        -0.1800 
     44 N          -0.0801  -15.6388  -41.1372 N.am      6 UNK        -0.5000 
     45 C          -0.8103  -16.2869  -42.0550 C.2       5 UNK         0.5000 
     46 O          -0.4995  -17.3948  -42.4966 O.2       5 UNK        -0.5000 
     47 CA         -2.0534  -15.5503  -42.5966 C.3       5 UNK         0.1400 
     48 CB         -1.6521  -14.2527  -43.3149 C.3       5 UNK        -0.1800 
     49 N          -2.8076  -16.3759  -43.5395 N.am      5 UNK        -0.5000 
     50 C          -3.6005  -17.4010  -43.2016 C.2       4 UNK         0.5000 
     51 O          -3.8791  -17.6942  -42.0373 O.2       4 UNK        -0.5000 
     52 CA         -4.1569  -18.2393  -44.3730 C.3       4 UNK         0.1400 
     53 CB         -5.3516  -19.1326  -43.9783 C.3       4 UNK        -0.1800 
     54 N          -4.4639  -17.4432  -45.5659 N.am      4 UNK        -0.5000 
     55 C          -5.3689  -16.4615  -45.6801 C.2       3 UNK         0.5000 
     56 O          -6.0793  -16.0601  -44.7570 O.2       3 UNK        -0.5000 
     57 CA         -5.4860  -15.8226  -47.0788 C.3       3 UNK         0.1400 
     58 CB         -6.8995  -15.2773  -47.3488 C.3       3 UNK        -0.1800 
     59 N          -4.5186  -14.7496  -47.3098 N.am      3 UNK        -0.5000 
     60 C          -3.1904  -14.8930  -47.3981 C.2       2 UNK         0.5000 
     61 O          -2.6082  -15.9585  -47.1904 O.2       2 UNK        -0.5000 
     62 CA         -2.4201  -13.6372  -47.8517 C.3       2 UNK         0.1400 
     63 CB         -2.3348  -12.5720  -46.7406 C.3       2 UNK        -0.1800 
     64 N          -1.1035  -13.9284  -48.4318 N.am      2 UNK        -0.5000 
     65 C           0.0222  -14.3355  -47.8242 C.2       1 UNK         0.5000 
     66 O           0.1269  -14.4972  -46.6081 O.2       1 UNK        -0.5000 
     67 C           0.5033  -23.8294  -47.3746 C.2       11 UNK         0.5000 
     68 O          -0.4366  -24.6175  -47.2714 O.2       11 UNK        -0.5000 
     69 N           0.3562  -22.5538  -47.7592 N.am      12 UNK        -0.5000 
     70 CA         -0.8957  -21.9740  -48.2552 C.3       12 UNK         0.1400 
     71 CB         -0.6539  -20.5503  -48.7762 C.3       12 UNK        -0.1800 
     72 C          -2.0686  -22.0015  -47.2615 C.2       12 UNK         0.5000 
     73 O          -3.2099  -22.1647  -47.6937 O.2       12 UNK        -0.5000 
     74 N          -1.7790  -21.8578  -45.9623 N.am      13 UNK        -0.5000 
     75 CA         -2.7686  -21.9464  -44.8880 C.3       13 UNK         0.1400 
     76 CB         -2.1629  -21.4295  -43.5757 C.3       13 UNK        -0.1800 
     77 C          -3.3000  -23.3788  -44.7106 C.2       13 UNK         0.5000 
     78 O          -4.5099  -23.5663  -44.5841 O.2       13 UNK        -0.5000 
     79 N          -2.3912  -24.3641  -44.7565 N.am      14 UNK        -0.5000 
     80 CA         -2.7045  -25.7949  -44.6896 C.3       14 UNK         0.1400 
     81 CB         -1.4067  -26.5929  -44.4915 C.3       14 UNK        -0.1800 
     82 C          -3.4686  -26.2857  -45.9337 C.2       14 UNK         0.5000 
     83 O          -4.3233  -27.1642  -45.8223 O.2       14 UNK        -0.5000 
     84 N          -3.1850  -25.6606  -47.0830 N.am      15 UNK        -0.5000 
     85 CA         -3.8842  -25.8332  -48.3557 C.3       15 UNK         0.1400 
     86 CB         -2.9196  -25.4528  -49.4893 C.3       15 UNK        -0.1800 
     87 C          -5.2184  -25.0526  -48.4457 C.2       15 UNK         0.5000 
     88 O          -5.8008  -24.9931  -49.5289 O.2       15 UNK        -0.5000 
     89 N          -5.6888  -24.4933  -47.3194 N.am      16 UNK        -0.5000 
     90 CA         -6.9632  -23.7975  -47.1221 C.3       16 UNK         0.1400 
     91 CB         -8.1602  -24.7325  -47.3993 C.3       16 UNK        -0.1800 
     92 C          -7.0386  -22.4599  -47.8821 C.2       16 UNK         0.5000 
     93 O          -7.9534  -22.2457  -48.6797 O.2       16 UNK        -0.5000 
     94 N          -6.0703  -21.5804  -47.5890 N.am      17 UNK        -0.5000 
     95 CA         -5.9146  -20.2178  -48.1094 C.3       17 UNK         0.1400 
     96 CB         -7.1118  -19.3249  -47.7172 C.3       17 UNK        -0.1800 
     97 C          -5.6039  -20.1959  -49.6187 C.2       17 UNK         0.5000 
     98 O          -6.1794  -19.4041  -50.3673 O.2       17 UNK        -0.5000 
     99 N          -4.6676  -21.0592  -50.0350 N.am      18 UNK        -0.5000 
    100 CA        -4.2417  -21.2258  -51.4294 C.3       18 UNK         0.1400 
    101 CB        -3.4628  -22.5402  -51.5662 C.3       18 UNK        -0.1800 
    102 C         -3.4160  -20.0509  -51.9916 C.2       18 UNK         0.5000 
    103 O         -3.1740  -20.0155  -53.1976 O.2       18 UNK        -0.5000 
    104 N         -3.0158  -19.1036  -51.1295 N.am      19 UNK        -0.5000 
    105 CA        -2.2299  -17.9062  -51.4469 C.3       19 UNK         0.1400 
    106 CB        -2.0934  -17.0535  -50.1809 C.3       19 UNK        -0.1800 
    107 C         -2.8050  -17.0478  -52.5890 C.2       19 UNK         0.5000 
    108 O         -2.0398  -16.4570  -53.3529 O.2       19 UNK        -0.5000 
    109 N         -4.1392  -17.0372  -52.7119 N.am      20 UNK        -0.5000 
    110 CA        -4.8966  -16.3531  -53.7603 C.3       20 UNK         0.1400 
    111 CB        -6.3944  -16.4734  -53.4405 C.3       20 UNK        -0.1800 
    112 C         -4.6064  -16.8586  -55.1894 C.2       20 UNK         0.5000 
    113 O         -4.8352  -16.1127  -56.1421 O.2       20 UNK        -0.5000 
    114 N         -4.0988  -18.0936  -55.3247 N.am      21 UNK        -0.5000 
    115 CA        -3.6632  -18.6631  -56.6016 C.3       21 UNK         0.1400 
    116 CB        -3.5871  -20.1926  -56.4750 C.3       21 UNK        -0.1800 
    117 C         -2.3090  -18.0985  -57.0749 C.2       21 UNK         0.5000 
    118 O         -2.0352  -18.1265  -58.2757 O.2       21 UNK        -0.5000 
    119 N         -1.4927  -17.6082  -56.1340 N.am      22 UNK        -0.5000 
    120 CA        -0.1693  -17.0191  -56.3867 C.3       22 UNK         0.1400 
    121 C         -0.2100  -15.4681  -56.3544 C.2       22 UNK         0.5000 
    122 N         -0.9952  -14.8520  -55.4785 N.am      22 UNK        -0.7600 
    123 O          0.4728  -14.8156  -57.1390 O.2       22 UNK        -0.5000 
    124 C124        0.8932  -17.5455  -55.3901 C.3       23 UNK        -0.0398 
    125 S125        1.1032  -19.3605  -55.4684 S.3       23 UNK        -0.2404 
    126 C126        0.1207  -19.9113  -54.0372 C.3       23 UNK        -0.0205 
    127 H127        0.3822  -14.8684  -52.6230 H         1 UNK         0.0600 
    128 H128        1.2864  -13.4222  -53.0779 H         1 UNK         0.0600 
    129 H129       -0.4341  -13.3063  -52.6938 H         1 UNK         0.0600 
    130 H130        0.7961  -15.5131  -50.5395 H         1 UNK         0.3000 
    131 H131        1.9047  -13.7070  -48.5391 H         1 UNK         0.0600 
    132 H132        3.0957  -15.7213  -48.7056 H         1 UNK         0.0800 
    133 H133        2.2036  -15.8796  -47.2342 H         1 UNK         0.0800 
    134 H134        3.5630  -18.1148  -49.6128 H         1 UNK         0.0800 
    135 H135        2.8228  -17.0805  -50.8138 H         1 UNK         0.0800 
    136 H136        1.1729  -17.9723  -52.4059 H         1 UNK         0.1150 
    137 H137        0.9100  -22.2280  -52.8458 H         1 UNK         0.1150 
    138 H138        3.0150  -20.5060  -49.5184 H         1 UNK         0.1150 
    139 H139        1.2606  -23.3794  -50.3586 H         1 UNK         0.0800 
    140 H140        2.6049  -23.5856  -51.4548 H         1 UNK         0.0800 
    141 H141        3.5730  -25.2625  -48.1403 H         1 UNK         0.0800 
    142 H142        2.1190  -25.2133  -49.0676 H         1 UNK         0.0800 
    143 H143        1.8001  -25.2677  -46.5452 H         1 UNK         0.0600 
    144 H144        2.1670  -22.5451  -45.9133 H         1 UNK         0.3000 
    145 H145        5.0277  -23.2027  -43.8761 H         1 UNK         0.0600 
    146 H146        5.9659  -21.1151  -44.8376 H         1 UNK         0.0600 
    147 H147        6.1616  -22.4415  -45.9725 H         1 UNK         0.0600 
    148 H148        4.8976  -21.2466  -46.2355 H         1 UNK         0.0600 
    149 H149        3.4923  -20.8305  -44.2637 H         1 UNK         0.3000 
    150 H150        0.6757  -21.5575  -42.4224 H         1 UNK         0.0600 
    151 H151        2.1175  -21.4365  -40.4074 H         1 UNK         0.0600 
    152 H152        1.3560  -19.8830  -40.7129 H         1 UNK         0.0600 
    153 H153        3.0525  -20.1320  -41.1272 H         1 UNK         0.0600 
    154 H154        1.6987  -19.0200  -42.9710 H         1 UNK         0.3000 
    155 H155        1.5655  -18.7164  -46.3388 H         1 UNK         0.0600 
    156 H156       -0.9171  -19.0785  -46.3371 H         1 UNK         0.0600 
    157 H157       -0.5149  -17.3706  -46.3667 H         1 UNK         0.0600 
    158 H158       -1.0596  -18.1315  -44.8755 H         1 UNK         0.0600 
    159 H159        0.9143  -16.9986  -44.0410 H         1 UNK         0.3000 
    160 H160        4.2395  -16.0996  -43.3666 H         1 UNK         0.0600 
    161 H161        3.6630  -13.7886  -44.0357 H         1 UNK         0.0600 
    162 H162        3.9781  -14.7594  -45.4651 H         1 UNK         0.0600 
    163 H163        2.3209  -14.3719  -45.0186 H         1 UNK         0.0600 
    164 H164        1.6560  -14.9420  -42.7415 H         1 UNK         0.3000 
    165 H165        0.9043  -17.0999  -40.0379 H         1 UNK         0.0600 
    166 H166        0.8942  -15.0270  -38.6832 H         1 UNK         0.0600 
    167 H167        2.5477  -15.5406  -38.9747 H         1 UNK         0.0600 
    168 H168        1.8771  -14.1958  -39.8899 H         1 UNK         0.0600 
    169 H169       -0.3857  -14.7300  -40.8202 H         1 UNK         0.3000 
    170 H170       -2.6973  -15.3010  -41.7508 H         1 UNK         0.0600 
    171 H171       -1.1554  -13.5556  -42.6397 H         1 UNK         0.0600 
    172 H172       -0.9712  -14.4504  -44.1435 H         1 UNK         0.0600 
    173 H173       -2.5281  -13.7406  -43.7134 H         1 UNK         0.0600 
    174 H174       -2.6208  -16.2215  -44.5204 H         1 UNK         0.3000 
    175 H175       -3.3450  -18.9028  -44.6679 H         1 UNK         0.0600 
    176 H176       -5.6769  -19.7491  -44.8157 H         1 UNK         0.0600 
    177 H177       -5.0830  -19.8104  -43.1673 H         1 UNK         0.0600 
    178 H178       -6.2051  -18.5435  -43.6421 H         1 UNK         0.0600 
    179 H179       -3.8400  -17.5758  -46.3527 H         1 UNK         0.3000 
    180 H180       -5.2918  -16.6036  -47.8168 H         1 UNK         0.0600 
    181 H181       -7.1356  -14.4299  -46.7039 H         1 UNK         0.0600 
    182 H182       -7.6561  -16.0429  -47.1724 H         1 UNK         0.0600 
    183 H183       -7.0053  -14.9511  -48.3836 H         1 UNK         0.0600 
    184 H184       -4.9146  -13.8344  -47.4672 H         1 UNK         0.3000 
    185 H185       -2.9963  -13.2039  -48.6706 H         1 UNK         0.0600 
    186 H186       -3.3271  -12.2841  -46.3922 H         1 UNK         0.0600 
    187 H187       -1.7796  -12.9252  -45.8739 H         1 UNK         0.0600 
    188 H188       -1.8449  -11.6679  -47.1021 H         1 UNK         0.0600 
    189 H189       -1.0532  -13.8369  -49.4353 H         1 UNK         0.3000 
    190 H190        1.1743  -21.9651  -47.8119 H         1 UNK         0.3000 
    191 H191       -1.2060  -22.5811  -49.1053 H         1 UNK         0.0600 
    192 H192        0.0840  -20.0187  -48.1773 H         1 UNK         0.0600 
    193 H193       -1.5680  -19.9566  -48.7765 H         1 UNK         0.0600 
    194 H194       -0.2956  -20.5682  -49.8037 H         1 UNK         0.0600 
    195 H195       -0.8102  -21.6906  -45.6982 H         1 UNK         0.3000 
    196 H196       -3.6125  -21.3065  -45.1516 H         1 UNK         0.0600 
    197 H197       -2.9168  -21.3894  -42.7886 H         1 UNK         0.0600 
    198 H198       -1.7551  -20.4251  -43.6864 H         1 UNK         0.0600 
    199 H199       -1.3625  -22.0809  -43.2276 H         1 UNK         0.0600 
    200 H200       -1.4259  -24.1214  -44.9249 H         1 UNK         0.3000 
    201 H201       -3.3439  -25.9611  -43.8201 H         1 UNK         0.0600 
    202 H202       -0.8874  -26.2832  -43.5845 H         1 UNK         0.0600 
    203 H203       -0.7214  -26.4675  -45.3302 H         1 UNK         0.0600 
    204 H204       -1.6166  -27.6591  -44.3976 H         1 UNK         0.0600 
    205 H205       -2.4109  -25.0044  -47.0847 H         1 UNK         0.3000 
    206 H206       -4.1320  -26.8901  -48.4717 H         1 UNK         0.0600 
    207 H207       -2.0019  -26.0391  -49.4397 H         1 UNK         0.0600 
    208 H208       -3.3652  -25.6328  -50.4681 H         1 UNK         0.0600 
    209 H209       -2.6448  -24.4011  -49.4349 H         1 UNK         0.0600 
    210 H210       -5.1126  -24.5616  -46.4904 H         1 UNK         0.3000 
    211 H211       -7.0011  -23.5422  -46.0619 H         1 UNK         0.0600 
    212 H212       -8.2296  -25.0101  -48.4513 H         1 UNK         0.0600 
    213 H213       -9.0998  -24.2494  -47.1291 H         1 UNK         0.0600 
    214 H214       -8.0873  -25.6493  -46.8143 H         1 UNK         0.0600 
    215 H215       -5.3027  -21.9101  -47.0176 H         1 UNK         0.3000 
    216 H216       -5.0319  -19.8068  -47.6173 H         1 UNK         0.0600 
    217 H217       -6.9541  -18.2964  -48.0387 H         1 UNK         0.0600 
    218 H218       -7.2589  -19.3089  -46.6377 H         1 UNK         0.0600 
    219 H219       -8.0411  -19.6607  -48.1770 H         1 UNK         0.0600 
    220 H220       -4.2308  -21.6597  -49.3423 H         1 UNK         0.3000 
    221 H221       -5.1397  -21.3038  -52.0456 H         1 UNK         0.0600 
    222 H222       -2.5406  -22.5226  -50.9875 H         1 UNK         0.0600 
    223 H223       -4.0645  -23.3851  -51.2327 H         1 UNK         0.0600 
    224 H224       -3.1912  -22.7291  -52.6057 H         1 UNK         0.0600 
    225 H225       -3.2788  -19.2206  -50.1639 H         1 UNK         0.3000 
    226 H226       -1.2365  -18.2361  -51.7462 H         1 UNK         0.0600 
    227 H227       -1.4941  -16.1634  -50.3704 H         1 UNK         0.0600 
    228 H228       -3.0671  -16.7226  -49.8190 H         1 UNK         0.0600 
    229 H229       -1.6073  -17.6031  -49.3754 H         1 UNK         0.0600 
    230 H230       -4.6791  -17.5759  -52.0491 H         1 UNK         0.3000 
    231 H231       -4.6224  -15.2966  -53.7295 H         1 UNK         0.0600 
    232 H232       -6.6278  -16.0342  -52.4703 H         1 UNK         0.0600 
    233 H233       -6.7185  -17.5149  -53.4243 H         1 UNK         0.0600 
    234 H234       -6.9978  -15.9524  -54.1852 H         1 UNK         0.0600 
    235 H235       -3.9228  -18.6561  -54.4981 H         1 UNK         0.3000 
    236 H236       -4.4094  -18.4241  -57.3623 H         1 UNK         0.0600 
    237 H237       -3.3654  -20.6513  -57.4393 H         1 UNK         0.0600 
    238 H238       -2.8042  -20.5011  -55.7813 H         1 UNK         0.0600 
    239 H239       -4.5312  -20.6100  -56.1248 H         1 UNK         0.0600 
    240 H240       -1.8227  -17.5642  -55.1795 H         1 UNK         0.3000 
    241 H241        0.1663  -17.3001  -57.3869 H         1 UNK         0.0600 
    242 H242       -1.4998  -15.3794  -54.7714 H         1 UNK         0.3800 
    243 H243       -1.0293  -13.8457  -55.4703 H         1 UNK         0.3800 
    244 H244        1.8652  -17.0971  -55.6032 H         1 UNK         0.0800 
    245 H245        0.6362  -17.2383  -54.3774 H         1 UNK         0.0800 
    246 H246       -0.6895  -19.2081  -53.8490 H         1 UNK         0.0800 
    247 H247       -0.3640  -20.8541  -54.2953 H         1 UNK         0.0800 
@<TRIPOS>BOND
     1    1    2 1    
     2    1  127 1    
     3    1  128 1    
     4    1  129 1    
     5    2    3 2    
     6    2    4 am   BACKBONE|DICT|INTERRES
     7    4    5 1    
     8    4  130 1    
     9    5    6 1    
    10    5   65 1    
    11    5  131 1    
    12    6    7 1    
    13    6  132 1    
    14    6  133 1    
    15    7    8 1    
    16    8    9 1    
    17    8  134 1    
    18    8  135 1    
    19    9   10 ar   
    20    9   14 ar   
    21   10   11 ar   
    22   10  136 1    
    23   11   12 ar   
    24   11  126 1    
    25   12   13 ar   
    26   12  137 1    
    27   13   14 ar   
    28   13   15 1    
    29   14  138 1    
    30   15   16 1    
    31   15  139 1    
    32   15  140 1    
    33   16   17 1    
    34   17   18 1    
    35   17  141 1    
    36   17  142 1    
    37   18   19 1    
    38   18   67 1    
    39   18  143 1    
    40   19   20 am   BACKBONE|DICT|INTERRES
    41   19  144 1    
    42   20   21 2    
    43   20   22 1    
    44   22   23 1    
    45   22   24 1    
    46   22  145 1    
    47   23  146 1    
    48   23  147 1    
    49   23  148 1    
    50   24   25 am   BACKBONE|DICT|INTERRES
    51   24  149 1    
    52   25   26 2    
    53   25   27 1    
    54   27   28 1    
    55   27   29 1    
    56   27  150 1    
    57   28  151 1    
    58   28  152 1    
    59   28  153 1    
    60   29   30 am   BACKBONE|DICT|INTERRES
    61   29  154 1    
    62   30   31 2    
    63   30   32 1    
    64   32   33 1    
    65   32   34 1    
    66   32  155 1    
    67   33  156 1    
    68   33  157 1    
    69   33  158 1    
    70   34   35 am   BACKBONE|DICT|INTERRES
    71   34  159 1    
    72   35   36 2    
    73   35   37 1    
    74   37   38 1    
    75   37   39 1    
    76   37  160 1    
    77   38  161 1    
    78   38  162 1    
    79   38  163 1    
    80   39   40 am   BACKBONE|DICT|INTERRES
    81   39  164 1    
    82   40   41 2    
    83   40   42 1    
    84   42   43 1    
    85   42   44 1    
    86   42  165 1    
    87   43  166 1    
    88   43  167 1    
    89   43  168 1    
    90   44   45 am   BACKBONE|DICT|INTERRES
    91   44  169 1    
    92   45   46 2    
    93   45   47 1    
    94   47   48 1    
    95   47   49 1    
    96   47  170 1    
    97   48  171 1    
    98   48  172 1    
    99   48  173 1    
   100   49   50 am   BACKBONE|DICT|INTERRES
   101   49  174 1    
   102   50   51 2    
   103   50   52 1    
   104   52   53 1    
   105   52   54 1    
   106   52  175 1    
   107   53  176 1    
   108   53  177 1    
   109   53  178 1    
   110   54   55 am   BACKBONE|DICT|INTERRES
   111   54  179 1    
   112   55   56 2    
   113   55   57 1    
   114   57   58 1    
   115   57   59 1    
   116   57  180 1    
   117   58  181 1    
   118   58  182 1    
   119   58  183 1    
   120   59   60 am   BACKBONE|DICT|INTERRES
   121   59  184 1    
   122   60   61 2    
   123   60   62 1    
   124   62   63 1    
   125   62   64 1    
   126   62  185 1    
   127   63  186 1    
   128   63  187 1    
   129   63  188 1    
   130   64   65 am   BACKBONE|DICT|INTERRES
   131   64  189 1    
   132   65   66 2    
   133   67   68 2    
   134   67   69 am   BACKBONE|DICT|INTERRES
   135   69   70 1    
   136   69  190 1    
   137   70   71 1    
   138   70   72 1    
   139   70  191 1    
   140   71  192 1    
   141   71  193 1    
   142   71  194 1    
   143   72   73 2    
   144   72   74 am   BACKBONE|DICT|INTERRES
   145   74   75 1    
   146   74  195 1    
   147   75   76 1    
   148   75   77 1    
   149   75  196 1    
   150   76  197 1    
   151   76  198 1    
   152   76  199 1    
   153   77   78 2    
   154   77   79 am   BACKBONE|DICT|INTERRES
   155   79   80 1    
   156   79  200 1    
   157   80   81 1    
   158   80   82 1    
   159   80  201 1    
   160   81  202 1    
   161   81  203 1    
   162   81  204 1    
   163   82   83 2    
   164   82   84 am   BACKBONE|DICT|INTERRES
   165   84   85 1    
   166   84  205 1    
   167   85   86 1    
   168   85   87 1    
   169   85  206 1    
   170   86  207 1    
   171   86  208 1    
   172   86  209 1    
   173   87   88 2    
   174   87   89 am   BACKBONE|DICT|INTERRES
   175   89   90 1    
   176   89  210 1    
   177   90   91 1    
   178   90   92 1    
   179   90  211 1    
   180   91  212 1    
   181   91  213 1    
   182   91  214 1    
   183   92   93 2    
   184   92   94 am   BACKBONE|DICT|INTERRES
   185   94   95 1    
   186   94  215 1    
   187   95   96 1    
   188   95   97 1    
   189   95  216 1    
   190   96  217 1    
   191   96  218 1    
   192   96  219 1    
   193   97   98 2    
   194   97   99 am   BACKBONE|DICT|INTERRES
   195   99  100 1    
   196   99  220 1    
   197  100  101 1    
   198  100  102 1    
   199  100  221 1    
   200  101  222 1    
   201  101  223 1    
   202  101  224 1    
   203  102  103 2    
   204  102  104 am   BACKBONE|DICT|INTERRES
   205  104  105 1    
   206  104  225 1    
   207  105  106 1    
   208  105  107 1    
   209  105  226 1    
   210  106  227 1    
   211  106  228 1    
   212  106  229 1    
   213  107  108 2    
   214  107  109 am   BACKBONE|DICT|INTERRES
   215  109  110 1    
   216  109  230 1    
   217  110  111 1    
   218  110  112 1    
   219  110  231 1    
   220  111  232 1    
   221  111  233 1    
   222  111  234 1    
   223  112  113 2    
   224  112  114 am   BACKBONE|DICT|INTERRES
   225  114  115 1    
   226  114  235 1    
   227  115  116 1    
   228  115  117 1    
   229  115  236 1    
   230  116  237 1    
   231  116  238 1    
   232  116  239 1    
   233  117  118 2    
   234  117  119 am   BACKBONE|DICT|INTERRES
   235  119  120 1    
   236  119  240 1    
   237  120  121 1    
   238  120  124 1    
   239  120  241 1    
   240  121  122 am   BACKBONE|DICT|INTERRES
   241  121  123 2    
   242  122  242 1    
   243  122  243 1    
   244  124  125 1    
   245  124  244 1    
   246  124  245 1    
   247  125  126 1    
   248  126  246 1    
   249  126  247 1    
@<TRIPOS>SUBSTRUCTURE
     1 UNK         1 GROUP             0       ****    0 ROOT    
