@<TRIPOS>MOLECULE
3R540
247   249    1
SMALL
USER_CHARGES


@<TRIPOS>ATOM
      1 CA         -5.1562  -15.8170  -49.4505 C.3       0 UNK        -0.1800 
      2 C          -3.8785  -15.8827  -48.6267 C.2       0 UNK         0.5000 
      3 O          -3.6372  -16.8914  -47.9695 O.2       0 UNK        -0.5000 
      4 N          -3.0942  -14.7950  -48.6405 N.am      1 UNK        -0.5000 
      5 CA         -1.7697  -14.5571  -48.0318 C.3       1 UNK         0.1400 
      6 C6         -0.5854  -15.1523  -48.8394 C.3       23 UNK        -0.0398 
      7 S7         -0.4069  -16.9670  -48.8022 S.3       23 UNK        -0.2404 
      8 C8          1.0094  -17.1431  -49.9245 C.3       23 UNK        -0.0205 
      9 C9          1.3145  -18.5991  -50.2348 C.ar      23 UNK        -0.0193 
     10 C10         0.5943  -19.2659  -51.2294 C.ar      23 UNK        -0.1150 
     11 C11         0.9098  -20.5832  -51.5740 C.ar      23 UNK        -0.0193 
     12 C12         1.9510  -21.2350  -50.9070 C.ar      23 UNK        -0.1150 
     13 C13         2.6729  -20.5824  -49.9028 C.ar      23 UNK        -0.0193 
     14 C14         2.3452  -19.2654  -49.5660 C.ar      23 UNK        -0.1150 
     15 C15         3.8400  -21.2827  -49.2209 C.3       23 UNK        -0.0205 
     16 S16         3.3180  -22.7049  -48.2132 S.3       23 UNK        -0.2404 
     17 C17         2.5099  -21.8824  -46.8004 C.3       23 UNK        -0.0398 
     18 CA          1.3553  -22.7320  -46.2196 C.3       11 UNK         0.1400 
     19 N           1.0717  -22.3940  -44.8235 N.am      11 UNK        -0.5000 
     20 C           0.2601  -23.0979  -44.0211 C.2       10 UNK         0.5000 
     21 O          -0.3071  -24.1372  -44.3589 O.2       10 UNK        -0.5000 
     22 CA          0.0009  -22.5157  -42.6205 C.3       10 UNK         0.1400 
     23 CB          1.1752  -22.8121  -41.6759 C.3       10 UNK        -0.1800 
     24 N          -0.2523  -21.0754  -42.6544 N.am      10 UNK        -0.5000 
     25 C          -1.2926  -20.5041  -43.2768 C.2       9 UNK         0.5000 
     26 O          -2.1813  -21.1372  -43.8460 O.2       9 UNK        -0.5000 
     27 CA         -1.3248  -18.9665  -43.3051 C.3       9 UNK         0.1400 
     28 CB         -1.8285  -18.4101  -41.9643 C.3       9 UNK        -0.1800 
     29 N          -0.0267  -18.3735  -43.6350 N.am      9 UNK        -0.5000 
     30 C           0.6328  -18.5722  -44.7867 C.2       8 UNK         0.5000 
     31 O           0.2054  -19.2563  -45.7120 O.2       8 UNK        -0.5000 
     32 CA          2.0430  -17.9719  -44.8969 C.3       8 UNK         0.1400 
     33 CB          1.9909  -16.4878  -45.2923 C.3       8 UNK        -0.1800 
     34 N           2.7959  -18.1432  -43.6545 N.am      8 UNK        -0.5000 
     35 C           3.2058  -19.3306  -43.1826 C.2       7 UNK         0.5000 
     36 O           3.0413  -20.3966  -43.7763 O.2       7 UNK        -0.5000 
     37 CA          3.8633  -19.3302  -41.7905 C.3       7 UNK         0.1400 
     38 CB          5.3469  -18.9459  -41.8908 C.3       7 UNK        -0.1800 
     39 N           3.1884  -18.4250  -40.8593 N.am      7 UNK        -0.5000 
     40 C           1.9369  -18.5953  -40.4082 C.2       6 UNK         0.5000 
     41 O           1.2462  -19.5780  -40.6734 O.2       6 UNK        -0.5000 
     42 CA          1.3414  -17.4516  -39.5634 C.3       6 UNK         0.1400 
     43 CB          1.6290  -17.6762  -38.0718 C.3       6 UNK        -0.1800 
     44 N           1.8391  -16.1314  -39.9624 N.am      6 UNK        -0.5000 
     45 C           1.6156  -15.5694  -41.1573 C.2       5 UNK         0.5000 
     46 O           0.9237  -16.0851  -42.0387 O.2       5 UNK        -0.5000 
     47 CA          2.3665  -14.2639  -41.4419 C.3       5 UNK         0.1400 
     48 CB          3.8220  -14.5846  -41.8444 C.3       5 UNK        -0.1800 
     49 N           1.6889  -13.5396  -42.5132 N.am      5 UNK        -0.5000 
     50 C           1.9666  -12.2892  -42.9020 C.2       4 UNK         0.5000 
     51 O           2.8118  -11.5740  -42.3617 O.2       4 UNK        -0.5000 
     52 CA          1.1682  -11.7377  -44.0952 C.3       4 UNK         0.1400 
     53 CB          1.7774  -12.2235  -45.4200 C.3       4 UNK        -0.1800 
     54 N          -0.2514  -12.0908  -44.0432 N.am      4 UNK        -0.5000 
     55 C          -1.1324  -11.5265  -43.2012 C.2       3 UNK         0.5000 
     56 O          -0.8209  -10.6753  -42.3671 O.2       3 UNK        -0.5000 
     57 CA         -2.6133  -11.9471  -43.3122 C.3       3 UNK         0.1400 
     58 CB         -3.4221  -10.8685  -44.0497 C.3       3 UNK        -0.1800 
     59 N          -2.8096  -13.2247  -43.9941 N.am      3 UNK        -0.5000 
     60 C          -2.5074  -14.4207  -43.4747 C.2       2 UNK         0.5000 
     61 O          -2.1076  -14.5777  -42.3215 O.2       2 UNK        -0.5000 
     62 CA         -2.6584  -15.6435  -44.4016 C.3       2 UNK         0.1400 
     63 CB         -3.9590  -16.3995  -44.0889 C.3       2 UNK        -0.1800 
     64 N          -2.6275  -15.3458  -45.8364 N.am      2 UNK        -0.5000 
     65 C          -1.6224  -14.7688  -46.5045 C.2       1 UNK         0.5000 
     66 O          -0.6138  -14.3417  -45.9429 O.2       1 UNK        -0.5000 
     67 C           0.0855  -22.6663  -47.0933 C.2       11 UNK         0.5000 
     68 O          -0.1871  -23.6111  -47.8325 O.2       11 UNK        -0.5000 
     69 N          -0.6985  -21.5895  -46.9454 N.am      12 UNK        -0.5000 
     70 CA         -1.9777  -21.3788  -47.6196 C.3       12 UNK         0.1400 
     71 CB         -2.5318  -19.9941  -47.2551 C.3       12 UNK        -0.1800 
     72 C          -3.0121  -22.4688  -47.3035 C.2       12 UNK         0.5000 
     73 O          -3.6481  -22.9789  -48.2251 O.2       12 UNK        -0.5000 
     74 N          -3.1360  -22.8291  -46.0188 N.am      13 UNK        -0.5000 
     75 CA         -4.0160  -23.8940  -45.5384 C.3       13 UNK         0.1400 
     76 CB         -4.0375  -23.8859  -44.0024 C.3       13 UNK        -0.1800 
     77 C          -3.6238  -25.2850  -46.0694 C.2       13 UNK         0.5000 
     78 O          -4.5077  -26.0753  -46.4025 O.2       13 UNK        -0.5000 
     79 N          -2.3137  -25.5539  -46.1486 N.am      14 UNK        -0.5000 
     80 CA         -1.7602  -26.7972  -46.6799 C.3       14 UNK         0.1400 
     81 CB         -0.2868  -26.9219  -46.2607 C.3       14 UNK        -0.1800 
     82 C          -1.9053  -26.9047  -48.2087 C.2       14 UNK         0.5000 
     83 O          -2.3250  -27.9509  -48.7056 O.2       14 UNK        -0.5000 
     84 N          -1.5392  -25.8345  -48.9260 N.am      15 UNK        -0.5000 
     85 CA         -1.5023  -25.7998  -50.3872 C.3       15 UNK         0.1400 
     86 CB         -0.5608  -24.6753  -50.8430 C.3       15 UNK        -0.1800 
     87 C          -2.8836  -25.6209  -51.0373 C.2       15 UNK         0.5000 
     88 O          -3.0810  -26.1012  -52.1533 O.2       15 UNK        -0.5000 
     89 N          -3.7899  -24.8892  -50.3711 N.am      16 UNK        -0.5000 
     90 CA         -5.1462  -24.4897  -50.7841 C.3       16 UNK         0.1400 
     91 CB         -6.0386  -25.7172  -51.0464 C.3       16 UNK        -0.1800 
     92 C          -5.2034  -23.4958  -51.9662 C.2       16 UNK         0.5000 
     93 O          -6.1193  -22.6739  -52.0216 O.2       16 UNK        -0.5000 
     94 N          -4.2167  -23.5547  -52.8702 N.am      17 UNK        -0.5000 
     95 CA         -4.0700  -22.7345  -54.0755 C.3       17 UNK         0.1400 
     96 CB         -2.8771  -23.2651  -54.8853 C.3       17 UNK        -0.1800 
     97 C          -3.9014  -21.2252  -53.8177 C.2       17 UNK         0.5000 
     98 O          -4.0647  -20.4359  -54.7481 O.2       17 UNK        -0.5000 
     99 N          -3.5937  -20.8337  -52.5731 N.am      18 UNK        -0.5000 
    100 CA        -3.4417  -19.4448  -52.1292 C.3       18 UNK         0.1400 
    101 CB        -3.0375  -19.4354  -50.6520 C.3       18 UNK        -0.1800 
    102 C         -4.6987  -18.5814  -52.3468 C.2       18 UNK         0.5000 
    103 O         -4.5713  -17.3806  -52.5829 O.2       18 UNK        -0.5000 
    104 N         -5.8809  -19.2150  -52.3410 N.am      19 UNK        -0.5000 
    105 CA        -7.1659  -18.6029  -52.6907 C.3       19 UNK         0.1400 
    106 CB        -8.2887  -19.6047  -52.3830 C.3       19 UNK        -0.1800 
    107 C         -7.2496  -18.1327  -54.1601 C.2       19 UNK         0.5000 
    108 O         -8.0339  -17.2329  -54.4615 O.2       19 UNK        -0.5000 
    109 N         -6.4280  -18.7278  -55.0355 N.am      20 UNK        -0.5000 
    110 CA        -6.2536  -18.3607  -56.4411 C.3       20 UNK         0.1400 
    111 CB        -6.3441  -19.6403  -57.2916 C.3       20 UNK        -0.1800 
    112 C         -4.9167  -17.6210  -56.6710 C.2       20 UNK         0.5000 
    113 O         -4.4795  -17.5105  -57.8166 O.2       20 UNK        -0.5000 
    114 N         -4.2905  -17.1362  -55.5860 N.am      21 UNK        -0.5000 
    115 CA        -2.9983  -16.4426  -55.5219 C.3       21 UNK         0.1400 
    116 CB        -3.0117  -15.1414  -56.3522 C.3       21 UNK        -0.1800 
    117 C         -1.7818  -17.3440  -55.8289 C.2       21 UNK         0.5000 
    118 O         -0.7135  -16.8288  -56.1636 O.2       21 UNK        -0.5000 
    119 N         -1.9435  -18.6635  -55.6599 N.am      22 UNK        -0.5000 
    120 CA        -0.9198  -19.6993  -55.8653 C.3       22 UNK         0.1400 
    121 C         -0.4928  -19.8906  -57.3544 C.2       22 UNK         0.5000 
    122 N          0.5739  -20.6337  -57.6173 N.am      22 UNK        -0.7600 
    123 O         -1.1404  -19.4145  -58.2841 O.2       22 UNK        -0.5000 
    124 C124        0.2743  -19.5474  -54.8747 C.3       23 UNK        -0.0398 
    125 S125        0.9147  -21.1570  -54.2955 S.3       23 UNK        -0.2404 
    126 C126        0.1298  -21.3088  -52.6602 C.3       23 UNK        -0.0205 
    127 H127       -5.3336  -16.7716  -49.9454 H         1 UNK         0.0600 
    128 H128       -5.1027  -15.0448  -50.2184 H         1 UNK         0.0600 
    129 H129       -6.0086  -15.6057  -48.8051 H         1 UNK         0.0600 
    130 H130       -3.4270  -14.0086  -49.1808 H         1 UNK         0.3000 
    131 H131       -1.6600  -13.4760  -48.1321 H         1 UNK         0.0600 
    132 H132        0.3532  -14.7172  -48.4909 H         1 UNK         0.0800 
    133 H133       -0.6781  -14.8446  -49.8817 H         1 UNK         0.0800 
    134 H134        1.8807  -16.6589  -49.4808 H         1 UNK         0.0800 
    135 H135        0.8037  -16.6126  -50.8555 H         1 UNK         0.0800 
    136 H136       -0.2071  -18.7499  -51.7372 H         1 UNK         0.1150 
    137 H137        2.2058  -22.2514  -51.1734 H         1 UNK         0.1150 
    138 H138        2.9069  -18.7490  -48.8004 H         1 UNK         0.1150 
    139 H139        4.5326  -21.6340  -49.9869 H         1 UNK         0.0800 
    140 H140        4.4044  -20.5880  -48.5967 H         1 UNK         0.0800 
    141 H141        2.1656  -20.8839  -47.0752 H         1 UNK         0.0800 
    142 H142        3.2834  -21.7361  -46.0460 H         1 UNK         0.0800 
    143 H143        1.6815  -23.7746  -46.2106 H         1 UNK         0.0600 
    144 H144        1.5238  -21.5631  -44.4559 H         1 UNK         0.3000 
    145 H145       -0.8904  -23.0017  -42.2183 H         1 UNK         0.0600 
    146 H146        0.9612  -22.4698  -40.6633 H         1 UNK         0.0600 
    147 H147        2.0924  -22.3234  -42.0058 H         1 UNK         0.0600 
    148 H148        1.3732  -23.8833  -41.6229 H         1 UNK         0.0600 
    149 H149        0.4038  -20.4838  -42.1523 H         1 UNK         0.3000 
    150 H150       -2.0257  -18.6695  -44.0863 H         1 UNK         0.0600 
    151 H151       -2.8610  -18.7118  -41.7853 H         1 UNK         0.0600 
    152 H152       -1.7968  -17.3213  -41.9423 H         1 UNK         0.0600 
    153 H153       -1.2362  -18.7735  -41.1256 H         1 UNK         0.0600 
    154 H154        0.3852  -17.7549  -42.9432 H         1 UNK         0.3000 
    155 H155        2.5722  -18.5089  -45.6874 H         1 UNK         0.0600 
    156 H156        1.4978  -16.3638  -46.2574 H         1 UNK         0.0600 
    157 H157        2.9913  -16.0648  -45.3823 H         1 UNK         0.0600 
    158 H158        1.4364  -15.8889  -44.5710 H         1 UNK         0.0600 
    159 H159        2.9192  -17.3226  -43.0820 H         1 UNK         0.3000 
    160 H160        3.7976  -20.3438  -41.3894 H         1 UNK         0.0600 
    161 H161        5.4777  -17.9286  -42.2620 H         1 UNK         0.0600 
    162 H162        5.8773  -19.6143  -42.5704 H         1 UNK         0.0600 
    163 H163        5.8381  -19.0149  -40.9200 H         1 UNK         0.0600 
    164 H164        3.6926  -17.5975  -40.5791 H         1 UNK         0.3000 
    165 H165        0.2593  -17.4604  -39.7079 H         1 UNK         0.0600 
    166 H166        1.1479  -16.9143  -37.4583 H         1 UNK         0.0600 
    167 H167        1.2482  -18.6443  -37.7431 H         1 UNK         0.0600 
    168 H168        2.6984  -17.6544  -37.8588 H         1 UNK         0.0600 
    169 H169        2.4230  -15.6501  -39.2934 H         1 UNK         0.3000 
    170 H170        2.3555  -13.6506  -40.5388 H         1 UNK         0.0600 
    171 H171        3.8649  -15.1449  -42.7792 H         1 UNK         0.0600 
    172 H172        4.4134  -13.6787  -41.9743 H         1 UNK         0.0600 
    173 H173        4.3242  -15.1792  -41.0805 H         1 UNK         0.0600 
    174 H174        0.9527  -14.0614  -42.9730 H         1 UNK         0.3000 
    175 H175        1.2472  -10.6485  -44.0746 H         1 UNK         0.0600 
    176 H176        1.7859  -13.3118  -45.4872 H         1 UNK         0.0600 
    177 H177        1.2234  -11.8386  -46.2763 H         1 UNK         0.0600 
    178 H178        2.8092  -11.8843  -45.5198 H         1 UNK         0.0600 
    179 H179       -0.5614  -12.8119  -44.6872 H         1 UNK         0.3000 
    180 H180       -3.0064  -12.0340  -42.2971 H         1 UNK         0.0600 
    181 H181       -4.4828  -11.1190  -44.0759 H         1 UNK         0.0600 
    182 H182       -3.0802  -10.7418  -45.0777 H         1 UNK         0.0600 
    183 H183       -3.3307   -9.9020  -43.5521 H         1 UNK         0.0600 
    184 H184       -3.1368  -13.1888  -44.9480 H         1 UNK         0.3000 
    185 H185       -1.8096  -16.2948  -44.1960 H         1 UNK         0.0600 
    186 H186       -4.8370  -15.7971  -44.3249 H         1 UNK         0.0600 
    187 H187       -4.0259  -17.3252  -44.6612 H         1 UNK         0.0600 
    188 H188       -4.0188  -16.6640  -43.0326 H         1 UNK         0.0600 
    189 H189       -3.3637  -15.7550  -46.4013 H         1 UNK         0.3000 
    190 H190       -0.3833  -20.8280  -46.3463 H         1 UNK         0.3000 
    191 H191       -1.7871  -21.4070  -48.6932 H         1 UNK         0.0600 
    192 H192       -3.5131  -19.8262  -47.6989 H         1 UNK         0.0600 
    193 H193       -1.8750  -19.2030  -47.6134 H         1 UNK         0.0600 
    194 H194       -2.6410  -19.8706  -46.1785 H         1 UNK         0.0600 
    195 H195       -2.6054  -22.3237  -45.3139 H         1 UNK         0.3000 
    196 H196       -5.0253  -23.6767  -45.8939 H         1 UNK         0.0600 
    197 H197       -4.4022  -22.9328  -43.6190 H         1 UNK         0.0600 
    198 H198       -3.0438  -24.0547  -43.5857 H         1 UNK         0.0600 
    199 H199       -4.6946  -24.6656  -43.6153 H         1 UNK         0.0600 
    200 H200       -1.6497  -24.8641  -45.8138 H         1 UNK         0.3000 
    201 H201       -2.3057  -27.6316  -46.2339 H         1 UNK         0.0600 
    202 H202       -0.1870  -26.9331  -45.1752 H         1 UNK         0.0600 
    203 H203        0.3136  -26.0947  -46.6411 H         1 UNK         0.0600 
    204 H204        0.1505  -27.8471  -46.6378 H         1 UNK         0.0600 
    205 H205       -1.1666  -25.0175  -48.4440 H         1 UNK         0.3000 
    206 H206       -1.0897  -26.7459  -50.7442 H         1 UNK         0.0600 
    207 H207       -0.9230  -23.6957  -50.5277 H         1 UNK         0.0600 
    208 H208        0.4411  -24.8071  -50.4337 H         1 UNK         0.0600 
    209 H209       -0.4689  -24.6628  -51.9297 H         1 UNK         0.0600 
    210 H210       -3.5022  -24.4794  -49.4866 H         1 UNK         0.3000 
    211 H211       -5.5662  -23.9633  -49.9258 H         1 UNK         0.0600 
    212 H212       -5.7131  -26.2816  -51.9204 H         1 UNK         0.0600 
    213 H213       -7.0714  -25.4144  -51.2231 H         1 UNK         0.0600 
    214 H214       -6.0397  -26.3925  -50.1907 H         1 UNK         0.0600 
    215 H215       -3.5567  -24.3178  -52.7630 H         1 UNK         0.3000 
    216 H216       -4.9758  -22.8589  -54.6719 H         1 UNK         0.0600 
    217 H217       -2.7707  -22.7259  -55.8275 H         1 UNK         0.0600 
    218 H218       -3.0046  -24.3195  -55.1312 H         1 UNK         0.0600 
    219 H219       -1.9397  -23.1599  -54.3372 H         1 UNK         0.0600 
    220 H220       -3.4992  -21.5485  -51.8672 H         1 UNK         0.3000 
    221 H221       -2.6334  -18.9966  -52.7102 H         1 UNK         0.0600 
    222 H222       -3.8017  -19.9014  -50.0298 H         1 UNK         0.0600 
    223 H223       -2.1014  -19.9692  -50.4962 H         1 UNK         0.0600 
    224 H224       -2.8908  -18.4172  -50.2893 H         1 UNK         0.0600 
    225 H225       -5.8932  -20.2091  -52.1526 H         1 UNK         0.3000 
    226 H226       -7.3032  -17.7246  -52.0566 H         1 UNK         0.0600 
    227 H227       -8.2909  -19.8833  -51.3290 H         1 UNK         0.0600 
    228 H228       -9.2673  -19.1788  -52.6082 H         1 UNK         0.0600 
    229 H229       -8.1835  -20.5181  -52.9702 H         1 UNK         0.0600 
    230 H230       -5.7872  -19.4391  -54.6998 H         1 UNK         0.3000 
    231 H231       -7.0504  -17.6856  -56.7588 H         1 UNK         0.0600 
    232 H232       -6.2974  -19.4100  -58.3566 H         1 UNK         0.0600 
    233 H233       -7.2840  -20.1638  -57.1164 H         1 UNK         0.0600 
    234 H234       -5.5295  -20.3304  -57.0687 H         1 UNK         0.0600 
    235 H235       -4.7324  -17.2779  -54.6851 H         1 UNK         0.3000 
    236 H236       -2.8813  -16.1499  -54.4776 H         1 UNK         0.0600 
    237 H237       -3.0239  -15.3422  -57.4236 H         1 UNK         0.0600 
    238 H238       -3.8813  -14.5293  -56.1137 H         1 UNK         0.0600 
    239 H239       -2.1268  -14.5382  -56.1465 H         1 UNK         0.0600 
    240 H240       -2.8646  -19.0169  -55.4232 H         1 UNK         0.3000 
    241 H241       -1.4449  -20.6211  -55.6180 H         1 UNK         0.0600 
    242 H242        0.8505  -20.7799  -58.5758 H         1 UNK         0.3800 
    243 H243        1.1065  -21.0583  -56.8724 H         1 UNK         0.3800 
    244 H244       -0.0274  -18.9677  -54.0039 H         1 UNK         0.0800 
    245 H245        1.0887  -18.9768  -55.3242 H         1 UNK         0.0800 
    246 H246       -0.8939  -20.9419  -52.7068 H         1 UNK         0.0800 
    247 H247        0.0605  -22.3667  -52.4112 H         1 UNK         0.0800 
@<TRIPOS>BOND
     1    1    2 1    
     2    1  127 1    
     3    1  128 1    
     4    1  129 1    
     5    2    3 2    
     6    2    4 am   BACKBONE|DICT|INTERRES
     7    4    5 1    
     8    4  130 1    
     9    5    6 1    
    10    5   65 1    
    11    5  131 1    
    12    6    7 1    
    13    6  132 1    
    14    6  133 1    
    15    7    8 1    
    16    8    9 1    
    17    8  134 1    
    18    8  135 1    
    19    9   10 ar   
    20    9   14 ar   
    21   10   11 ar   
    22   10  136 1    
    23   11   12 ar   
    24   11  126 1    
    25   12   13 ar   
    26   12  137 1    
    27   13   14 ar   
    28   13   15 1    
    29   14  138 1    
    30   15   16 1    
    31   15  139 1    
    32   15  140 1    
    33   16   17 1    
    34   17   18 1    
    35   17  141 1    
    36   17  142 1    
    37   18   19 1    
    38   18   67 1    
    39   18  143 1    
    40   19   20 am   BACKBONE|DICT|INTERRES
    41   19  144 1    
    42   20   21 2    
    43   20   22 1    
    44   22   23 1    
    45   22   24 1    
    46   22  145 1    
    47   23  146 1    
    48   23  147 1    
    49   23  148 1    
    50   24   25 am   BACKBONE|DICT|INTERRES
    51   24  149 1    
    52   25   26 2    
    53   25   27 1    
    54   27   28 1    
    55   27   29 1    
    56   27  150 1    
    57   28  151 1    
    58   28  152 1    
    59   28  153 1    
    60   29   30 am   BACKBONE|DICT|INTERRES
    61   29  154 1    
    62   30   31 2    
    63   30   32 1    
    64   32   33 1    
    65   32   34 1    
    66   32  155 1    
    67   33  156 1    
    68   33  157 1    
    69   33  158 1    
    70   34   35 am   BACKBONE|DICT|INTERRES
    71   34  159 1    
    72   35   36 2    
    73   35   37 1    
    74   37   38 1    
    75   37   39 1    
    76   37  160 1    
    77   38  161 1    
    78   38  162 1    
    79   38  163 1    
    80   39   40 am   BACKBONE|DICT|INTERRES
    81   39  164 1    
    82   40   41 2    
    83   40   42 1    
    84   42   43 1    
    85   42   44 1    
    86   42  165 1    
    87   43  166 1    
    88   43  167 1    
    89   43  168 1    
    90   44   45 am   BACKBONE|DICT|INTERRES
    91   44  169 1    
    92   45   46 2    
    93   45   47 1    
    94   47   48 1    
    95   47   49 1    
    96   47  170 1    
    97   48  171 1    
    98   48  172 1    
    99   48  173 1    
   100   49   50 am   BACKBONE|DICT|INTERRES
   101   49  174 1    
   102   50   51 2    
   103   50   52 1    
   104   52   53 1    
   105   52   54 1    
   106   52  175 1    
   107   53  176 1    
   108   53  177 1    
   109   53  178 1    
   110   54   55 am   BACKBONE|DICT|INTERRES
   111   54  179 1    
   112   55   56 2    
   113   55   57 1    
   114   57   58 1    
   115   57   59 1    
   116   57  180 1    
   117   58  181 1    
   118   58  182 1    
   119   58  183 1    
   120   59   60 am   BACKBONE|DICT|INTERRES
   121   59  184 1    
   122   60   61 2    
   123   60   62 1    
   124   62   63 1    
   125   62   64 1    
   126   62  185 1    
   127   63  186 1    
   128   63  187 1    
   129   63  188 1    
   130   64   65 am   BACKBONE|DICT|INTERRES
   131   64  189 1    
   132   65   66 2    
   133   67   68 2    
   134   67   69 am   BACKBONE|DICT|INTERRES
   135   69   70 1    
   136   69  190 1    
   137   70   71 1    
   138   70   72 1    
   139   70  191 1    
   140   71  192 1    
   141   71  193 1    
   142   71  194 1    
   143   72   73 2    
   144   72   74 am   BACKBONE|DICT|INTERRES
   145   74   75 1    
   146   74  195 1    
   147   75   76 1    
   148   75   77 1    
   149   75  196 1    
   150   76  197 1    
   151   76  198 1    
   152   76  199 1    
   153   77   78 2    
   154   77   79 am   BACKBONE|DICT|INTERRES
   155   79   80 1    
   156   79  200 1    
   157   80   81 1    
   158   80   82 1    
   159   80  201 1    
   160   81  202 1    
   161   81  203 1    
   162   81  204 1    
   163   82   83 2    
   164   82   84 am   BACKBONE|DICT|INTERRES
   165   84   85 1    
   166   84  205 1    
   167   85   86 1    
   168   85   87 1    
   169   85  206 1    
   170   86  207 1    
   171   86  208 1    
   172   86  209 1    
   173   87   88 2    
   174   87   89 am   BACKBONE|DICT|INTERRES
   175   89   90 1    
   176   89  210 1    
   177   90   91 1    
   178   90   92 1    
   179   90  211 1    
   180   91  212 1    
   181   91  213 1    
   182   91  214 1    
   183   92   93 2    
   184   92   94 am   BACKBONE|DICT|INTERRES
   185   94   95 1    
   186   94  215 1    
   187   95   96 1    
   188   95   97 1    
   189   95  216 1    
   190   96  217 1    
   191   96  218 1    
   192   96  219 1    
   193   97   98 2    
   194   97   99 am   BACKBONE|DICT|INTERRES
   195   99  100 1    
   196   99  220 1    
   197  100  101 1    
   198  100  102 1    
   199  100  221 1    
   200  101  222 1    
   201  101  223 1    
   202  101  224 1    
   203  102  103 2    
   204  102  104 am   BACKBONE|DICT|INTERRES
   205  104  105 1    
   206  104  225 1    
   207  105  106 1    
   208  105  107 1    
   209  105  226 1    
   210  106  227 1    
   211  106  228 1    
   212  106  229 1    
   213  107  108 2    
   214  107  109 am   BACKBONE|DICT|INTERRES
   215  109  110 1    
   216  109  230 1    
   217  110  111 1    
   218  110  112 1    
   219  110  231 1    
   220  111  232 1    
   221  111  233 1    
   222  111  234 1    
   223  112  113 2    
   224  112  114 am   BACKBONE|DICT|INTERRES
   225  114  115 1    
   226  114  235 1    
   227  115  116 1    
   228  115  117 1    
   229  115  236 1    
   230  116  237 1    
   231  116  238 1    
   232  116  239 1    
   233  117  118 2    
   234  117  119 am   BACKBONE|DICT|INTERRES
   235  119  120 1    
   236  119  240 1    
   237  120  121 1    
   238  120  124 1    
   239  120  241 1    
   240  121  122 am   BACKBONE|DICT|INTERRES
   241  121  123 2    
   242  122  242 1    
   243  122  243 1    
   244  124  125 1    
   245  124  244 1    
   246  124  245 1    
   247  125  126 1    
   248  126  246 1    
   249  126  247 1    
@<TRIPOS>SUBSTRUCTURE
     1 UNK         1 GROUP             0       ****    0 ROOT    
