@<TRIPOS>MOLECULE
3R540
247   249    1
SMALL
USER_CHARGES


@<TRIPOS>ATOM
      1 CA         -3.2142  -14.2307  -49.5944 C.3       0 UNK        -0.1800 
      2 C          -1.7336  -13.8774  -49.6374 C.2       0 UNK         0.5000 
      3 O          -1.3299  -13.0249  -50.4278 O.2       0 UNK        -0.5000 
      4 N          -0.9281  -14.5253  -48.7867 N.am      1 UNK        -0.5000 
      5 CA          0.5006  -14.2546  -48.6128 C.3       1 UNK         0.1400 
      6 C6          1.1833  -15.3869  -47.8082 C.3       23 UNK        -0.0398 
      7 S7          3.0024  -15.2802  -47.6783 S.3       23 UNK        -0.2404 
      8 C8          3.5779  -15.3744  -49.4060 C.3       23 UNK        -0.0205 
      9 C9          2.9133  -16.4848  -50.2073 C.ar      23 UNK        -0.0193 
     10 C10         2.2091  -16.1767  -51.3730 C.ar      23 UNK        -0.1150 
     11 C11         1.5950  -17.1821  -52.1248 C.ar      23 UNK        -0.0193 
     12 C12         1.6907  -18.5108  -51.6950 C.ar      23 UNK        -0.1150 
     13 C13         2.4052  -18.8381  -50.5367 C.ar      23 UNK        -0.0193 
     14 C14         3.0206  -17.8179  -49.8037 C.ar      23 UNK        -0.1150 
     15 C15         2.5815  -20.2947  -50.1192 C.3       23 UNK        -0.0205 
     16 S16         2.1348  -20.6014  -48.3764 S.3       23 UNK        -0.2404 
     17 C17         0.3576  -20.9984  -48.4751 C.3       23 UNK        -0.0398 
     18 CA          0.0152  -22.2509  -47.6302 C.3       11 UNK         0.1400 
     19 N           0.1380  -22.0071  -46.1885 N.am      11 UNK        -0.5000 
     20 C           0.0416  -22.9549  -45.2444 C.2       10 UNK         0.5000 
     21 O          -0.1097  -24.1527  -45.4880 O.2       10 UNK        -0.5000 
     22 CA          0.0567  -22.4801  -43.7805 C.3       10 UNK         0.1400 
     23 CB          1.4841  -22.1452  -43.3227 C.3       10 UNK        -0.1800 
     24 N          -0.8255  -21.3333  -43.5549 N.am      10 UNK        -0.5000 
     25 C          -2.1574  -21.3652  -43.7079 C.2       9 UNK         0.5000 
     26 O          -2.7832  -22.3791  -44.0131 O.2       9 UNK        -0.5000 
     27 CA         -2.9222  -20.0418  -43.5309 C.3       9 UNK         0.1400 
     28 CB         -3.1817  -19.7569  -42.0444 C.3       9 UNK        -0.1800 
     29 N          -2.2423  -18.9004  -44.1414 N.am      9 UNK        -0.5000 
     30 C          -1.9845  -18.7716  -45.4505 C.2       8 UNK         0.5000 
     31 O          -2.3157  -19.5956  -46.3016 O.2       8 UNK        -0.5000 
     32 CA         -1.1633  -17.5403  -45.8723 C.3       8 UNK         0.1400 
     33 CB         -2.0377  -16.2754  -45.8800 C.3       8 UNK        -0.1800 
     34 N           0.0062  -17.3372  -45.0148 N.am      8 UNK        -0.5000 
     35 C           0.9963  -18.2309  -44.8627 C.2       7 UNK         0.5000 
     36 O           1.0522  -19.3005  -45.4675 O.2       7 UNK        -0.5000 
     37 CA          2.0599  -17.9106  -43.7999 C.3       7 UNK         0.1400 
     38 CB          3.1232  -16.9435  -44.3429 C.3       7 UNK        -0.1800 
     39 N           1.4545  -17.3643  -42.5850 N.am      7 UNK        -0.5000 
     40 C           0.6960  -18.0771  -41.7385 C.2       6 UNK         0.5000 
     41 O           0.4775  -19.2811  -41.8663 O.2       6 UNK        -0.5000 
     42 CA          0.0353  -17.3066  -40.5805 C.3       6 UNK         0.1400 
     43 CB          1.0047  -17.1743  -39.3966 C.3       6 UNK        -0.1800 
     44 N          -0.4222  -15.9761  -40.9824 N.am      6 UNK        -0.5000 
     45 C          -1.4009  -15.7415  -41.8690 C.2       5 UNK         0.5000 
     46 O          -2.0747  -16.6289  -42.3889 O.2       5 UNK        -0.5000 
     47 CA         -1.6225  -14.2743  -42.2855 C.3       5 UNK         0.1400 
     48 CB         -2.6638  -13.6052  -41.3768 C.3       5 UNK        -0.1800 
     49 N          -0.3812  -13.4956  -42.2620 N.am      5 UNK        -0.5000 
     50 C           0.6569  -13.7131  -43.0790 C.2       4 UNK         0.5000 
     51 O           0.6492  -14.5404  -43.9950 O.2       4 UNK        -0.5000 
     52 CA          1.9458  -12.9551  -42.7446 C.3       4 UNK         0.1400 
     53 CB          2.7351  -13.7353  -41.6714 C.3       4 UNK        -0.1800 
     54 N           2.7402  -12.7977  -43.9577 N.am      4 UNK        -0.5000 
     55 C           3.8480  -12.0545  -44.0704 C.2       3 UNK         0.5000 
     56 O           4.3321  -11.3947  -43.1497 O.2       3 UNK        -0.5000 
     57 CA          4.5249  -12.0284  -45.4514 C.3       3 UNK         0.1400 
     58 CB          5.3678  -13.2956  -45.6649 C.3       3 UNK        -0.1800 
     59 N           3.5700  -11.8746  -46.5506 N.am      3 UNK        -0.5000 
     60 C           2.8700  -10.7549  -46.7913 C.2       2 UNK         0.5000 
     61 O           2.9416   -9.7435  -46.0920 O.2       2 UNK        -0.5000 
     62 CA          1.9558  -10.7383  -48.0321 C.3       2 UNK         0.1400 
     63 CB          2.6195   -9.9526  -49.1740 C.3       2 UNK        -0.1800 
     64 N           1.6106  -12.0728  -48.5219 N.am      2 UNK        -0.5000 
     65 C           0.7088  -12.8782  -47.9483 C.2       1 UNK         0.5000 
     66 O           0.0707  -12.5837  -46.9354 O.2       1 UNK        -0.5000 
     67 C          -1.3758  -22.8086  -47.9925 C.2       11 UNK         0.5000 
     68 O          -1.4593  -23.7637  -48.7657 O.2       11 UNK        -0.5000 
     69 N          -2.4341  -22.2411  -47.3943 N.am      12 UNK        -0.5000 
     70 CA         -3.8142  -22.6873  -47.5694 C.3       12 UNK         0.1400 
     71 CB         -4.7869  -21.6992  -46.9076 C.3       12 UNK        -0.1800 
     72 C          -4.0558  -24.1167  -47.0628 C.2       12 UNK         0.5000 
     73 O          -4.6482  -24.9190  -47.7837 O.2       12 UNK        -0.5000 
     74 N          -3.5684  -24.4159  -45.8519 N.am      13 UNK        -0.5000 
     75 CA         -3.6622  -25.7311  -45.2187 C.3       13 UNK         0.1400 
     76 CB         -3.1625  -25.6366  -43.7691 C.3       13 UNK        -0.1800 
     77 C          -2.8982  -26.8254  -45.9846 C.2       13 UNK         0.5000 
     78 O          -3.3831  -27.9547  -46.0680 O.2       13 UNK        -0.5000 
     79 N          -1.7294  -26.4714  -46.5359 N.am      14 UNK        -0.5000 
     80 CA         -0.8978  -27.3613  -47.3421 C.3       14 UNK         0.1400 
     81 CB          0.4966  -26.7388  -47.5179 C.3       14 UNK        -0.1800 
     82 C          -1.5263  -27.6851  -48.7095 C.2       14 UNK         0.5000 
     83 O          -1.5721  -28.8581  -49.0957 O.2       14 UNK        -0.5000 
     84 N          -1.9766  -26.6432  -49.4248 N.am      15 UNK        -0.5000 
     85 CA         -2.4536  -26.7565  -50.8032 C.3       15 UNK         0.1400 
     86 CB         -2.2329  -25.4120  -51.5008 C.3       15 UNK        -0.1800 
     87 C          -3.9305  -27.1644  -50.9322 C.2       15 UNK         0.5000 
     88 O          -4.3003  -27.7262  -51.9639 O.2       15 UNK        -0.5000 
     89 N          -4.7485  -26.8404  -49.9197 N.am      16 UNK        -0.5000 
     90 CA         -6.2141  -26.9395  -49.9076 C.3       16 UNK         0.1400 
     91 CB         -6.6852  -28.4053  -50.0159 C.3       16 UNK        -0.1800 
     92 C          -6.8797  -25.9992  -50.9406 C.2       16 UNK         0.5000 
     93 O          -7.9031  -26.3454  -51.5337 O.2       16 UNK        -0.5000 
     94 N          -6.2836  -24.8163  -51.1258 N.am      17 UNK        -0.5000 
     95 CA         -6.7421  -23.7262  -51.9819 C.3       17 UNK         0.1400 
     96 CB         -6.1572  -23.8921  -53.3944 C.3       17 UNK        -0.1800 
     97 C          -6.2604  -22.4176  -51.3444 C.2       17 UNK         0.5000 
     98 O          -5.2151  -22.4358  -50.6942 O.2       17 UNK        -0.5000 
     99 N          -7.0067  -21.3217  -51.5422 N.am      18 UNK        -0.5000 
    100 CA        -6.8312  -19.9984  -50.9224 C.3       18 UNK         0.1400 
    101 CB        -7.8307  -19.0210  -51.5632 C.3       18 UNK        -0.1800 
    102 C         -5.3919  -19.4453  -50.9936 C.2       18 UNK         0.5000 
    103 O         -4.9999  -18.8814  -52.0165 O.2       18 UNK        -0.5000 
    104 N         -4.6192  -19.6809  -49.9232 N.am      19 UNK        -0.5000 
    105 CA        -3.1858  -19.3964  -49.7799 C.3       19 UNK         0.1400 
    106 CB        -2.9459  -17.8803  -49.6338 C.3       19 UNK        -0.1800 
    107 C         -2.3213  -20.0474  -50.8818 C.2       19 UNK         0.5000 
    108 O         -1.3443  -19.4501  -51.3238 O.2       19 UNK        -0.5000 
    109 N         -2.7094  -21.2558  -51.3139 N.am      20 UNK        -0.5000 
    110 CA        -2.1655  -21.9939  -52.4591 C.3       20 UNK         0.1400 
    111 CB        -0.6689  -22.3266  -52.2741 C.3       20 UNK        -0.1800 
    112 C         -2.4929  -21.3181  -53.8056 C.2       20 UNK         0.5000 
    113 O         -1.6558  -21.2901  -54.7090 O.2       20 UNK        -0.5000 
    114 N         -3.7285  -20.8040  -53.9028 N.am      21 UNK        -0.5000 
    115 CA        -4.3188  -20.0834  -55.0349 C.3       21 UNK         0.1400 
    116 CB        -4.4750  -21.0105  -56.2584 C.3       21 UNK        -0.1800 
    117 C         -3.5698  -18.7716  -55.3458 C.2       21 UNK         0.5000 
    118 O         -3.2842  -18.4768  -56.5086 O.2       21 UNK        -0.5000 
    119 N         -3.2491  -18.0183  -54.2871 N.am      22 UNK        -0.5000 
    120 CA        -2.5680  -16.7198  -54.3661 C.3       22 UNK         0.1400 
    121 C         -3.5067  -15.5706  -54.8348 C.2       22 UNK         0.5000 
    122 N         -2.9465  -14.4876  -55.3660 N.am      22 UNK        -0.7600 
    123 O         -4.7321  -15.6348  -54.7009 O.2       22 UNK        -0.5000 
    124 C124       -1.8454  -16.3815  -53.0348 C.3       23 UNK        -0.0398 
    125 S125       -0.2919  -15.4707  -53.3094 S.3       23 UNK        -0.2404 
    126 C126        0.9083  -16.8407  -53.4434 C.3       23 UNK        -0.0205 
    127 H127       -3.4378  -14.9515  -48.8082 H         1 UNK         0.0600 
    128 H128       -3.5317  -14.6543  -50.5465 H         1 UNK         0.0600 
    129 H129       -3.8062  -13.3348  -49.4073 H         1 UNK         0.0600 
    130 H130       -1.3306  -15.1837  -48.1389 H         1 UNK         0.3000 
    131 H131        0.9405  -14.2303  -49.6109 H         1 UNK         0.0600 
    132 H132        0.7966  -15.4036  -46.7895 H         1 UNK         0.0800 
    133 H133        0.9320  -16.3574  -48.2383 H         1 UNK         0.0800 
    134 H134        3.4227  -14.4059  -49.8825 H         1 UNK         0.0800 
    135 H135        4.6560  -15.5393  -49.4048 H         1 UNK         0.0800 
    136 H136        2.1487  -15.1512  -51.7091 H         1 UNK         0.1150 
    137 H137        1.2301  -19.2948  -52.2793 H         1 UNK         0.1150 
    138 H138        3.5845  -18.0610  -48.9140 H         1 UNK         0.1150 
    139 H139        2.0218  -20.9647  -50.7732 H         1 UNK         0.0800 
    140 H140        3.6322  -20.5560  -50.2512 H         1 UNK         0.0800 
    141 H141        0.0949  -21.1579  -49.5211 H         1 UNK         0.0800 
    142 H142       -0.2159  -20.1316  -48.1426 H         1 UNK         0.0800 
    143 H143        0.7332  -23.0336  -47.8851 H         1 UNK         0.0600 
    144 H144        0.3084  -21.0451  -45.9057 H         1 UNK         0.3000 
    145 H145       -0.3085  -23.3037  -43.1635 H         1 UNK         0.0600 
    146 H146        1.5070  -21.8849  -42.2645 H         1 UNK         0.0600 
    147 H147        2.1482  -22.9989  -43.4624 H         1 UNK         0.0600 
    148 H148        1.9034  -21.3089  -43.8818 H         1 UNK         0.0600 
    149 H149       -0.3851  -20.4714  -43.2506 H         1 UNK         0.3000 
    150 H150       -3.8888  -20.1502  -44.0264 H         1 UNK         0.0600 
    151 H151       -3.7130  -20.5857  -41.5748 H         1 UNK         0.0600 
    152 H152       -3.7932  -18.8636  -41.9155 H         1 UNK         0.0600 
    153 H153       -2.2525  -19.6080  -41.4944 H         1 UNK         0.0600 
    154 H154       -1.9770  -18.1447  -43.5151 H         1 UNK         0.3000 
    155 H155       -0.7992  -17.7130  -46.8871 H         1 UNK         0.0600 
    156 H156       -2.5394  -16.1238  -44.9251 H         1 UNK         0.0600 
    157 H157       -1.4551  -15.3780  -46.0845 H         1 UNK         0.0600 
    158 H158       -2.8154  -16.3475  -46.6405 H         1 UNK         0.0600 
    159 H159        0.0543  -16.4678  -44.4951 H         1 UNK         0.3000 
    160 H160        2.5612  -18.8450  -43.5389 H         1 UNK         0.0600 
    161 H161        2.6973  -15.9826  -44.6286 H         1 UNK         0.0600 
    162 H162        3.6067  -17.3583  -45.2283 H         1 UNK         0.0600 
    163 H163        3.9029  -16.7575  -43.6044 H         1 UNK         0.0600 
    164 H164        1.5454  -16.3709  -42.4396 H         1 UNK         0.3000 
    165 H165       -0.8337  -17.8795  -40.2502 H         1 UNK         0.0600 
    166 H166        0.5231  -16.6942  -38.5445 H         1 UNK         0.0600 
    167 H167        1.3492  -18.1544  -39.0639 H         1 UNK         0.0600 
    168 H168        1.8862  -16.5879  -39.6590 H         1 UNK         0.0600 
    169 H169        0.0673  -15.1876  -40.5877 H         1 UNK         0.3000 
    170 H170       -2.0066  -14.2720  -43.3077 H         1 UNK         0.0600 
    171 H171       -3.6058  -14.1551  -41.3935 H         1 UNK         0.0600 
    172 H172       -2.3274  -13.5616  -40.3402 H         1 UNK         0.0600 
    173 H173       -2.8773  -12.5877  -41.7045 H         1 UNK         0.0600 
    174 H174       -0.2987  -12.8015  -41.5328 H         1 UNK         0.3000 
    175 H175        1.6834  -11.9651  -42.3662 H         1 UNK         0.0600 
    176 H176        3.0801  -14.6986  -42.0484 H         1 UNK         0.0600 
    177 H177        3.6096  -13.1814  -41.3313 H         1 UNK         0.0600 
    178 H178        2.1237  -13.9261  -40.7888 H         1 UNK         0.0600 
    179 H179        2.3785  -13.2930  -44.7630 H         1 UNK         0.3000 
    180 H180        5.2007  -11.1707  -45.4757 H         1 UNK         0.0600 
    181 H181        4.7672  -14.2016  -45.5831 H         1 UNK         0.0600 
    182 H182        6.1580  -13.3641  -44.9164 H         1 UNK         0.0600 
    183 H183        5.8469  -13.2951  -46.6441 H         1 UNK         0.0600 
    184 H184        3.4496  -12.6653  -47.1666 H         1 UNK         0.3000 
    185 H185        1.0352  -10.2203  -47.7540 H         1 UNK         0.0600 
    186 H186        2.8633   -8.9367  -48.8601 H         1 UNK         0.0600 
    187 H187        3.5457  -10.4252  -49.5033 H         1 UNK         0.0600 
    188 H188        1.9567   -9.8735  -50.0360 H         1 UNK         0.0600 
    189 H189        2.0823  -12.3753  -49.3615 H         1 UNK         0.3000 
    190 H190       -2.2893  -21.4377  -46.7882 H         1 UNK         0.3000 
    191 H191       -4.0018  -22.6896  -48.6387 H         1 UNK         0.0600 
    192 H192       -4.6726  -21.6863  -45.8241 H         1 UNK         0.0600 
    193 H193       -5.8208  -21.9714  -47.1234 H         1 UNK         0.0600 
    194 H194       -4.6357  -20.6822  -47.2651 H         1 UNK         0.0600 
    195 H195       -3.1275  -23.6804  -45.3037 H         1 UNK         0.3000 
    196 H196       -4.7162  -26.0161  -45.1981 H         1 UNK         0.0600 
    197 H197       -3.2271  -26.6031  -43.2677 H         1 UNK         0.0600 
    198 H198       -3.7600  -24.9304  -43.1923 H         1 UNK         0.0600 
    199 H199       -2.1230  -25.3092  -43.7236 H         1 UNK         0.0600 
    200 H200       -1.3744  -25.5344  -46.3739 H         1 UNK         0.3000 
    201 H201       -0.7795  -28.3010  -46.7983 H         1 UNK         0.0600 
    202 H202        0.9860  -26.5937  -46.5545 H         1 UNK         0.0600 
    203 H203        0.4468  -25.7691  -48.0147 H         1 UNK         0.0600 
    204 H204        1.1412  -27.3834  -48.1168 H         1 UNK         0.0600 
    205 H205       -1.8816  -25.7007  -49.0508 H         1 UNK         0.3000 
    206 H206       -1.8569  -27.5064  -51.3273 H         1 UNK         0.0600 
    207 H207       -1.1777  -25.1400  -51.4999 H         1 UNK         0.0600 
    208 H208       -2.5628  -25.4449  -52.5402 H         1 UNK         0.0600 
    209 H209       -2.7886  -24.6200  -50.9973 H         1 UNK         0.0600 
    210 H210       -4.3567  -26.3431  -49.1254 H         1 UNK         0.3000 
    211 H211       -6.5288  -26.5742  -48.9292 H         1 UNK         0.0600 
    212 H212       -6.4901  -28.8266  -51.0021 H         1 UNK         0.0600 
    213 H213       -7.7582  -28.4821  -49.8373 H         1 UNK         0.0600 
    214 H214       -6.1882  -29.0339  -49.2771 H         1 UNK         0.0600 
    215 H215       -5.4808  -24.5774  -50.5564 H         1 UNK         0.3000 
    216 H216       -7.8332  -23.7213  -52.0254 H         1 UNK         0.0600 
    217 H217       -5.0665  -23.8972  -53.3799 H         1 UNK         0.0600 
    218 H218       -6.4744  -23.0794  -54.0489 H         1 UNK         0.0600 
    219 H219       -6.4883  -24.8254  -53.8501 H         1 UNK         0.0600 
    220 H220       -7.8274  -21.4130  -52.1234 H         1 UNK         0.3000 
    221 H221       -7.0994  -20.0978  -49.8688 H         1 UNK         0.0600 
    222 H222       -7.6742  -18.9325  -52.6392 H         1 UNK         0.0600 
    223 H223       -8.8594  -19.3425  -51.3992 H         1 UNK         0.0600 
    224 H224       -7.7319  -18.0227  -51.1347 H         1 UNK         0.0600 
    225 H225       -5.0306  -20.2000  -49.1618 H         1 UNK         0.3000 
    226 H226       -2.8698  -19.8654  -48.8498 H         1 UNK         0.0600 
    227 H227       -3.5109  -17.4788  -48.7933 H         1 UNK         0.0600 
    228 H228       -1.8930  -17.6607  -49.4514 H         1 UNK         0.0600 
    229 H229       -3.2467  -17.3371  -50.5291 H         1 UNK         0.0600 
    230 H230       -3.5465  -21.6623  -50.9010 H         1 UNK         0.3000 
    231 H231       -2.7126  -22.9334  -52.4876 H         1 UNK         0.0600 
    232 H232       -0.0391  -21.4412  -52.3558 H         1 UNK         0.0600 
    233 H233       -0.3329  -23.0327  -53.0340 H         1 UNK         0.0600 
    234 H234       -0.4829  -22.7834  -51.3024 H         1 UNK         0.0600 
    235 H235       -4.2939  -20.8039  -53.0659 H         1 UNK         0.3000 
    236 H236       -5.3212  -19.7902  -54.7190 H         1 UNK         0.0600 
    237 H237       -5.0298  -20.5135  -57.0549 H         1 UNK         0.0600 
    238 H238       -3.5101  -21.3076  -56.6699 H         1 UNK         0.0600 
    239 H239       -5.0224  -21.9166  -55.9990 H         1 UNK         0.0600 
    240 H240       -3.6044  -18.2965  -53.3783 H         1 UNK         0.3000 
    241 H241       -1.8066  -16.8334  -55.1409 H         1 UNK         0.0600 
    242 H242       -3.5370  -13.7282  -55.6677 H         1 UNK         0.3800 
    243 H243       -1.9410  -14.4001  -55.4522 H         1 UNK         0.3800 
    244 H244       -2.4861  -15.8057  -52.3664 H         1 UNK         0.0800 
    245 H245       -1.5947  -17.2875  -52.4884 H         1 UNK         0.0800 
    246 H246        1.6787  -16.5511  -54.1588 H         1 UNK         0.0800 
    247 H247        0.4173  -17.7189  -53.8665 H         1 UNK         0.0800 
@<TRIPOS>BOND
     1    1    2 1    
     2    1  127 1    
     3    1  128 1    
     4    1  129 1    
     5    2    3 2    
     6    2    4 am   BACKBONE|DICT|INTERRES
     7    4    5 1    
     8    4  130 1    
     9    5    6 1    
    10    5   65 1    
    11    5  131 1    
    12    6    7 1    
    13    6  132 1    
    14    6  133 1    
    15    7    8 1    
    16    8    9 1    
    17    8  134 1    
    18    8  135 1    
    19    9   10 ar   
    20    9   14 ar   
    21   10   11 ar   
    22   10  136 1    
    23   11   12 ar   
    24   11  126 1    
    25   12   13 ar   
    26   12  137 1    
    27   13   14 ar   
    28   13   15 1    
    29   14  138 1    
    30   15   16 1    
    31   15  139 1    
    32   15  140 1    
    33   16   17 1    
    34   17   18 1    
    35   17  141 1    
    36   17  142 1    
    37   18   19 1    
    38   18   67 1    
    39   18  143 1    
    40   19   20 am   BACKBONE|DICT|INTERRES
    41   19  144 1    
    42   20   21 2    
    43   20   22 1    
    44   22   23 1    
    45   22   24 1    
    46   22  145 1    
    47   23  146 1    
    48   23  147 1    
    49   23  148 1    
    50   24   25 am   BACKBONE|DICT|INTERRES
    51   24  149 1    
    52   25   26 2    
    53   25   27 1    
    54   27   28 1    
    55   27   29 1    
    56   27  150 1    
    57   28  151 1    
    58   28  152 1    
    59   28  153 1    
    60   29   30 am   BACKBONE|DICT|INTERRES
    61   29  154 1    
    62   30   31 2    
    63   30   32 1    
    64   32   33 1    
    65   32   34 1    
    66   32  155 1    
    67   33  156 1    
    68   33  157 1    
    69   33  158 1    
    70   34   35 am   BACKBONE|DICT|INTERRES
    71   34  159 1    
    72   35   36 2    
    73   35   37 1    
    74   37   38 1    
    75   37   39 1    
    76   37  160 1    
    77   38  161 1    
    78   38  162 1    
    79   38  163 1    
    80   39   40 am   BACKBONE|DICT|INTERRES
    81   39  164 1    
    82   40   41 2    
    83   40   42 1    
    84   42   43 1    
    85   42   44 1    
    86   42  165 1    
    87   43  166 1    
    88   43  167 1    
    89   43  168 1    
    90   44   45 am   BACKBONE|DICT|INTERRES
    91   44  169 1    
    92   45   46 2    
    93   45   47 1    
    94   47   48 1    
    95   47   49 1    
    96   47  170 1    
    97   48  171 1    
    98   48  172 1    
    99   48  173 1    
   100   49   50 am   BACKBONE|DICT|INTERRES
   101   49  174 1    
   102   50   51 2    
   103   50   52 1    
   104   52   53 1    
   105   52   54 1    
   106   52  175 1    
   107   53  176 1    
   108   53  177 1    
   109   53  178 1    
   110   54   55 am   BACKBONE|DICT|INTERRES
   111   54  179 1    
   112   55   56 2    
   113   55   57 1    
   114   57   58 1    
   115   57   59 1    
   116   57  180 1    
   117   58  181 1    
   118   58  182 1    
   119   58  183 1    
   120   59   60 am   BACKBONE|DICT|INTERRES
   121   59  184 1    
   122   60   61 2    
   123   60   62 1    
   124   62   63 1    
   125   62   64 1    
   126   62  185 1    
   127   63  186 1    
   128   63  187 1    
   129   63  188 1    
   130   64   65 am   BACKBONE|DICT|INTERRES
   131   64  189 1    
   132   65   66 2    
   133   67   68 2    
   134   67   69 am   BACKBONE|DICT|INTERRES
   135   69   70 1    
   136   69  190 1    
   137   70   71 1    
   138   70   72 1    
   139   70  191 1    
   140   71  192 1    
   141   71  193 1    
   142   71  194 1    
   143   72   73 2    
   144   72   74 am   BACKBONE|DICT|INTERRES
   145   74   75 1    
   146   74  195 1    
   147   75   76 1    
   148   75   77 1    
   149   75  196 1    
   150   76  197 1    
   151   76  198 1    
   152   76  199 1    
   153   77   78 2    
   154   77   79 am   BACKBONE|DICT|INTERRES
   155   79   80 1    
   156   79  200 1    
   157   80   81 1    
   158   80   82 1    
   159   80  201 1    
   160   81  202 1    
   161   81  203 1    
   162   81  204 1    
   163   82   83 2    
   164   82   84 am   BACKBONE|DICT|INTERRES
   165   84   85 1    
   166   84  205 1    
   167   85   86 1    
   168   85   87 1    
   169   85  206 1    
   170   86  207 1    
   171   86  208 1    
   172   86  209 1    
   173   87   88 2    
   174   87   89 am   BACKBONE|DICT|INTERRES
   175   89   90 1    
   176   89  210 1    
   177   90   91 1    
   178   90   92 1    
   179   90  211 1    
   180   91  212 1    
   181   91  213 1    
   182   91  214 1    
   183   92   93 2    
   184   92   94 am   BACKBONE|DICT|INTERRES
   185   94   95 1    
   186   94  215 1    
   187   95   96 1    
   188   95   97 1    
   189   95  216 1    
   190   96  217 1    
   191   96  218 1    
   192   96  219 1    
   193   97   98 2    
   194   97   99 am   BACKBONE|DICT|INTERRES
   195   99  100 1    
   196   99  220 1    
   197  100  101 1    
   198  100  102 1    
   199  100  221 1    
   200  101  222 1    
   201  101  223 1    
   202  101  224 1    
   203  102  103 2    
   204  102  104 am   BACKBONE|DICT|INTERRES
   205  104  105 1    
   206  104  225 1    
   207  105  106 1    
   208  105  107 1    
   209  105  226 1    
   210  106  227 1    
   211  106  228 1    
   212  106  229 1    
   213  107  108 2    
   214  107  109 am   BACKBONE|DICT|INTERRES
   215  109  110 1    
   216  109  230 1    
   217  110  111 1    
   218  110  112 1    
   219  110  231 1    
   220  111  232 1    
   221  111  233 1    
   222  111  234 1    
   223  112  113 2    
   224  112  114 am   BACKBONE|DICT|INTERRES
   225  114  115 1    
   226  114  235 1    
   227  115  116 1    
   228  115  117 1    
   229  115  236 1    
   230  116  237 1    
   231  116  238 1    
   232  116  239 1    
   233  117  118 2    
   234  117  119 am   BACKBONE|DICT|INTERRES
   235  119  120 1    
   236  119  240 1    
   237  120  121 1    
   238  120  124 1    
   239  120  241 1    
   240  121  122 am   BACKBONE|DICT|INTERRES
   241  121  123 2    
   242  122  242 1    
   243  122  243 1    
   244  124  125 1    
   245  124  244 1    
   246  124  245 1    
   247  125  126 1    
   248  126  246 1    
   249  126  247 1    
@<TRIPOS>SUBSTRUCTURE
     1 UNK         1 GROUP             0       ****    0 ROOT    
