@<TRIPOS>MOLECULE
3R540
247   249    1
SMALL
USER_CHARGES


@<TRIPOS>ATOM
      1 CA         -3.1827  -13.1875  -51.3144 C.3       0 UNK        -0.1800 
      2 C          -2.7963  -12.7092  -49.9232 C.2       0 UNK         0.5000 
      3 O          -2.6833  -11.5028  -49.7025 O.2       0 UNK        -0.5000 
      4 N          -2.5885  -13.6476  -48.9894 N.am      1 UNK        -0.5000 
      5 CA         -2.1598  -13.4352  -47.6018 C.3       1 UNK         0.1400 
      6 C6         -3.0980  -12.4853  -46.8040 C.3       23 UNK        -0.0398 
      7 S7         -3.0368  -12.7417  -44.9980 S.3       23 UNK        -0.2404 
      8 C8         -4.6010  -13.6229  -44.6846 C.3       23 UNK        -0.0205 
      9 C9         -4.4690  -15.1120  -44.9625 C.ar      23 UNK        -0.0193 
     10 C10        -4.6530  -15.6116  -46.2534 C.ar      23 UNK        -0.1150 
     11 C11        -4.4850  -16.9729  -46.5156 C.ar      23 UNK        -0.0193 
     12 C12        -4.1478  -17.8410  -45.4719 C.ar      23 UNK        -0.1150 
     13 C13        -4.0101  -17.3629  -44.1618 C.ar      23 UNK        -0.0193 
     14 C14        -4.1626  -15.9937  -43.9226 C.ar      23 UNK        -0.1150 
     15 C15        -3.6831  -18.2821  -42.9845 C.3       23 UNK        -0.0205 
     16 S16        -4.3455  -19.9774  -43.1411 S.3       23 UNK        -0.2404 
     17 C17        -2.8487  -21.0230  -43.0818 C.3       23 UNK        -0.0398 
     18 CA         -2.6268  -21.8015  -44.4070 C.3       11 UNK         0.1400 
     19 N          -1.6693  -21.1425  -45.3057 N.am      11 UNK        -0.5000 
     20 C          -1.4007  -21.5344  -46.5598 C.2       10 UNK         0.5000 
     21 O          -1.9725  -22.4708  -47.1143 O.2       10 UNK        -0.5000 
     22 CA         -0.2807  -20.8037  -47.3152 C.3       10 UNK         0.1400 
     23 CB         -0.7769  -19.4638  -47.8668 C.3       10 UNK        -0.1800 
     24 N           0.9101  -20.6091  -46.4926 N.am      10 UNK        -0.5000 
     25 C           1.6922  -21.6065  -46.0573 C.2       9 UNK         0.5000 
     26 O           1.5174  -22.7880  -46.3548 O.2       9 UNK        -0.5000 
     27 CA          2.8378  -21.2318  -45.0990 C.3       9 UNK         0.1400 
     28 CB          4.0655  -20.7402  -45.8796 C.3       9 UNK        -0.1800 
     29 N           2.4465  -20.2271  -44.1093 N.am      9 UNK        -0.5000 
     30 C           1.4994  -20.4109  -43.1777 C.2       8 UNK         0.5000 
     31 O           0.8793  -21.4643  -43.0272 O.2       8 UNK        -0.5000 
     32 CA          1.1432  -19.1964  -42.3018 C.3       8 UNK         0.1400 
     33 CB          2.1894  -18.9936  -41.1961 C.3       8 UNK        -0.1800 
     34 N           0.9899  -17.9617  -43.0733 N.am      8 UNK        -0.5000 
     35 C           0.1026  -17.7899  -44.0650 C.2       7 UNK         0.5000 
     36 O          -0.6932  -18.6549  -44.4247 O.2       7 UNK        -0.5000 
     37 CA          0.1529  -16.4528  -44.8198 C.3       7 UNK         0.1400 
     38 CB         -0.4175  -15.3157  -43.9592 C.3       7 UNK        -0.1800 
     39 N           1.5115  -16.1183  -45.2368 N.am      7 UNK        -0.5000 
     40 C           2.2730  -16.8540  -46.0571 C.2       6 UNK         0.5000 
     41 O           1.8974  -17.8905  -46.6031 O.2       6 UNK        -0.5000 
     42 CA          3.7250  -16.3858  -46.2461 C.3       6 UNK         0.1400 
     43 CB          3.8136  -15.2514  -47.2788 C.3       6 UNK        -0.1800 
     44 N           4.3237  -15.9555  -44.9822 N.am      6 UNK        -0.5000 
     45 C           4.6156  -16.7763  -43.9629 C.2       5 UNK         0.5000 
     46 O           4.4463  -17.9954  -43.9945 O.2       5 UNK        -0.5000 
     47 CA          5.1573  -16.1170  -42.6811 C.3       5 UNK         0.1400 
     48 CB          6.6678  -15.8639  -42.7981 C.3       5 UNK        -0.1800 
     49 N           4.4772  -14.8597  -42.3657 N.am      5 UNK        -0.5000 
     50 C           3.1996  -14.7741  -41.9694 C.2       4 UNK         0.5000 
     51 O           2.4728  -15.7516  -41.7927 O.2       4 UNK        -0.5000 
     52 CA          2.6244  -13.3555  -41.7831 C.3       4 UNK         0.1400 
     53 CB          2.9369  -12.8278  -40.3749 C.3       4 UNK        -0.1800 
     54 N           3.0892  -12.3844  -42.7816 N.am      4 UNK        -0.5000 
     55 C           2.9204  -12.5165  -44.1040 C.2       3 UNK         0.5000 
     56 O           2.4186  -13.5127  -44.6237 O.2       3 UNK        -0.5000 
     57 CA          3.4542  -11.3784  -44.9938 C.3       3 UNK         0.1400 
     58 CB          4.9669  -11.5427  -45.2107 C.3       3 UNK        -0.1800 
     59 N           2.7974  -11.3557  -46.3025 N.am      3 UNK        -0.5000 
     60 C           1.5158  -11.0285  -46.5159 C.2       2 UNK         0.5000 
     61 O           0.7716  -10.5908  -45.6350 O.2       2 UNK        -0.5000 
     62 CA          0.9716  -11.1756  -47.9562 C.3       2 UNK         0.1400 
     63 CB          1.9336  -11.8826  -48.9387 C.3       2 UNK        -0.1800 
     64 N          -0.3491  -11.8113  -47.9797 N.am      2 UNK        -0.5000 
     65 C          -0.6707  -13.0340  -47.5315 C.2       1 UNK         0.5000 
     66 O           0.1505  -13.8508  -47.1191 O.2       1 UNK        -0.5000 
     67 C          -2.2474  -23.2731  -44.1349 C.2       11 UNK         0.5000 
     68 O          -3.1253  -24.1360  -44.1746 O.2       11 UNK        -0.5000 
     69 N          -0.9506  -23.5501  -43.9326 N.am      12 UNK        -0.5000 
     70 CA         -0.4029  -24.9045  -43.7930 C.3       12 UNK         0.1400 
     71 CB          1.0737  -24.8171  -43.3793 C.3       12 UNK        -0.1800 
     72 C          -0.5653  -25.7681  -45.0628 C.2       12 UNK         0.5000 
     73 O          -0.6565  -26.9912  -44.9574 O.2       12 UNK        -0.5000 
     74 N          -0.6420  -25.1146  -46.2286 N.am      13 UNK        -0.5000 
     75 CA         -0.9251  -25.7078  -47.5347 C.3       13 UNK         0.1400 
     76 CB         -0.0557  -24.9997  -48.5888 C.3       13 UNK        -0.1800 
     77 C          -2.4264  -25.6471  -47.8973 C.2       13 UNK         0.5000 
     78 O          -2.7632  -25.7822  -49.0742 O.2       13 UNK        -0.5000 
     79 N          -3.3001  -25.4309  -46.9002 N.am      14 UNK        -0.5000 
     80 CA         -4.7632  -25.3590  -46.9933 C.3       14 UNK         0.1400 
     81 CB         -5.3545  -26.7359  -47.3599 C.3       14 UNK        -0.1800 
     82 C          -5.2512  -24.2129  -47.9044 C.2       14 UNK         0.5000 
     83 O          -6.0793  -24.4273  -48.7907 O.2       14 UNK        -0.5000 
     84 N          -4.6988  -23.0161  -47.6601 N.am      15 UNK        -0.5000 
     85 CA         -4.8652  -21.7719  -48.4202 C.3       15 UNK         0.1400 
     86 CB         -6.3308  -21.2898  -48.4185 C.3       15 UNK        -0.1800 
     87 C          -4.2469  -21.8733  -49.8288 C.2       15 UNK         0.5000 
     88 O          -4.8155  -21.3617  -50.7946 O.2       15 UNK        -0.5000 
     89 N          -3.0810  -22.5351  -49.9001 N.am      16 UNK        -0.5000 
     90 CA         -2.3204  -22.8769  -51.1056 C.3       16 UNK         0.1400 
     91 CB         -1.7029  -21.6113  -51.7344 C.3       16 UNK        -0.1800 
     92 C          -3.1673  -23.6953  -52.1007 C.2       16 UNK         0.5000 
     93 O          -3.3798  -23.2649  -53.2363 O.2       16 UNK        -0.5000 
     94 N          -3.6706  -24.8454  -51.6323 N.am      17 UNK        -0.5000 
     95 CA         -4.5551  -25.7502  -52.3685 C.3       17 UNK         0.1400 
     96 CB         -4.9099  -26.9458  -51.4737 C.3       17 UNK        -0.1800 
     97 C          -3.9636  -26.2309  -53.7073 C.2       17 UNK         0.5000 
     98 O          -2.7468  -26.3978  -53.8231 O.2       17 UNK        -0.5000 
     99 N          -4.8457  -26.4146  -54.6988 N.am      18 UNK        -0.5000 
    100 CA        -4.5948  -26.7554  -56.1073 C.3       18 UNK         0.1400 
    101 CB        -3.8263  -28.0831  -56.2532 C.3       18 UNK        -0.1800 
    102 C         -3.9296  -25.6253  -56.9204 C.2       18 UNK         0.5000 
    103 O         -4.3297  -25.3948  -58.0622 O.2       18 UNK        -0.5000 
    104 N         -2.9538  -24.9269  -56.3266 N.am      19 UNK        -0.5000 
    105 CA        -2.2942  -23.7538  -56.8996 C.3       19 UNK         0.1400 
    106 CB        -1.0051  -23.4637  -56.1140 C.3       19 UNK        -0.1800 
    107 C         -3.2094  -22.5156  -56.9095 C.2       19 UNK         0.5000 
    108 O         -3.1971  -21.7602  -57.8816 O.2       19 UNK        -0.5000 
    109 N         -3.9699  -22.3339  -55.8182 N.am      20 UNK        -0.5000 
    110 CA        -4.8787  -21.2190  -55.5235 C.3       20 UNK         0.1400 
    111 CB        -6.0422  -21.1678  -56.5348 C.3       20 UNK        -0.1800 
    112 C         -4.1558  -19.8626  -55.3709 C.2       20 UNK         0.5000 
    113 O         -4.7798  -18.8098  -55.5185 O.2       20 UNK        -0.5000 
    114 N         -2.8529  -19.9074  -55.0550 N.am      21 UNK        -0.5000 
    115 CA        -1.9502  -18.7550  -54.9750 C.3       21 UNK         0.1400 
    116 CB        -0.5135  -19.2649  -54.7842 C.3       21 UNK        -0.1800 
    117 C         -2.3137  -17.7381  -53.8758 C.2       21 UNK         0.5000 
    118 O         -1.9530  -16.5666  -53.9932 O.2       21 UNK        -0.5000 
    119 N         -3.0277  -18.2000  -52.8426 N.am      22 UNK        -0.5000 
    120 CA        -3.5693  -17.3722  -51.7565 C.3       22 UNK         0.1400 
    121 C         -4.9272  -16.6847  -52.0982 C.2       22 UNK         0.5000 
    122 N         -5.5252  -16.9160  -53.2623 N.am      22 UNK        -0.7600 
    123 O         -5.4466  -15.9138  -51.2972 O.2       22 UNK        -0.5000 
    124 C124       -3.6286  -18.1761  -50.4318 C.3       23 UNK        -0.0398 
    125 S125       -3.2316  -17.1651  -48.9658 S.3       23 UNK        -0.2404 
    126 C126       -4.6811  -17.5034  -47.9253 C.3       23 UNK        -0.0205 
    127 H127       -2.9604  -14.2445  -51.4503 H         1 UNK         0.0600 
    128 H128       -2.6334  -12.6294  -52.0727 H         1 UNK         0.0600 
    129 H129       -4.2491  -13.0366  -51.4817 H         1 UNK         0.0600 
    130 H130       -2.6933  -14.6200  -49.2476 H         1 UNK         0.3000 
    131 H131       -2.2295  -14.4230  -47.1430 H         1 UNK         0.0600 
    132 H132       -4.1270  -12.6219  -47.1370 H         1 UNK         0.0800 
    133 H133       -2.8737  -11.4374  -47.0065 H         1 UNK         0.0800 
    134 H134       -4.8821  -13.4665  -43.6421 H         1 UNK         0.0800 
    135 H135       -5.4091  -13.1925  -45.2779 H         1 UNK         0.0800 
    136 H136       -4.9070  -14.9405  -47.0616 H         1 UNK         0.1150 
    137 H137       -4.0052  -18.8913  -45.6816 H         1 UNK         0.1150 
    138 H138       -4.0330  -15.6084  -42.9209 H         1 UNK         0.1150 
    139 H139       -2.6075  -18.2916  -42.8258 H         1 UNK         0.0800 
    140 H140       -4.1078  -17.8606  -42.0722 H         1 UNK         0.0800 
    141 H141       -3.0005  -21.6989  -42.2376 H         1 UNK         0.0800 
    142 H142       -1.9665  -20.4401  -42.8176 H         1 UNK         0.0800 
    143 H143       -3.5749  -21.8434  -44.9474 H         1 UNK         0.0600 
    144 H144       -1.1898  -20.3209  -44.9400 H         1 UNK         0.3000 
    145 H145        0.0023  -21.4259  -48.1668 H         1 UNK         0.0600 
    146 H146       -1.0760  -18.7784  -47.0734 H         1 UNK         0.0600 
    147 H147       -0.0095  -18.9708  -48.4635 H         1 UNK         0.0600 
    148 H148       -1.6412  -19.6195  -48.5112 H         1 UNK         0.0600 
    149 H149        1.1467  -19.6509  -46.2502 H         1 UNK         0.3000 
    150 H150        3.1222  -22.1359  -44.5569 H         1 UNK         0.0600 
    151 H151        4.9078  -20.5551  -45.2128 H         1 UNK         0.0600 
    152 H152        4.3863  -21.4826  -46.6114 H         1 UNK         0.0600 
    153 H153        3.8571  -19.8157  -46.4185 H         1 UNK         0.0600 
    154 H154        2.9311  -19.3360  -44.1498 H         1 UNK         0.3000 
    155 H155        0.1838  -19.4049  -41.8246 H         1 UNK         0.0600 
    156 H156        2.3165  -19.9021  -40.6061 H         1 UNK         0.0600 
    157 H157        1.8887  -18.2008  -40.5110 H         1 UNK         0.0600 
    158 H158        3.1639  -18.7281  -41.6067 H         1 UNK         0.0600 
    159 H159        1.5971  -17.1885  -42.8172 H         1 UNK         0.3000 
    160 H160       -0.4606  -16.5446  -45.7186 H         1 UNK         0.0600 
    161 H161       -0.4185  -14.3715  -44.5031 H         1 UNK         0.0600 
    162 H162        0.1563  -15.1698  -43.0450 H         1 UNK         0.0600 
    163 H163       -1.4459  -15.5252  -43.6690 H         1 UNK         0.0600 
    164 H164        1.8826  -15.2315  -44.9013 H         1 UNK         0.3000 
    165 H165        4.3030  -17.2321  -46.6234 H         1 UNK         0.0600 
    166 H166        3.2472  -14.3746  -46.9660 H         1 UNK         0.0600 
    167 H167        4.8465  -14.9445  -47.4429 H         1 UNK         0.0600 
    168 H168        3.4108  -15.5709  -48.2406 H         1 UNK         0.0600 
    169 H169        4.4213  -14.9610  -44.8449 H         1 UNK         0.3000 
    170 H170        4.9918  -16.8115  -41.8546 H         1 UNK         0.0600 
    171 H171        6.8988  -15.1542  -43.5935 H         1 UNK         0.0600 
    172 H172        7.0743  -15.4691  -41.8668 H         1 UNK         0.0600 
    173 H173        7.2019  -16.7893  -43.0181 H         1 UNK         0.0600 
    174 H174        5.0036  -14.0074  -42.4874 H         1 UNK         0.3000 
    175 H175        1.5398  -13.4300  -41.8830 H         1 UNK         0.0600 
    176 H176        4.0083  -12.6899  -40.2244 H         1 UNK         0.0600 
    177 H177        2.4457  -11.8717  -40.1936 H         1 UNK         0.0600 
    178 H178        2.5845  -13.5221  -39.6108 H         1 UNK         0.0600 
    179 H179        3.5289  -11.5484  -42.4243 H         1 UNK         0.3000 
    180 H180        3.2663  -10.4259  -44.4941 H         1 UNK         0.0600 
    181 H181        5.2026  -12.4831  -45.7110 H         1 UNK         0.0600 
    182 H182        5.5051  -11.5317  -44.2621 H         1 UNK         0.0600 
    183 H183        5.3684  -10.7309  -45.8176 H         1 UNK         0.0600 
    184 H184        3.3272  -11.7303  -47.0748 H         1 UNK         0.3000 
    185 H185        0.8220  -10.1592  -48.3226 H         1 UNK         0.0600 
    186 H186        1.4928  -11.9465  -49.9337 H         1 UNK         0.0600 
    187 H187        2.8702  -11.3337  -49.0428 H         1 UNK         0.0600 
    188 H188        2.1730  -12.8976  -48.6213 H         1 UNK         0.0600 
    189 H189       -1.1003  -11.2533  -48.3699 H         1 UNK         0.3000 
    190 H190       -0.2872  -22.7828  -43.8616 H         1 UNK         0.3000 
    191 H191       -0.9502  -25.4016  -42.9895 H         1 UNK         0.0600 
    192 H192        1.6747  -24.3131  -44.1361 H         1 UNK         0.0600 
    193 H193        1.1892  -24.2712  -42.4428 H         1 UNK         0.0600 
    194 H194        1.4980  -25.8108  -43.2312 H         1 UNK         0.0600 
    195 H195       -0.5501  -24.1067  -46.2175 H         1 UNK         0.3000 
    196 H196       -0.6451  -26.7628  -47.5263 H         1 UNK         0.0600 
    197 H197        1.0022  -25.0721  -48.3358 H         1 UNK         0.0600 
    198 H198       -0.3033  -23.9415  -48.6700 H         1 UNK         0.0600 
    199 H199       -0.1823  -25.4478  -49.5750 H         1 UNK         0.0600 
    200 H200       -2.9259  -25.2687  -45.9729 H         1 UNK         0.3000 
    201 H201       -5.1194  -25.1135  -45.9917 H         1 UNK         0.0600 
    202 H202       -6.4445  -26.7047  -47.3731 H         1 UNK         0.0600 
    203 H203       -5.0619  -27.4928  -46.6322 H         1 UNK         0.0600 
    204 H204       -5.0237  -27.0745  -48.3409 H         1 UNK         0.0600 
    205 H205       -3.9436  -22.9918  -46.9848 H         1 UNK         0.3000 
    206 H206       -4.2792  -21.0181  -47.8927 H         1 UNK         0.0600 
    207 H207       -6.7202  -21.2174  -47.4031 H         1 UNK         0.0600 
    208 H208       -6.4167  -20.3009  -48.8700 H         1 UNK         0.0600 
    209 H209       -6.9814  -21.9583  -48.9824 H         1 UNK         0.0600 
    210 H210       -2.7060  -22.8909  -49.0283 H         1 UNK         0.3000 
    211 H211       -1.5009  -23.5229  -50.7899 H         1 UNK         0.0600 
    212 H212       -1.0987  -21.0642  -51.0107 H         1 UNK         0.0600 
    213 H213       -1.0538  -21.8732  -52.5705 H         1 UNK         0.0600 
    214 H214       -2.4675  -20.9349  -52.1140 H         1 UNK         0.0600 
    215 H215       -3.4190  -25.1377  -50.6903 H         1 UNK         0.3000 
    216 H216       -5.4715  -25.1952  -52.5792 H         1 UNK         0.0600 
    217 H217       -5.5482  -27.6581  -51.9979 H         1 UNK         0.0600 
    218 H218       -4.0176  -27.4800  -51.1447 H         1 UNK         0.0600 
    219 H219       -5.4526  -26.6175  -50.5879 H         1 UNK         0.0600 
    220 H220       -5.8176  -26.2327  -54.4889 H         1 UNK         0.3000 
    221 H221       -5.5825  -26.9079  -56.5455 H         1 UNK         0.0600 
    222 H222       -2.8010  -28.0075  -55.8908 H         1 UNK         0.0600 
    223 H223       -4.3187  -28.8865  -55.7052 H         1 UNK         0.0600 
    224 H224       -3.7761  -28.3865  -57.2996 H         1 UNK         0.0600 
    225 H225       -2.6798  -25.2059  -55.3896 H         1 UNK         0.3000 
    226 H226       -2.0215  -23.9795  -57.9328 H         1 UNK         0.0600 
    227 H227       -0.3152  -24.3061  -56.1670 H         1 UNK         0.0600 
    228 H228       -0.4871  -22.5936  -56.5195 H         1 UNK         0.0600 
    229 H229       -1.2082  -23.2651  -55.0609 H         1 UNK         0.0600 
    230 H230       -3.8298  -22.9693  -55.0354 H         1 UNK         0.3000 
    231 H231       -5.3063  -21.4374  -54.5438 H         1 UNK         0.0600 
    232 H232       -6.8012  -20.4502  -56.2215 H         1 UNK         0.0600 
    233 H233       -6.5312  -22.1381  -56.6220 H         1 UNK         0.0600 
    234 H234       -5.7046  -20.8710  -57.5280 H         1 UNK         0.0600 
    235 H235       -2.4354  -20.8175  -54.9302 H         1 UNK         0.3000 
    236 H236       -2.0025  -18.2304  -55.9312 H         1 UNK         0.0600 
    237 H237       -0.2186  -19.9309  -55.5954 H         1 UNK         0.0600 
    238 H238        0.1962  -18.4366  -54.7718 H         1 UNK         0.0600 
    239 H239       -0.3997  -19.8067  -53.8449 H         1 UNK         0.0600 
    240 H240       -3.3061  -19.1697  -52.8500 H         1 UNK         0.3000 
    241 H241       -2.8602  -16.5569  -51.6087 H         1 UNK         0.0600 
    242 H242       -6.3985  -16.4550  -53.4618 H         1 UNK         0.3800 
    243 H243       -5.1232  -17.5377  -53.9548 H         1 UNK         0.3800 
    244 H244       -4.5959  -18.6678  -50.3150 H         1 UNK         0.0800 
    245 H245       -2.8947  -18.9823  -50.4473 H         1 UNK         0.0800 
    246 H246       -4.8652  -18.5774  -47.8948 H         1 UNK         0.0800 
    247 H247       -5.5644  -17.0480  -48.3760 H         1 UNK         0.0800 
@<TRIPOS>BOND
     1    1    2 1    
     2    1  127 1    
     3    1  128 1    
     4    1  129 1    
     5    2    3 2    
     6    2    4 am   BACKBONE|DICT|INTERRES
     7    4    5 1    
     8    4  130 1    
     9    5    6 1    
    10    5   65 1    
    11    5  131 1    
    12    6    7 1    
    13    6  132 1    
    14    6  133 1    
    15    7    8 1    
    16    8    9 1    
    17    8  134 1    
    18    8  135 1    
    19    9   10 ar   
    20    9   14 ar   
    21   10   11 ar   
    22   10  136 1    
    23   11   12 ar   
    24   11  126 1    
    25   12   13 ar   
    26   12  137 1    
    27   13   14 ar   
    28   13   15 1    
    29   14  138 1    
    30   15   16 1    
    31   15  139 1    
    32   15  140 1    
    33   16   17 1    
    34   17   18 1    
    35   17  141 1    
    36   17  142 1    
    37   18   19 1    
    38   18   67 1    
    39   18  143 1    
    40   19   20 am   BACKBONE|DICT|INTERRES
    41   19  144 1    
    42   20   21 2    
    43   20   22 1    
    44   22   23 1    
    45   22   24 1    
    46   22  145 1    
    47   23  146 1    
    48   23  147 1    
    49   23  148 1    
    50   24   25 am   BACKBONE|DICT|INTERRES
    51   24  149 1    
    52   25   26 2    
    53   25   27 1    
    54   27   28 1    
    55   27   29 1    
    56   27  150 1    
    57   28  151 1    
    58   28  152 1    
    59   28  153 1    
    60   29   30 am   BACKBONE|DICT|INTERRES
    61   29  154 1    
    62   30   31 2    
    63   30   32 1    
    64   32   33 1    
    65   32   34 1    
    66   32  155 1    
    67   33  156 1    
    68   33  157 1    
    69   33  158 1    
    70   34   35 am   BACKBONE|DICT|INTERRES
    71   34  159 1    
    72   35   36 2    
    73   35   37 1    
    74   37   38 1    
    75   37   39 1    
    76   37  160 1    
    77   38  161 1    
    78   38  162 1    
    79   38  163 1    
    80   39   40 am   BACKBONE|DICT|INTERRES
    81   39  164 1    
    82   40   41 2    
    83   40   42 1    
    84   42   43 1    
    85   42   44 1    
    86   42  165 1    
    87   43  166 1    
    88   43  167 1    
    89   43  168 1    
    90   44   45 am   BACKBONE|DICT|INTERRES
    91   44  169 1    
    92   45   46 2    
    93   45   47 1    
    94   47   48 1    
    95   47   49 1    
    96   47  170 1    
    97   48  171 1    
    98   48  172 1    
    99   48  173 1    
   100   49   50 am   BACKBONE|DICT|INTERRES
   101   49  174 1    
   102   50   51 2    
   103   50   52 1    
   104   52   53 1    
   105   52   54 1    
   106   52  175 1    
   107   53  176 1    
   108   53  177 1    
   109   53  178 1    
   110   54   55 am   BACKBONE|DICT|INTERRES
   111   54  179 1    
   112   55   56 2    
   113   55   57 1    
   114   57   58 1    
   115   57   59 1    
   116   57  180 1    
   117   58  181 1    
   118   58  182 1    
   119   58  183 1    
   120   59   60 am   BACKBONE|DICT|INTERRES
   121   59  184 1    
   122   60   61 2    
   123   60   62 1    
   124   62   63 1    
   125   62   64 1    
   126   62  185 1    
   127   63  186 1    
   128   63  187 1    
   129   63  188 1    
   130   64   65 am   BACKBONE|DICT|INTERRES
   131   64  189 1    
   132   65   66 2    
   133   67   68 2    
   134   67   69 am   BACKBONE|DICT|INTERRES
   135   69   70 1    
   136   69  190 1    
   137   70   71 1    
   138   70   72 1    
   139   70  191 1    
   140   71  192 1    
   141   71  193 1    
   142   71  194 1    
   143   72   73 2    
   144   72   74 am   BACKBONE|DICT|INTERRES
   145   74   75 1    
   146   74  195 1    
   147   75   76 1    
   148   75   77 1    
   149   75  196 1    
   150   76  197 1    
   151   76  198 1    
   152   76  199 1    
   153   77   78 2    
   154   77   79 am   BACKBONE|DICT|INTERRES
   155   79   80 1    
   156   79  200 1    
   157   80   81 1    
   158   80   82 1    
   159   80  201 1    
   160   81  202 1    
   161   81  203 1    
   162   81  204 1    
   163   82   83 2    
   164   82   84 am   BACKBONE|DICT|INTERRES
   165   84   85 1    
   166   84  205 1    
   167   85   86 1    
   168   85   87 1    
   169   85  206 1    
   170   86  207 1    
   171   86  208 1    
   172   86  209 1    
   173   87   88 2    
   174   87   89 am   BACKBONE|DICT|INTERRES
   175   89   90 1    
   176   89  210 1    
   177   90   91 1    
   178   90   92 1    
   179   90  211 1    
   180   91  212 1    
   181   91  213 1    
   182   91  214 1    
   183   92   93 2    
   184   92   94 am   BACKBONE|DICT|INTERRES
   185   94   95 1    
   186   94  215 1    
   187   95   96 1    
   188   95   97 1    
   189   95  216 1    
   190   96  217 1    
   191   96  218 1    
   192   96  219 1    
   193   97   98 2    
   194   97   99 am   BACKBONE|DICT|INTERRES
   195   99  100 1    
   196   99  220 1    
   197  100  101 1    
   198  100  102 1    
   199  100  221 1    
   200  101  222 1    
   201  101  223 1    
   202  101  224 1    
   203  102  103 2    
   204  102  104 am   BACKBONE|DICT|INTERRES
   205  104  105 1    
   206  104  225 1    
   207  105  106 1    
   208  105  107 1    
   209  105  226 1    
   210  106  227 1    
   211  106  228 1    
   212  106  229 1    
   213  107  108 2    
   214  107  109 am   BACKBONE|DICT|INTERRES
   215  109  110 1    
   216  109  230 1    
   217  110  111 1    
   218  110  112 1    
   219  110  231 1    
   220  111  232 1    
   221  111  233 1    
   222  111  234 1    
   223  112  113 2    
   224  112  114 am   BACKBONE|DICT|INTERRES
   225  114  115 1    
   226  114  235 1    
   227  115  116 1    
   228  115  117 1    
   229  115  236 1    
   230  116  237 1    
   231  116  238 1    
   232  116  239 1    
   233  117  118 2    
   234  117  119 am   BACKBONE|DICT|INTERRES
   235  119  120 1    
   236  119  240 1    
   237  120  121 1    
   238  120  124 1    
   239  120  241 1    
   240  121  122 am   BACKBONE|DICT|INTERRES
   241  121  123 2    
   242  122  242 1    
   243  122  243 1    
   244  124  125 1    
   245  124  244 1    
   246  124  245 1    
   247  125  126 1    
   248  126  246 1    
   249  126  247 1    
@<TRIPOS>SUBSTRUCTURE
     1 UNK         1 GROUP             0       ****    0 ROOT    
