@<TRIPOS>MOLECULE
3R540
247   249    1
SMALL
USER_CHARGES


@<TRIPOS>ATOM
      1 CA          4.3232  -17.4629  -47.2413 C.3       0 UNK        -0.1800 
      2 C           3.1058  -16.7747  -47.8410 C.2       0 UNK         0.5000 
      3 O           3.1772  -16.3028  -48.9752 O.2       0 UNK        -0.5000 
      4 N           2.0004  -16.7071  -47.0833 N.am      1 UNK        -0.5000 
      5 CA          0.7340  -16.0604  -47.4632 C.3       1 UNK         0.1400 
      6 C6         -0.0111  -16.7878  -48.6151 C.3       23 UNK        -0.0398 
      7 S7         -0.8178  -18.3162  -48.0305 S.3       23 UNK        -0.2404 
      8 C8         -2.5598  -17.7972  -48.0897 C.3       23 UNK        -0.0205 
      9 C9         -3.4956  -18.8983  -47.6220 C.ar      23 UNK        -0.0193 
     10 C10        -4.0947  -19.7577  -48.5481 C.ar      23 UNK        -0.1150 
     11 C11        -4.9862  -20.7471  -48.1225 C.ar      23 UNK        -0.0193 
     12 C12        -5.2594  -20.8842  -46.7585 C.ar      23 UNK        -0.1150 
     13 C13        -4.6518  -20.0423  -45.8215 C.ar      23 UNK        -0.0193 
     14 C14        -3.7805  -19.0422  -46.2616 C.ar      23 UNK        -0.1150 
     15 C15        -4.9381  -20.2150  -44.3365 C.3       23 UNK        -0.0205 
     16 S16        -4.3434  -21.8184  -43.7078 S.3       23 UNK        -0.2404 
     17 C17        -2.5408  -21.5451  -43.5663 C.3       23 UNK        -0.0398 
     18 CA         -1.7329  -21.7136  -44.8771 C.3       11 UNK         0.1400 
     19 N          -0.3000  -21.4946  -44.6690 N.am      11 UNK        -0.5000 
     20 C           0.6062  -21.4415  -45.6578 C.2       10 UNK         0.5000 
     21 O           0.3057  -21.5234  -46.8503 O.2       10 UNK        -0.5000 
     22 CA          2.0869  -21.2867  -45.2664 C.3       10 UNK         0.1400 
     23 CB          2.8309  -20.3661  -46.2413 C.3       10 UNK        -0.1800 
     24 N           2.2448  -20.7693  -43.9066 N.am      10 UNK        -0.5000 
     25 C           2.7161  -21.4795  -42.8736 C.2       9 UNK         0.5000 
     26 O           3.0985  -22.6470  -42.9589 O.2       9 UNK        -0.5000 
     27 CA          2.7496  -20.7803  -41.5022 C.3       9 UNK         0.1400 
     28 CB          4.1021  -20.0867  -41.2841 C.3       9 UNK        -0.1800 
     29 N           1.6714  -19.8107  -41.2985 N.am      9 UNK        -0.5000 
     30 C           0.3653  -20.1098  -41.2633 C.2       8 UNK         0.5000 
     31 O          -0.0843  -21.2309  -41.4981 O.2       8 UNK        -0.5000 
     32 CA         -0.5989  -18.9639  -40.9243 C.3       8 UNK         0.1400 
     33 CB         -0.6048  -18.6910  -39.4119 C.3       8 UNK        -0.1800 
     34 N          -0.2280  -17.7418  -41.6319 N.am      8 UNK        -0.5000 
     35 C          -0.7548  -17.3483  -42.7980 C.2       7 UNK         0.5000 
     36 O          -1.6343  -17.9656  -43.3977 O.2       7 UNK        -0.5000 
     37 CA         -0.2148  -16.0342  -43.3946 C.3       7 UNK         0.1400 
     38 CB         -1.0263  -14.8452  -42.8590 C.3       7 UNK        -0.1800 
     39 N           1.2053  -15.7963  -43.1290 N.am      7 UNK        -0.5000 
     40 C           2.2219  -16.5878  -43.4928 C.2       6 UNK         0.5000 
     41 O           2.0971  -17.5759  -44.2182 O.2       6 UNK        -0.5000 
     42 CA          3.6082  -16.2315  -42.9168 C.3       6 UNK         0.1400 
     43 CB          4.3889  -15.3333  -43.8886 C.3       6 UNK        -0.1800 
     44 N           3.5705  -15.6000  -41.5885 N.am      6 UNK        -0.5000 
     45 C           3.0167  -16.1322  -40.4880 C.2       5 UNK         0.5000 
     46 O           2.4252  -17.2110  -40.4880 O.2       5 UNK        -0.5000 
     47 CA          3.1091  -15.3454  -39.1653 C.3       5 UNK         0.1400 
     48 CB          3.9916  -16.1091  -38.1659 C.3       5 UNK        -0.1800 
     49 N           3.6464  -13.9896  -39.3140 N.am      5 UNK        -0.5000 
     50 C           2.9916  -12.8678  -39.6473 C.2       4 UNK         0.5000 
     51 O           3.5804  -11.7872  -39.7004 O.2       4 UNK        -0.5000 
     52 CA          1.4723  -12.9023  -39.9523 C.3       4 UNK         0.1400 
     53 CB          0.6576  -12.5639  -38.6949 C.3       4 UNK        -0.1800 
     54 N           1.1276  -11.9538  -41.0149 N.am      4 UNK        -0.5000 
     55 C           1.5450  -12.0879  -42.2790 C.2       3 UNK         0.5000 
     56 O           2.1295  -13.0975  -42.6775 O.2       3 UNK        -0.5000 
     57 CA          1.2893  -10.9078  -43.2397 C.3       3 UNK         0.1400 
     58 CB          2.0146   -9.6389  -42.7600 C.3       3 UNK        -0.1800 
     59 N           1.7677  -11.2282  -44.5856 N.am      3 UNK        -0.5000 
     60 C           1.1058  -11.9786  -45.4739 C.2       2 UNK         0.5000 
     61 O          -0.0735  -12.3095  -45.3354 O.2       2 UNK        -0.5000 
     62 CA          1.8876  -12.4668  -46.7106 C.3       2 UNK         0.1400 
     63 CB          3.3988  -12.1586  -46.6677 C.3       2 UNK        -0.1800 
     64 N           1.7121  -13.9125  -46.8185 N.am      2 UNK        -0.5000 
     65 C           0.8931  -14.5349  -47.6753 C.2       1 UNK         0.5000 
     66 O           0.2764  -13.9560  -48.5716 O.2       1 UNK        -0.5000 
     67 C          -1.9728  -23.0704  -45.5722 C.2       11 UNK         0.5000 
     68 O          -1.5129  -24.1017  -45.0767 O.2       11 UNK        -0.5000 
     69 N          -2.6454  -23.0128  -46.7296 N.am      12 UNK        -0.5000 
     70 CA         -2.9062  -24.1146  -47.6582 C.3       12 UNK         0.1400 
     71 CB         -3.7833  -25.2021  -47.0037 C.3       12 UNK        -0.1800 
     72 C          -1.6353  -24.6785  -48.3325 C.2       12 UNK         0.5000 
     73 O          -1.6603  -25.8166  -48.8040 O.2       12 UNK        -0.5000 
     74 N          -0.5610  -23.8778  -48.3987 N.am      13 UNK        -0.5000 
     75 CA          0.7230  -24.2599  -48.9892 C.3       13 UNK         0.1400 
     76 CB          1.6836  -24.6794  -47.8617 C.3       13 UNK        -0.1800 
     77 C           1.3405  -23.1589  -49.8743 C.2       13 UNK         0.5000 
     78 O           2.4390  -23.3693  -50.3918 O.2       13 UNK        -0.5000 
     79 N           0.6591  -22.0193  -50.0543 N.am      14 UNK        -0.5000 
     80 CA          1.1390  -20.8872  -50.8443 C.3       14 UNK         0.1400 
     81 CB          2.0706  -20.0129  -49.9822 C.3       14 UNK        -0.1800 
     82 C          -0.0353  -20.0708  -51.4044 C.2       14 UNK         0.5000 
     83 O          -1.1800  -20.2540  -50.9788 O.2       14 UNK        -0.5000 
     84 N           0.2923  -19.1786  -52.3519 N.am      15 UNK        -0.5000 
     85 CA         -0.5776  -18.1970  -53.0070 C.3       15 UNK         0.1400 
     86 CB         -0.8612  -17.0228  -52.0460 C.3       15 UNK        -0.1800 
     87 C          -1.8477  -18.8381  -53.5979 C.2       15 UNK         0.5000 
     88 O          -1.7418  -19.6304  -54.5369 O.2       15 UNK        -0.5000 
     89 N          -3.0142  -18.5183  -53.0193 N.am      16 UNK        -0.5000 
     90 CA         -4.3349  -19.0203  -53.3986 C.3       16 UNK         0.1400 
     91 CB         -5.3946  -18.4140  -52.4673 C.3       16 UNK        -0.1800 
     92 C          -4.4486  -20.5533  -53.3989 C.2       16 UNK         0.5000 
     93 O          -5.2216  -21.0891  -54.1927 O.2       16 UNK        -0.5000 
     94 N          -3.6626  -21.2341  -52.5511 N.am      17 UNK        -0.5000 
     95 CA         -3.5904  -22.6945  -52.4788 C.3       17 UNK         0.1400 
     96 CB         -2.7056  -23.0979  -51.2927 C.3       17 UNK        -0.1800 
     97 C          -3.0495  -23.3368  -53.7688 C.2       17 UNK         0.5000 
     98 O          -3.4692  -24.4399  -54.1158 O.2       17 UNK        -0.5000 
     99 N          -2.1402  -22.6324  -54.4530 N.am      18 UNK        -0.5000 
    100 CA        -1.5676  -23.0470  -55.7294 C.3       18 UNK         0.1400 
    101 CB        -0.0933  -22.6154  -55.7810 C.3       18 UNK        -0.1800 
    102 C         -2.3507  -22.4428  -56.9051 C.2       18 UNK         0.5000 
    103 O         -2.5995  -23.1380  -57.8904 O.2       18 UNK        -0.5000 
    104 N         -2.7126  -21.1581  -56.7869 N.am      19 UNK        -0.5000 
    105 CA        -3.3203  -20.3730  -57.8596 C.3       19 UNK         0.1400 
    106 CB        -3.1748  -18.8795  -57.5301 C.3       19 UNK        -0.1800 
    107 C         -4.7933  -20.7171  -58.1437 C.2       19 UNK         0.5000 
    108 O         -5.2117  -20.6182  -59.2983 O.2       19 UNK        -0.5000 
    109 N         -5.5595  -21.0789  -57.1055 N.am      20 UNK        -0.5000 
    110 CA        -7.0155  -21.2314  -57.1857 C.3       20 UNK         0.1400 
    111 CB        -7.6702  -19.8898  -56.8026 C.3       20 UNK        -0.1800 
    112 C         -7.5552  -22.3854  -56.3221 C.2       20 UNK         0.5000 
    113 O         -8.7672  -22.4535  -56.1100 O.2       20 UNK        -0.5000 
    114 N         -6.6684  -23.2467  -55.7975 N.am      21 UNK        -0.5000 
    115 CA        -6.9626  -24.3411  -54.8565 C.3       21 UNK         0.1400 
    116 CB        -7.7386  -25.4697  -55.5664 C.3       21 UNK        -0.1800 
    117 C         -7.6579  -23.8620  -53.5586 C.2       21 UNK         0.5000 
    118 O         -8.4528  -24.5960  -52.9695 O.2       21 UNK        -0.5000 
    119 N         -7.3563  -22.6206  -53.1571 N.am      22 UNK        -0.5000 
    120 CA        -8.0002  -21.8528  -52.0818 C.3       22 UNK         0.1400 
    121 C         -9.4696  -21.4124  -52.3763 C.2       22 UNK         0.5000 
    122 N         -9.9700  -21.5178  -53.6022 N.am      22 UNK        -0.7600 
    123 O        -10.1686  -20.9364  -51.4862 O.2       22 UNK        -0.5000 
    124 C124       -7.8181  -22.5045  -50.6800 C.3       23 UNK        -0.0398 
    125 S125       -7.3894  -21.2757  -49.3982 S.3       23 UNK        -0.2404 
    126 C126       -5.6397  -21.6815  -49.1284 C.3       23 UNK        -0.0205 
    127 H127        4.5600  -18.3634  -47.8080 H         1 UNK         0.0600 
    128 H128        4.1601  -17.7457  -46.2018 H         1 UNK         0.0600 
    129 H129        5.1865  -16.7986  -47.2788 H         1 UNK         0.0600 
    130 H130        2.0076  -17.1323  -46.1609 H         1 UNK         0.3000 
    131 H131        0.0927  -16.1307  -46.5880 H         1 UNK         0.0600 
    132 H132        0.6706  -17.0396  -49.4272 H         1 UNK         0.0800 
    133 H133       -0.7782  -16.1536  -49.0604 H         1 UNK         0.0800 
    134 H134       -2.6943  -16.9108  -47.4678 H         1 UNK         0.0800 
    135 H135       -2.8163  -17.5027  -49.1082 H         1 UNK         0.0800 
    136 H136       -3.8675  -19.6513  -49.5996 H         1 UNK         0.1150 
    137 H137       -5.9407  -21.6542  -46.4238 H         1 UNK         0.1150 
    138 H138       -3.3098  -18.3833  -45.5448 H         1 UNK         0.1150 
    139 H139       -4.4967  -19.4057  -43.7522 H         1 UNK         0.0800 
    140 H140       -6.0157  -20.1544  -44.1788 H         1 UNK         0.0800 
    141 H141       -2.1697  -22.2440  -42.8154 H         1 UNK         0.0800 
    142 H142       -2.3743  -20.5490  -43.1570 H         1 UNK         0.0800 
    143 H143       -2.0460  -20.9257  -45.5603 H         1 UNK         0.0600 
    144 H144        0.0179  -21.4621  -43.7087 H         1 UNK         0.3000 
    145 H145        2.5325  -22.2794  -45.3507 H         1 UNK         0.0600 
    146 H146        3.8574  -20.1932  -45.9188 H         1 UNK         0.0600 
    147 H147        2.3293  -19.4034  -46.3294 H         1 UNK         0.0600 
    148 H148        2.8742  -20.8081  -47.2366 H         1 UNK         0.0600 
    149 H149        1.9649  -19.8068  -43.7574 H         1 UNK         0.3000 
    150 H150        2.6396  -21.5533  -40.7389 H         1 UNK         0.0600 
    151 H151        4.9221  -20.8033  -41.3456 H         1 UNK         0.0600 
    152 H152        4.1536  -19.6164  -40.3018 H         1 UNK         0.0600 
    153 H153        4.2828  -19.3187  -42.0349 H         1 UNK         0.0600 
    154 H154        1.9576  -18.8621  -41.0666 H         1 UNK         0.3000 
    155 H155       -1.6068  -19.2718  -41.2098 H         1 UNK         0.0600 
    156 H156       -0.8909  -19.5848  -38.8561 H         1 UNK         0.0600 
    157 H157       -1.3191  -17.9078  -39.1575 H         1 UNK         0.0600 
    158 H158        0.3755  -18.3792  -39.0495 H         1 UNK         0.0600 
    159 H159        0.5423  -17.2139  -41.2398 H         1 UNK         0.3000 
    160 H160       -0.3557  -16.0845  -44.4717 H         1 UNK         0.0600 
    161 H161       -0.9002  -14.7228  -41.7826 H         1 UNK         0.0600 
    162 H162       -2.0914  -14.9784  -43.0532 H         1 UNK         0.0600 
    163 H163       -0.7261  -13.9146  -43.3378 H         1 UNK         0.0600 
    164 H164        1.4419  -14.9384  -42.6408 H         1 UNK         0.3000 
    165 H165        4.1604  -17.1660  -42.8147 H         1 UNK         0.0600 
    166 H166        5.4040  -15.1579  -43.5323 H         1 UNK         0.0600 
    167 H167        4.4696  -15.7925  -44.8728 H         1 UNK         0.0600 
    168 H168        3.9109  -14.3639  -44.0221 H         1 UNK         0.0600 
    169 H169        3.9986  -14.6882  -41.5157 H         1 UNK         0.3000 
    170 H170        2.1056  -15.2976  -38.7398 H         1 UNK         0.0600 
    171 H171        5.0164  -16.2082  -38.5260 H         1 UNK         0.0600 
    172 H172        4.0223  -15.6037  -37.2003 H         1 UNK         0.0600 
    173 H173        3.6075  -17.1151  -37.9900 H         1 UNK         0.0600 
    174 H174        4.6349  -13.9072  -39.1264 H         1 UNK         0.3000 
    175 H175        1.1763  -13.8924  -40.2987 H         1 UNK         0.0600 
    176 H176        0.8864  -11.5637  -38.3246 H         1 UNK         0.0600 
    177 H177       -0.4133  -12.6115  -38.8940 H         1 UNK         0.0600 
    178 H178        0.8691  -13.2673  -37.8888 H         1 UNK         0.0600 
    179 H179        0.6806  -11.0952  -40.7287 H         1 UNK         0.3000 
    180 H180        0.2152  -10.7136  -43.2686 H         1 UNK         0.0600 
    181 H181        1.8673   -8.8139  -43.4574 H         1 UNK         0.0600 
    182 H182        3.0882   -9.8035  -42.6579 H         1 UNK         0.0600 
    183 H183        1.6404   -9.3086  -41.7905 H         1 UNK         0.0600 
    184 H184        2.7423  -11.0355  -44.7625 H         1 UNK         0.3000 
    185 H185        1.4641  -11.9593  -47.5794 H         1 UNK         0.0600 
    186 H186        3.5852  -11.0841  -46.6500 H         1 UNK         0.0600 
    187 H187        3.8834  -12.6016  -45.7968 H         1 UNK         0.0600 
    188 H188        3.8979  -12.5510  -47.5541 H         1 UNK         0.0600 
    189 H189        2.1556  -14.4657  -46.1011 H         1 UNK         0.3000 
    190 H190       -2.9712  -22.1062  -47.0374 H         1 UNK         0.3000 
    191 H191       -3.4934  -23.6840  -48.4661 H         1 UNK         0.0600 
    192 H192       -3.2406  -25.7564  -46.2379 H         1 UNK         0.0600 
    193 H193       -4.1283  -25.9244  -47.7443 H         1 UNK         0.0600 
    194 H194       -4.6690  -24.7672  -46.5403 H         1 UNK         0.0600 
    195 H195       -0.5759  -22.9757  -47.9316 H         1 UNK         0.3000 
    196 H196        0.5855  -25.1171  -49.6512 H         1 UNK         0.0600 
    197 H197        1.9000  -23.8477  -47.1919 H         1 UNK         0.0600 
    198 H198        2.6336  -25.0339  -48.2630 H         1 UNK         0.0600 
    199 H199        1.2625  -25.4889  -47.2652 H         1 UNK         0.0600 
    200 H200       -0.2572  -21.8927  -49.6466 H         1 UNK         0.3000 
    201 H201        1.6983  -21.2628  -51.7039 H         1 UNK         0.0600 
    202 H202        2.9691  -20.5595  -49.6969 H         1 UNK         0.0600 
    203 H203        1.5766  -19.6868  -49.0671 H         1 UNK         0.0600 
    204 H204        2.3961  -19.1186  -50.5147 H         1 UNK         0.0600 
    205 H205        1.2562  -19.1491  -52.6519 H         1 UNK         0.3000 
    206 H206       -0.0185  -17.8008  -53.8558 H         1 UNK         0.0600 
    207 H207        0.0673  -16.5398  -51.7419 H         1 UNK         0.0600 
    208 H208       -1.4740  -16.2569  -52.5232 H         1 UNK         0.0600 
    209 H209       -1.3751  -17.3518  -51.1430 H         1 UNK         0.0600 
    210 H210       -2.9885  -17.8822  -52.2365 H         1 UNK         0.3000 
    211 H211       -4.5380  -18.6778  -54.4141 H         1 UNK         0.0600 
    212 H212       -5.3727  -17.3246  -52.4992 H         1 UNK         0.0600 
    213 H213       -5.2484  -18.7234  -51.4317 H         1 UNK         0.0600 
    214 H214       -6.3977  -18.7240  -52.7636 H         1 UNK         0.0600 
    215 H215       -3.0105  -20.7202  -51.9675 H         1 UNK         0.3000 
    216 H216       -4.5996  -23.0719  -52.3036 H         1 UNK         0.0600 
    217 H217       -2.8175  -24.1602  -51.0739 H         1 UNK         0.0600 
    218 H218       -2.9605  -22.5400  -50.3934 H         1 UNK         0.0600 
    219 H219       -1.6505  -22.9183  -51.5000 H         1 UNK         0.0600 
    220 H220       -1.8917  -21.7069  -54.1252 H         1 UNK         0.3000 
    221 H221       -1.6020  -24.1347  -55.8222 H         1 UNK         0.0600 
    222 H222        0.0172  -21.5341  -55.6888 H         1 UNK         0.0600 
    223 H223        0.4793  -23.0786  -54.9773 H         1 UNK         0.0600 
    224 H224        0.3680  -22.9141  -56.7232 H         1 UNK         0.0600 
    225 H225       -2.4335  -20.6457  -55.9545 H         1 UNK         0.3000 
    226 H226       -2.7586  -20.5663  -58.7762 H         1 UNK         0.0600 
    227 H227       -2.1282  -18.6047  -57.3969 H         1 UNK         0.0600 
    228 H228       -3.5737  -18.2604  -58.3347 H         1 UNK         0.0600 
    229 H229       -3.7084  -18.6147  -56.6177 H         1 UNK         0.0600 
    230 H230       -5.1600  -21.1127  -56.1727 H         1 UNK         0.3000 
    231 H231       -7.3088  -21.4764  -58.2083 H         1 UNK         0.0600 
    232 H232       -8.7559  -19.9343  -56.8969 H         1 UNK         0.0600 
    233 H233       -7.3262  -19.0826  -57.4494 H         1 UNK         0.0600 
    234 H234       -7.4393  -19.6151  -55.7724 H         1 UNK         0.0600 
    235 H235       -5.6927  -23.1104  -56.0185 H         1 UNK         0.3000 
    236 H236       -6.0026  -24.7525  -54.5480 H         1 UNK         0.0600 
    237 H237       -8.7439  -25.1556  -55.8487 H         1 UNK         0.0600 
    238 H238       -7.2224  -25.7945  -56.4698 H         1 UNK         0.0600 
    239 H239       -7.8385  -26.3428  -54.9206 H         1 UNK         0.0600 
    240 H240       -6.6733  -22.1009  -53.7032 H         1 UNK         0.3000 
    241 H241       -7.4433  -20.9158  -52.0871 H         1 UNK         0.0600 
    242 H242      -10.9172  -21.2183  -53.7697 H         1 UNK         0.3800 
    243 H243       -9.4316  -21.9074  -54.3699 H         1 UNK         0.3800 
    244 H244       -7.0316  -23.2596  -50.7079 H         1 UNK         0.0800 
    245 H245       -8.7158  -23.0438  -50.3728 H         1 UNK         0.0800 
    246 H246       -5.1191  -21.6359  -50.0845 H         1 UNK         0.0800 
    247 H247       -5.5668  -22.7099  -48.7739 H         1 UNK         0.0800 
@<TRIPOS>BOND
     1    1    2 1    
     2    1  127 1    
     3    1  128 1    
     4    1  129 1    
     5    2    3 2    
     6    2    4 am   BACKBONE|DICT|INTERRES
     7    4    5 1    
     8    4  130 1    
     9    5    6 1    
    10    5   65 1    
    11    5  131 1    
    12    6    7 1    
    13    6  132 1    
    14    6  133 1    
    15    7    8 1    
    16    8    9 1    
    17    8  134 1    
    18    8  135 1    
    19    9   10 ar   
    20    9   14 ar   
    21   10   11 ar   
    22   10  136 1    
    23   11   12 ar   
    24   11  126 1    
    25   12   13 ar   
    26   12  137 1    
    27   13   14 ar   
    28   13   15 1    
    29   14  138 1    
    30   15   16 1    
    31   15  139 1    
    32   15  140 1    
    33   16   17 1    
    34   17   18 1    
    35   17  141 1    
    36   17  142 1    
    37   18   19 1    
    38   18   67 1    
    39   18  143 1    
    40   19   20 am   BACKBONE|DICT|INTERRES
    41   19  144 1    
    42   20   21 2    
    43   20   22 1    
    44   22   23 1    
    45   22   24 1    
    46   22  145 1    
    47   23  146 1    
    48   23  147 1    
    49   23  148 1    
    50   24   25 am   BACKBONE|DICT|INTERRES
    51   24  149 1    
    52   25   26 2    
    53   25   27 1    
    54   27   28 1    
    55   27   29 1    
    56   27  150 1    
    57   28  151 1    
    58   28  152 1    
    59   28  153 1    
    60   29   30 am   BACKBONE|DICT|INTERRES
    61   29  154 1    
    62   30   31 2    
    63   30   32 1    
    64   32   33 1    
    65   32   34 1    
    66   32  155 1    
    67   33  156 1    
    68   33  157 1    
    69   33  158 1    
    70   34   35 am   BACKBONE|DICT|INTERRES
    71   34  159 1    
    72   35   36 2    
    73   35   37 1    
    74   37   38 1    
    75   37   39 1    
    76   37  160 1    
    77   38  161 1    
    78   38  162 1    
    79   38  163 1    
    80   39   40 am   BACKBONE|DICT|INTERRES
    81   39  164 1    
    82   40   41 2    
    83   40   42 1    
    84   42   43 1    
    85   42   44 1    
    86   42  165 1    
    87   43  166 1    
    88   43  167 1    
    89   43  168 1    
    90   44   45 am   BACKBONE|DICT|INTERRES
    91   44  169 1    
    92   45   46 2    
    93   45   47 1    
    94   47   48 1    
    95   47   49 1    
    96   47  170 1    
    97   48  171 1    
    98   48  172 1    
    99   48  173 1    
   100   49   50 am   BACKBONE|DICT|INTERRES
   101   49  174 1    
   102   50   51 2    
   103   50   52 1    
   104   52   53 1    
   105   52   54 1    
   106   52  175 1    
   107   53  176 1    
   108   53  177 1    
   109   53  178 1    
   110   54   55 am   BACKBONE|DICT|INTERRES
   111   54  179 1    
   112   55   56 2    
   113   55   57 1    
   114   57   58 1    
   115   57   59 1    
   116   57  180 1    
   117   58  181 1    
   118   58  182 1    
   119   58  183 1    
   120   59   60 am   BACKBONE|DICT|INTERRES
   121   59  184 1    
   122   60   61 2    
   123   60   62 1    
   124   62   63 1    
   125   62   64 1    
   126   62  185 1    
   127   63  186 1    
   128   63  187 1    
   129   63  188 1    
   130   64   65 am   BACKBONE|DICT|INTERRES
   131   64  189 1    
   132   65   66 2    
   133   67   68 2    
   134   67   69 am   BACKBONE|DICT|INTERRES
   135   69   70 1    
   136   69  190 1    
   137   70   71 1    
   138   70   72 1    
   139   70  191 1    
   140   71  192 1    
   141   71  193 1    
   142   71  194 1    
   143   72   73 2    
   144   72   74 am   BACKBONE|DICT|INTERRES
   145   74   75 1    
   146   74  195 1    
   147   75   76 1    
   148   75   77 1    
   149   75  196 1    
   150   76  197 1    
   151   76  198 1    
   152   76  199 1    
   153   77   78 2    
   154   77   79 am   BACKBONE|DICT|INTERRES
   155   79   80 1    
   156   79  200 1    
   157   80   81 1    
   158   80   82 1    
   159   80  201 1    
   160   81  202 1    
   161   81  203 1    
   162   81  204 1    
   163   82   83 2    
   164   82   84 am   BACKBONE|DICT|INTERRES
   165   84   85 1    
   166   84  205 1    
   167   85   86 1    
   168   85   87 1    
   169   85  206 1    
   170   86  207 1    
   171   86  208 1    
   172   86  209 1    
   173   87   88 2    
   174   87   89 am   BACKBONE|DICT|INTERRES
   175   89   90 1    
   176   89  210 1    
   177   90   91 1    
   178   90   92 1    
   179   90  211 1    
   180   91  212 1    
   181   91  213 1    
   182   91  214 1    
   183   92   93 2    
   184   92   94 am   BACKBONE|DICT|INTERRES
   185   94   95 1    
   186   94  215 1    
   187   95   96 1    
   188   95   97 1    
   189   95  216 1    
   190   96  217 1    
   191   96  218 1    
   192   96  219 1    
   193   97   98 2    
   194   97   99 am   BACKBONE|DICT|INTERRES
   195   99  100 1    
   196   99  220 1    
   197  100  101 1    
   198  100  102 1    
   199  100  221 1    
   200  101  222 1    
   201  101  223 1    
   202  101  224 1    
   203  102  103 2    
   204  102  104 am   BACKBONE|DICT|INTERRES
   205  104  105 1    
   206  104  225 1    
   207  105  106 1    
   208  105  107 1    
   209  105  226 1    
   210  106  227 1    
   211  106  228 1    
   212  106  229 1    
   213  107  108 2    
   214  107  109 am   BACKBONE|DICT|INTERRES
   215  109  110 1    
   216  109  230 1    
   217  110  111 1    
   218  110  112 1    
   219  110  231 1    
   220  111  232 1    
   221  111  233 1    
   222  111  234 1    
   223  112  113 2    
   224  112  114 am   BACKBONE|DICT|INTERRES
   225  114  115 1    
   226  114  235 1    
   227  115  116 1    
   228  115  117 1    
   229  115  236 1    
   230  116  237 1    
   231  116  238 1    
   232  116  239 1    
   233  117  118 2    
   234  117  119 am   BACKBONE|DICT|INTERRES
   235  119  120 1    
   236  119  240 1    
   237  120  121 1    
   238  120  124 1    
   239  120  241 1    
   240  121  122 am   BACKBONE|DICT|INTERRES
   241  121  123 2    
   242  122  242 1    
   243  122  243 1    
   244  124  125 1    
   245  124  244 1    
   246  124  245 1    
   247  125  126 1    
   248  126  246 1    
   249  126  247 1    
@<TRIPOS>SUBSTRUCTURE
     1 UNK         1 GROUP             0       ****    0 ROOT    
