@<TRIPOS>MOLECULE
3R540
247   249    1
SMALL
USER_CHARGES


@<TRIPOS>ATOM
      1 CA         -4.0234  -13.6416  -52.2592 C.3       0 UNK        -0.1800 
      2 C          -2.7523  -13.2552  -51.5181 C.2       0 UNK         0.5000 
      3 O          -2.3121  -12.1104  -51.6236 O.2       0 UNK        -0.5000 
      4 N          -2.1662  -14.1987  -50.7729 N.am      1 UNK        -0.5000 
      5 CA         -0.9563  -13.9860  -49.9682 C.3       1 UNK         0.1400 
      6 C6          0.3534  -14.3124  -50.7289 C.3       23 UNK        -0.0398 
      7 S7          0.4754  -16.0313  -51.3296 S.3       23 UNK        -0.2404 
      8 C8          1.7632  -16.7218  -50.2264 C.3       23 UNK        -0.0205 
      9 C9          2.2719  -18.1092  -50.6267 C.ar      23 UNK        -0.0193 
     10 C10         2.2525  -18.5385  -51.9582 C.ar      23 UNK        -0.1150 
     11 C11         2.7304  -19.7989  -52.3201 C.ar      23 UNK        -0.0193 
     12 C12         3.2766  -20.6289  -51.3401 C.ar      23 UNK        -0.1150 
     13 C13         3.3380  -20.2092  -50.0082 C.ar      23 UNK        -0.0193 
     14 C14         2.8214  -18.9557  -49.6550 C.ar      23 UNK        -0.1150 
     15 C15         4.0168  -21.0989  -48.9759 C.3       23 UNK        -0.0205 
     16 S16         2.9945  -22.5328  -48.5165 S.3       23 UNK        -0.2404 
     17 C17         2.0058  -21.8120  -47.1711 C.3       23 UNK        -0.0398 
     18 CA          0.9478  -22.7910  -46.6053 C.3       11 UNK         0.1400 
     19 N           0.5615  -22.4389  -45.2356 N.am      11 UNK        -0.5000 
     20 C          -0.2581  -23.1548  -44.4522 C.2       10 UNK         0.5000 
     21 O          -0.7429  -24.2375  -44.7761 O.2       10 UNK        -0.5000 
     22 CA         -0.6494  -22.5319  -43.0999 C.3       10 UNK         0.1400 
     23 CB          0.4413  -22.7747  -42.0466 C.3       10 UNK        -0.1800 
     24 N          -0.9313  -21.0997  -43.2022 N.am      10 UNK        -0.5000 
     25 C          -1.9199  -20.5710  -43.9386 C.2       9 UNK         0.5000 
     26 O          -2.7387  -21.2413  -44.5667 O.2       9 UNK        -0.5000 
     27 CA         -1.9645  -19.0365  -44.0376 C.3       9 UNK         0.1400 
     28 CB         -2.5883  -18.4242  -42.7745 C.3       9 UNK        -0.1800 
     29 N          -0.6418  -18.4578  -44.2769 N.am      9 UNK        -0.5000 
     30 C           0.1061  -18.6995  -45.3633 C.2       8 UNK         0.5000 
     31 O          -0.2695  -19.3825  -46.3152 O.2       8 UNK        -0.5000 
     32 CA          1.5351  -18.1326  -45.3624 C.3       8 UNK         0.1400 
     33 CB          1.5525  -16.6691  -45.8274 C.3       8 UNK        -0.1800 
     34 N           2.1634  -18.2522  -44.0461 N.am      8 UNK        -0.5000 
     35 C           2.5444  -19.4165  -43.5000 C.2       7 UNK         0.5000 
     36 O           2.4397  -20.5009  -44.0705 O.2       7 UNK        -0.5000 
     37 CA          3.0953  -19.3696  -42.0629 C.3       7 UNK         0.1400 
     38 CB          4.5882  -19.0095  -42.0680 C.3       7 UNK        -0.1800 
     39 N           2.3717  -18.4224  -41.2158 N.am      7 UNK        -0.5000 
     40 C           1.0871  -18.5512  -40.8531 C.2       6 UNK         0.5000 
     41 O           0.3938  -19.5277  -41.1347 O.2       6 UNK        -0.5000 
     42 CA          0.4595  -17.3597  -40.1015 C.3       6 UNK         0.1400 
     43 CB          0.6349  -17.5249  -38.5849 C.3       6 UNK        -0.1800 
     44 N           1.0127  -16.0663  -40.5190 N.am      6 UNK        -0.5000 
     45 C           0.9237  -15.5767  -41.7625 C.2       5 UNK         0.5000 
     46 O           0.3225  -16.1450  -42.6763 O.2       5 UNK        -0.5000 
     47 CA          1.7119  -14.2947  -42.0526 C.3       5 UNK         0.1400 
     48 CB          3.2119  -14.6283  -42.1993 C.3       5 UNK        -0.1800 
     49 N           1.2041  -13.6922  -43.2818 N.am      5 UNK        -0.5000 
     50 C           1.5149  -12.4731  -43.7374 C.2       4 UNK         0.5000 
     51 O           2.2558  -11.6890  -43.1424 O.2       4 UNK        -0.5000 
     52 CA          0.9025  -12.0478  -45.0852 C.3       4 UNK         0.1400 
     53 CB          1.8315  -12.4520  -46.2402 C.3       4 UNK        -0.1800 
     54 N          -0.4410  -12.5802  -45.3293 N.am      4 UNK        -0.5000 
     55 C          -1.5319  -12.2293  -44.6291 C.2       3 UNK         0.5000 
     56 O          -1.4969  -11.4590  -43.6683 O.2       3 UNK        -0.5000 
     57 CA         -2.8999  -12.7882  -45.0770 C.3       3 UNK         0.1400 
     58 CB         -3.7778  -11.6645  -45.6516 C.3       3 UNK        -0.1800 
     59 N          -2.8152  -13.8577  -46.0704 N.am      3 UNK        -0.5000 
     60 C          -2.4281  -15.1135  -45.8152 C.2       2 UNK         0.5000 
     61 O          -2.1187  -15.5118  -44.6955 O.2       2 UNK        -0.5000 
     62 CA         -2.3583  -16.0777  -47.0168 C.3       2 UNK         0.1400 
     63 CB         -3.6649  -16.8742  -47.1149 C.3       2 UNK        -0.1800 
     64 N          -2.1047  -15.4233  -48.3065 N.am      2 UNK        -0.5000 
     65 C          -1.0347  -14.6616  -48.5861 C.2       1 UNK         0.5000 
     66 O          -0.1444  -14.4361  -47.7676 O.2       1 UNK        -0.5000 
     67 C          -0.2782  -22.8959  -47.5352 C.2       11 UNK         0.5000 
     68 O          -0.4467  -23.9084  -48.2149 O.2       11 UNK        -0.5000 
     69 N          -1.1371  -21.8681  -47.5064 N.am      12 UNK        -0.5000 
     70 CA         -2.3714  -21.7947  -48.2844 C.3       12 UNK         0.1400 
     71 CB         -2.9774  -20.3965  -48.1281 C.3       12 UNK        -0.1800 
     72 C          -3.3969  -22.8757  -47.9005 C.2       12 UNK         0.5000 
     73 O          -4.0722  -23.4084  -48.7835 O.2       12 UNK        -0.5000 
     74 N          -3.4838  -23.1919  -46.6016 N.am      13 UNK        -0.5000 
     75 CA         -4.3093  -24.2701  -46.0624 C.3       13 UNK         0.1400 
     76 CB         -4.3923  -24.1477  -44.5337 C.3       13 UNK        -0.1800 
     77 C          -3.7950  -25.6593  -46.4778 C.2       13 UNK         0.5000 
     78 O          -4.5925  -26.4874  -46.9167 O.2       13 UNK        -0.5000 
     79 N          -2.4756  -25.8790  -46.3764 N.am      14 UNK        -0.5000 
     80 CA         -1.7981  -27.1146  -46.7825 C.3       14 UNK         0.1400 
     81 CB         -0.3308  -27.0718  -46.3299 C.3       14 UNK        -0.1800 
     82 C          -1.8915  -27.3825  -48.2960 C.2       14 UNK         0.5000 
     83 O          -2.0611  -28.5325  -48.7023 O.2       14 UNK        -0.5000 
     84 N          -1.8222  -26.3117  -49.0977 N.am      15 UNK        -0.5000 
     85 CA         -2.0342  -26.3302  -50.5459 C.3       15 UNK         0.1400 
     86 CB         -1.5041  -25.0127  -51.1357 C.3       15 UNK        -0.1800 
     87 C          -3.5092  -26.5339  -50.9513 C.2       15 UNK         0.5000 
     88 O          -3.7715  -26.8097  -52.1225 O.2       15 UNK        -0.5000 
     89 N          -4.4380  -26.3620  -49.9961 N.am      16 UNK        -0.5000 
     90 CA         -5.8978  -26.3518  -50.1526 C.3       16 UNK         0.1400 
     91 CB         -6.4200  -27.7406  -50.5743 C.3       16 UNK        -0.1800 
     92 C          -6.3886  -25.2121  -51.0724 C.2       16 UNK         0.5000 
     93 O          -7.4110  -25.3507  -51.7462 O.2       16 UNK        -0.5000 
     94 N          -5.6358  -24.1059  -51.0831 N.am      17 UNK        -0.5000 
     95 CA         -5.8618  -22.9310  -51.9195 C.3       17 UNK         0.1400 
     96 CB         -4.5025  -22.4583  -52.4540 C.3       17 UNK        -0.1800 
     97 C          -6.5544  -21.7953  -51.1482 C.2       17 UNK         0.5000 
     98 O          -7.1196  -20.9029  -51.7807 O.2       17 UNK        -0.5000 
     99 N          -6.4772  -21.8289  -49.8085 N.am      18 UNK        -0.5000 
    100 CA        -7.0633  -20.9135  -48.8174 C.3       18 UNK         0.1400 
    101 CB        -8.6003  -20.8917  -48.9130 C.3       18 UNK        -0.1800 
    102 C         -6.4845  -19.4838  -48.8270 C.2       18 UNK         0.5000 
    103 O         -6.1495  -18.9693  -47.7611 O.2       18 UNK        -0.5000 
    104 N         -6.3529  -18.8821  -50.0141 N.am      19 UNK        -0.5000 
    105 CA        -5.7436  -17.5694  -50.2396 C.3       19 UNK         0.1400 
    106 CB        -6.6011  -16.7986  -51.2541 C.3       19 UNK        -0.1800 
    107 C         -4.2947  -17.6755  -50.7527 C.2       19 UNK         0.5000 
    108 O         -3.5420  -16.7061  -50.6246 O.2       19 UNK        -0.5000 
    109 N         -3.9400  -18.8370  -51.3258 N.am      20 UNK        -0.5000 
    110 CA        -2.7069  -19.1502  -52.0560 C.3       20 UNK         0.1400 
    111 CB        -1.4466  -19.0526  -51.1720 C.3       20 UNK        -0.1800 
    112 C         -2.6039  -18.3523  -53.3673 C.2       20 UNK         0.5000 
    113 O         -2.9298  -18.8925  -54.4236 O.2       20 UNK        -0.5000 
    114 N         -2.1669  -17.0896  -53.2703 N.am      21 UNK        -0.5000 
    115 CA        -2.0202  -16.0894  -54.3396 C.3       21 UNK         0.1400 
    116 CB        -3.3628  -15.8488  -55.0616 C.3       21 UNK        -0.1800 
    117 C         -0.8853  -16.3704  -55.3489 C.2       21 UNK         0.5000 
    118 O         -0.6722  -15.5613  -56.2526 O.2       21 UNK        -0.5000 
    119 N         -0.1649  -17.4838  -55.1790 N.am      22 UNK        -0.5000 
    120 CA         0.9703  -17.9181  -56.0080 C.3       22 UNK         0.1400 
    121 C          2.3150  -17.1810  -55.7276 C.2       22 UNK         0.5000 
    122 N          2.3895  -16.2533  -54.7810 N.am      22 UNK        -0.7600 
    123 O          3.3106  -17.4440  -56.3966 O.2       22 UNK        -0.5000 
    124 C124        1.1188  -19.4680  -56.0172 C.3       23 UNK        -0.0398 
    125 S125        0.9573  -20.2750  -54.3833 S.3       23 UNK        -0.2404 
    126 C126        2.6736  -20.2419  -53.7741 C.3       23 UNK        -0.0205 
    127 H127       -3.9493  -13.3548  -53.3080 H         1 UNK         0.0600 
    128 H128       -4.8818  -13.1303  -51.8242 H         1 UNK         0.0600 
    129 H129       -4.2061  -14.7136  -52.2137 H         1 UNK         0.0600 
    130 H130       -2.5768  -15.1283  -50.7356 H         1 UNK         0.3000 
    131 H131       -0.9052  -12.9244  -49.7170 H         1 UNK         0.0600 
    132 H132        1.2221  -14.0714  -50.1139 H         1 UNK         0.0800 
    133 H133        0.4296  -13.6590  -51.5988 H         1 UNK         0.0800 
    134 H134        1.3602  -16.7555  -49.2139 H         1 UNK         0.0800 
    135 H135        2.6173  -16.0440  -50.2050 H         1 UNK         0.0800 
    136 H136        1.8536  -17.8994  -52.7293 H         1 UNK         0.1150 
    137 H137        3.6696  -21.5984  -51.6128 H         1 UNK         0.1150 
    138 H138        2.8703  -18.6274  -48.6263 H         1 UNK         0.1150 
    139 H139        4.9576  -21.4641  -49.3905 H         1 UNK         0.0800 
    140 H140        4.2847  -20.5286  -48.0850 H         1 UNK         0.0800 
    141 H141        1.5545  -20.8787  -47.5110 H         1 UNK         0.0800 
    142 H142        2.7131  -21.5393  -46.3885 H         1 UNK         0.0800 
    143 H143        1.3979  -23.7843  -46.5455 H         1 UNK         0.0600 
    144 H144        0.9602  -21.5842  -44.8614 H         1 UNK         0.3000 
    145 H145       -1.5625  -23.0246  -42.7602 H         1 UNK         0.0600 
    146 H146        0.1359  -22.3988  -41.0700 H         1 UNK         0.0600 
    147 H147        1.3781  -22.2862  -42.3140 H         1 UNK         0.0600 
    148 H148        0.6462  -23.8402  -41.9359 H         1 UNK         0.0600 
    149 H149       -0.3341  -20.4778  -42.6648 H         1 UNK         0.3000 
    150 H150       -2.5948  -18.7788  -44.8894 H         1 UNK         0.0600 
    151 H151       -3.6082  -18.7835  -42.6337 H         1 UNK         0.0600 
    152 H152       -2.6323  -17.3375  -42.8386 H         1 UNK         0.0600 
    153 H153       -2.0254  -18.6814  -41.8781 H         1 UNK         0.0600 
    154 H154       -0.2863  -17.8155  -43.5755 H         1 UNK         0.3000 
    155 H155        2.1257  -18.7153  -46.0725 H         1 UNK         0.0600 
    156 H156        1.1837  -16.5904  -46.8494 H         1 UNK         0.0600 
    157 H157        2.5616  -16.2574  -45.8138 H         1 UNK         0.0600 
    158 H158        0.9198  -16.0326  -45.2098 H         1 UNK         0.0600 
    159 H159        2.2127  -17.4121  -43.4901 H         1 UNK         0.3000 
    160 H160        2.9844  -20.3660  -41.6300 H         1 UNK         0.0600 
    161 H161        4.7618  -18.0089  -42.4663 H         1 UNK         0.0600 
    162 H162        5.1560  -19.7104  -42.6815 H         1 UNK         0.0600 
    163 H163        5.0063  -19.0478  -41.0619 H         1 UNK         0.0600 
    164 H164        2.8700  -17.5935  -40.9292 H         1 UNK         0.3000 
    165 H165       -0.6094  -17.3544  -40.3241 H         1 UNK         0.0600 
    166 H166        0.1266  -16.7292  -38.0400 H         1 UNK         0.0600 
    167 H167        0.2123  -18.4712  -38.2445 H         1 UNK         0.0600 
    168 H168        1.6867  -17.5121  -38.2962 H         1 UNK         0.0600 
    169 H169        1.5279  -15.5494  -39.8206 H         1 UNK         0.3000 
    170 H170        1.5615  -13.5981  -41.2256 H         1 UNK         0.0600 
    171 H171        3.3943  -15.2894  -43.0475 H         1 UNK         0.0600 
    172 H172        3.8117  -13.7303  -42.3449 H         1 UNK         0.0600 
    173 H173        3.5987  -15.1224  -41.3074 H         1 UNK         0.0600 
    174 H174        0.5489  -14.2721  -43.7929 H         1 UNK         0.3000 
    175 H175        0.8292  -10.9582  -45.0809 H         1 UNK         0.0600 
    176 H176        1.9538  -13.5344  -46.2968 H         1 UNK         0.0600 
    177 H177        1.4449  -12.1071  -47.1993 H         1 UNK         0.0600 
    178 H178        2.8238  -12.0171  -46.1142 H         1 UNK         0.0600 
    179 H179       -0.5341  -13.2306  -46.1017 H         1 UNK         0.3000 
    180 H180       -3.3934  -13.1843  -44.1869 H         1 UNK         0.0600 
    181 H181       -4.7717  -12.0317  -45.9082 H         1 UNK         0.0600 
    182 H182       -3.3371  -11.2296  -46.5496 H         1 UNK         0.0600 
    183 H183       -3.9093  -10.8592  -44.9277 H         1 UNK         0.0600 
    184 H184       -3.0496  -13.6139  -47.0211 H         1 UNK         0.3000 
    185 H185       -1.5398  -16.7747  -46.8336 H         1 UNK         0.0600 
    186 H186       -4.5088  -16.2301  -47.3632 H         1 UNK         0.0600 
    187 H187       -3.5963  -17.6481  -47.8765 H         1 UNK         0.0600 
    188 H188       -3.9037  -17.3691  -46.1737 H         1 UNK         0.0600 
    189 H189       -2.7830  -15.6045  -49.0350 H         1 UNK         0.3000 
    190 H190       -0.9133  -21.0574  -46.9341 H         1 UNK         0.3000 
    191 H191       -2.1087  -21.9418  -49.3337 H         1 UNK         0.0600 
    192 H192       -2.2386  -19.6167  -48.3111 H         1 UNK         0.0600 
    193 H193       -3.3845  -20.2364  -47.1288 H         1 UNK         0.0600 
    194 H194       -3.7830  -20.2533  -48.8445 H         1 UNK         0.0600 
    195 H195       -2.9493  -22.6477  -45.9307 H         1 UNK         0.3000 
    196 H196       -5.3181  -24.1541  -46.4645 H         1 UNK         0.0600 
    197 H197       -4.8234  -23.1908  -44.2391 H         1 UNK         0.0600 
    198 H198       -3.4102  -24.2282  -44.0676 H         1 UNK         0.0600 
    199 H199       -5.0219  -24.9323  -44.1125 H         1 UNK         0.0600 
    200 H200       -1.8862  -25.1575  -45.9676 H         1 UNK         0.3000 
    201 H201       -2.2872  -27.9453  -46.2699 H         1 UNK         0.0600 
    202 H202       -0.2559  -26.9778  -45.2465 H         1 UNK         0.0600 
    203 H203        0.2033  -26.2320  -46.7758 H         1 UNK         0.0600 
    204 H204        0.1940  -27.9847  -46.6141 H         1 UNK         0.0600 
    205 H205       -1.5908  -25.4115  -48.6856 H         1 UNK         0.3000 
    206 H206       -1.4580  -27.1548  -50.9701 H         1 UNK         0.0600 
    207 H207       -2.0403  -24.1507  -50.7370 H         1 UNK         0.0600 
    208 H208       -0.4451  -24.8787  -50.9140 H         1 UNK         0.0600 
    209 H209       -1.6133  -24.9940  -52.2207 H         1 UNK         0.0600 
    210 H210       -4.1115  -26.1548  -49.0607 H         1 UNK         0.3000 
    211 H211       -6.3046  -26.1347  -49.1641 H         1 UNK         0.0600 
    212 H212       -6.1170  -27.9984  -51.5894 H         1 UNK         0.0600 
    213 H213       -7.5094  -27.7749  -50.5408 H         1 UNK         0.0600 
    214 H214       -6.0513  -28.5186  -49.9056 H         1 UNK         0.0600 
    215 H215       -4.8505  -24.0601  -50.4405 H         1 UNK         0.3000 
    216 H216       -6.4944  -23.1892  -52.7712 H         1 UNK         0.0600 
    217 H217       -4.6172  -21.5888  -53.1025 H         1 UNK         0.0600 
    218 H218       -4.0204  -23.2391  -53.0429 H         1 UNK         0.0600 
    219 H219       -3.8256  -22.1900  -51.6419 H         1 UNK         0.0600 
    220 H220       -5.9229  -22.5782  -49.4109 H         1 UNK         0.3000 
    221 H221       -6.8068  -21.3413  -47.8466 H         1 UNK         0.0600 
    222 H222       -8.9466  -20.4656  -49.8549 H         1 UNK         0.0600 
    223 H223       -9.0139  -21.8965  -48.8276 H         1 UNK         0.0600 
    224 H224       -9.0306  -20.2936  -48.1089 H         1 UNK         0.0600 
    225 H225       -6.6912  -19.3899  -50.8287 H         1 UNK         0.3000 
    226 H226       -5.7269  -16.9975  -49.3106 H         1 UNK         0.0600 
    227 H227       -7.6278  -16.6956  -50.9025 H         1 UNK         0.0600 
    228 H228       -6.2126  -15.7922  -51.4119 H         1 UNK         0.0600 
    229 H229       -6.6277  -17.2984  -52.2234 H         1 UNK         0.0600 
    230 H230       -4.6553  -19.5452  -51.3797 H         1 UNK         0.3000 
    231 H231       -2.7814  -20.1939  -52.3584 H         1 UNK         0.0600 
    232 H232       -0.5408  -19.0958  -51.7767 H         1 UNK         0.0600 
    233 H233       -1.3935  -19.8900  -50.4796 H         1 UNK         0.0600 
    234 H234       -1.4060  -18.1378  -50.5835 H         1 UNK         0.0600 
    235 H235       -1.9274  -16.7656  -52.3424 H         1 UNK         0.3000 
    236 H236       -1.7472  -15.1624  -53.8339 H         1 UNK         0.0600 
    237 H237       -3.6182  -16.6746  -55.7262 H         1 UNK         0.0600 
    238 H238       -4.1842  -15.7272  -54.3568 H         1 UNK         0.0600 
    239 H239       -3.3197  -14.9457  -55.6712 H         1 UNK         0.0600 
    240 H240       -0.4065  -18.1002  -54.4174 H         1 UNK         0.3000 
    241 H241        0.7313  -17.6364  -57.0352 H         1 UNK         0.0600 
    242 H242        3.2648  -15.7807  -54.6211 H         1 UNK         0.3800 
    243 H243        1.5806  -16.0108  -54.2330 H         1 UNK         0.3800 
    244 H244        2.0465  -19.7850  -56.4968 H         1 UNK         0.0800 
    245 H245        0.3259  -19.8829  -56.6407 H         1 UNK         0.0800 
    246 H246        3.2842  -19.5618  -54.3678 H         1 UNK         0.0800 
    247 H247        3.1094  -21.2342  -53.8991 H         1 UNK         0.0800 
@<TRIPOS>BOND
     1    1    2 1    
     2    1  127 1    
     3    1  128 1    
     4    1  129 1    
     5    2    3 2    
     6    2    4 am   BACKBONE|DICT|INTERRES
     7    4    5 1    
     8    4  130 1    
     9    5    6 1    
    10    5   65 1    
    11    5  131 1    
    12    6    7 1    
    13    6  132 1    
    14    6  133 1    
    15    7    8 1    
    16    8    9 1    
    17    8  134 1    
    18    8  135 1    
    19    9   10 ar   
    20    9   14 ar   
    21   10   11 ar   
    22   10  136 1    
    23   11   12 ar   
    24   11  126 1    
    25   12   13 ar   
    26   12  137 1    
    27   13   14 ar   
    28   13   15 1    
    29   14  138 1    
    30   15   16 1    
    31   15  139 1    
    32   15  140 1    
    33   16   17 1    
    34   17   18 1    
    35   17  141 1    
    36   17  142 1    
    37   18   19 1    
    38   18   67 1    
    39   18  143 1    
    40   19   20 am   BACKBONE|DICT|INTERRES
    41   19  144 1    
    42   20   21 2    
    43   20   22 1    
    44   22   23 1    
    45   22   24 1    
    46   22  145 1    
    47   23  146 1    
    48   23  147 1    
    49   23  148 1    
    50   24   25 am   BACKBONE|DICT|INTERRES
    51   24  149 1    
    52   25   26 2    
    53   25   27 1    
    54   27   28 1    
    55   27   29 1    
    56   27  150 1    
    57   28  151 1    
    58   28  152 1    
    59   28  153 1    
    60   29   30 am   BACKBONE|DICT|INTERRES
    61   29  154 1    
    62   30   31 2    
    63   30   32 1    
    64   32   33 1    
    65   32   34 1    
    66   32  155 1    
    67   33  156 1    
    68   33  157 1    
    69   33  158 1    
    70   34   35 am   BACKBONE|DICT|INTERRES
    71   34  159 1    
    72   35   36 2    
    73   35   37 1    
    74   37   38 1    
    75   37   39 1    
    76   37  160 1    
    77   38  161 1    
    78   38  162 1    
    79   38  163 1    
    80   39   40 am   BACKBONE|DICT|INTERRES
    81   39  164 1    
    82   40   41 2    
    83   40   42 1    
    84   42   43 1    
    85   42   44 1    
    86   42  165 1    
    87   43  166 1    
    88   43  167 1    
    89   43  168 1    
    90   44   45 am   BACKBONE|DICT|INTERRES
    91   44  169 1    
    92   45   46 2    
    93   45   47 1    
    94   47   48 1    
    95   47   49 1    
    96   47  170 1    
    97   48  171 1    
    98   48  172 1    
    99   48  173 1    
   100   49   50 am   BACKBONE|DICT|INTERRES
   101   49  174 1    
   102   50   51 2    
   103   50   52 1    
   104   52   53 1    
   105   52   54 1    
   106   52  175 1    
   107   53  176 1    
   108   53  177 1    
   109   53  178 1    
   110   54   55 am   BACKBONE|DICT|INTERRES
   111   54  179 1    
   112   55   56 2    
   113   55   57 1    
   114   57   58 1    
   115   57   59 1    
   116   57  180 1    
   117   58  181 1    
   118   58  182 1    
   119   58  183 1    
   120   59   60 am   BACKBONE|DICT|INTERRES
   121   59  184 1    
   122   60   61 2    
   123   60   62 1    
   124   62   63 1    
   125   62   64 1    
   126   62  185 1    
   127   63  186 1    
   128   63  187 1    
   129   63  188 1    
   130   64   65 am   BACKBONE|DICT|INTERRES
   131   64  189 1    
   132   65   66 2    
   133   67   68 2    
   134   67   69 am   BACKBONE|DICT|INTERRES
   135   69   70 1    
   136   69  190 1    
   137   70   71 1    
   138   70   72 1    
   139   70  191 1    
   140   71  192 1    
   141   71  193 1    
   142   71  194 1    
   143   72   73 2    
   144   72   74 am   BACKBONE|DICT|INTERRES
   145   74   75 1    
   146   74  195 1    
   147   75   76 1    
   148   75   77 1    
   149   75  196 1    
   150   76  197 1    
   151   76  198 1    
   152   76  199 1    
   153   77   78 2    
   154   77   79 am   BACKBONE|DICT|INTERRES
   155   79   80 1    
   156   79  200 1    
   157   80   81 1    
   158   80   82 1    
   159   80  201 1    
   160   81  202 1    
   161   81  203 1    
   162   81  204 1    
   163   82   83 2    
   164   82   84 am   BACKBONE|DICT|INTERRES
   165   84   85 1    
   166   84  205 1    
   167   85   86 1    
   168   85   87 1    
   169   85  206 1    
   170   86  207 1    
   171   86  208 1    
   172   86  209 1    
   173   87   88 2    
   174   87   89 am   BACKBONE|DICT|INTERRES
   175   89   90 1    
   176   89  210 1    
   177   90   91 1    
   178   90   92 1    
   179   90  211 1    
   180   91  212 1    
   181   91  213 1    
   182   91  214 1    
   183   92   93 2    
   184   92   94 am   BACKBONE|DICT|INTERRES
   185   94   95 1    
   186   94  215 1    
   187   95   96 1    
   188   95   97 1    
   189   95  216 1    
   190   96  217 1    
   191   96  218 1    
   192   96  219 1    
   193   97   98 2    
   194   97   99 am   BACKBONE|DICT|INTERRES
   195   99  100 1    
   196   99  220 1    
   197  100  101 1    
   198  100  102 1    
   199  100  221 1    
   200  101  222 1    
   201  101  223 1    
   202  101  224 1    
   203  102  103 2    
   204  102  104 am   BACKBONE|DICT|INTERRES
   205  104  105 1    
   206  104  225 1    
   207  105  106 1    
   208  105  107 1    
   209  105  226 1    
   210  106  227 1    
   211  106  228 1    
   212  106  229 1    
   213  107  108 2    
   214  107  109 am   BACKBONE|DICT|INTERRES
   215  109  110 1    
   216  109  230 1    
   217  110  111 1    
   218  110  112 1    
   219  110  231 1    
   220  111  232 1    
   221  111  233 1    
   222  111  234 1    
   223  112  113 2    
   224  112  114 am   BACKBONE|DICT|INTERRES
   225  114  115 1    
   226  114  235 1    
   227  115  116 1    
   228  115  117 1    
   229  115  236 1    
   230  116  237 1    
   231  116  238 1    
   232  116  239 1    
   233  117  118 2    
   234  117  119 am   BACKBONE|DICT|INTERRES
   235  119  120 1    
   236  119  240 1    
   237  120  121 1    
   238  120  124 1    
   239  120  241 1    
   240  121  122 am   BACKBONE|DICT|INTERRES
   241  121  123 2    
   242  122  242 1    
   243  122  243 1    
   244  124  125 1    
   245  124  244 1    
   246  124  245 1    
   247  125  126 1    
   248  126  246 1    
   249  126  247 1    
@<TRIPOS>SUBSTRUCTURE
     1 UNK         1 GROUP             0       ****    0 ROOT    
