@<TRIPOS>MOLECULE
3R540
247   249    1
SMALL
USER_CHARGES


@<TRIPOS>ATOM
      1 CA         -2.8009  -13.8628  -51.5160 C.3       0 UNK        -0.1800 
      2 C          -1.6475  -12.8721  -51.4547 C.2       0 UNK         0.5000 
      3 O          -1.8347  -11.6886  -51.7389 O.2       0 UNK        -0.5000 
      4 N          -0.4548  -13.3559  -51.0943 N.am      1 UNK        -0.5000 
      5 CA          0.7582  -12.5612  -50.8898 C.3       1 UNK         0.1400 
      6 C6          2.0275  -13.4538  -50.9493 C.3       23 UNK        -0.0398 
      7 S7          2.0665  -14.7858  -49.6951 S.3       23 UNK        -0.2404 
      8 C8          1.5320  -16.2172  -50.6782 C.3       23 UNK        -0.0205 
      9 C9          0.9235  -17.2902  -49.7925 C.ar      23 UNK        -0.0193 
     10 C10        -0.4077  -17.1793  -49.3806 C.ar      23 UNK        -0.1150 
     11 C11        -0.9974  -18.1804  -48.6055 C.ar      23 UNK        -0.0193 
     12 C12        -0.2470  -19.3052  -48.2550 C.ar      23 UNK        -0.1150 
     13 C13         1.0864  -19.4276  -48.6565 C.ar      23 UNK        -0.0193 
     14 C14         1.6710  -18.4099  -49.4162 C.ar      23 UNK        -0.1150 
     15 C15         1.8654  -20.6935  -48.3360 C.3       23 UNK        -0.0205 
     16 S16         1.9834  -21.0084  -46.5453 S.3       23 UNK        -0.2404 
     17 C17         2.3626  -22.7961  -46.5553 C.3       23 UNK        -0.0398 
     18 CA          1.1726  -23.7675  -46.3168 C.3       11 UNK         0.1400 
     19 N           0.8615  -23.9806  -44.8983 N.am      11 UNK        -0.5000 
     20 C           0.2638  -25.0977  -44.4512 C.2       10 UNK         0.5000 
     21 O          -0.0742  -26.0249  -45.1879 O.2       10 UNK        -0.5000 
     22 CA         -0.0478  -25.1929  -42.9463 C.3       10 UNK         0.1400 
     23 CB          1.1773  -25.7026  -42.1732 C.3       10 UNK        -0.1800 
     24 N          -0.5005  -23.9333  -42.3590 N.am      10 UNK        -0.5000 
     25 C          -1.5941  -23.2570  -42.7331 C.2       9 UNK         0.5000 
     26 O          -2.3512  -23.6308  -43.6292 O.2       9 UNK        -0.5000 
     27 CA         -1.8723  -21.9148  -42.0258 C.3       9 UNK         0.1400 
     28 CB         -1.1332  -21.7513  -40.6788 C.3       9 UNK        -0.1800 
     29 N          -1.5914  -20.7709  -42.8998 N.am      9 UNK        -0.5000 
     30 C          -0.4386  -20.5019  -43.5310 C.2       8 UNK         0.5000 
     31 O           0.5530  -21.2344  -43.4819 O.2       8 UNK        -0.5000 
     32 CA         -0.3831  -19.2248  -44.3972 C.3       8 UNK         0.1400 
     33 CB         -1.5466  -18.2352  -44.1703 C.3       8 UNK        -0.1800 
     34 N           0.9152  -18.5550  -44.2905 N.am      8 UNK        -0.5000 
     35 C           1.4744  -18.0440  -43.1837 C.2       7 UNK         0.5000 
     36 O           0.9015  -17.9859  -42.0938 O.2       7 UNK        -0.5000 
     37 CA          2.9298  -17.5404  -43.3052 C.3       7 UNK         0.1400 
     38 CB          3.4953  -17.5798  -44.7413 C.3       7 UNK        -0.1800 
     39 N           3.0494  -16.1768  -42.7977 N.am      7 UNK        -0.5000 
     40 C           3.2627  -15.8266  -41.5224 C.2       6 UNK         0.5000 
     41 O           3.4399  -16.6311  -40.6066 O.2       6 UNK        -0.5000 
     42 CA          3.2944  -14.3186  -41.2181 C.3       6 UNK         0.1400 
     43 CB          4.6821  -13.7366  -41.5321 C.3       6 UNK        -0.1800 
     44 N           2.2885  -13.5974  -41.9982 N.am      6 UNK        -0.5000 
     45 C           1.1121  -13.1638  -41.5239 C.2       5 UNK         0.5000 
     46 O           0.7653  -13.2747  -40.3472 O.2       5 UNK        -0.5000 
     47 CA          0.1540  -12.4885  -42.5288 C.3       5 UNK         0.1400 
     48 CB          0.3458  -10.9644  -42.5130 C.3       5 UNK        -0.1800 
     49 N           0.3253  -12.9711  -43.8991 N.am      5 UNK        -0.5000 
     50 C           0.0249  -14.2102  -44.3141 C.2       4 UNK         0.5000 
     51 O          -0.5528  -15.0367  -43.6107 O.2       4 UNK        -0.5000 
     52 CA          0.4697  -14.6073  -45.7375 C.3       4 UNK         0.1400 
     53 CB         -0.7348  -14.6216  -46.6894 C.3       4 UNK        -0.1800 
     54 N           1.5228  -13.7509  -46.2988 N.am      4 UNK        -0.5000 
     55 C           2.7557  -13.6052  -45.7866 C.2       3 UNK         0.5000 
     56 O           3.1256  -14.1753  -44.7611 O.2       3 UNK        -0.5000 
     57 CA          3.7339  -12.6426  -46.4871 C.3       3 UNK         0.1400 
     58 CB          4.8292  -13.4277  -47.2241 C.3       3 UNK        -0.1800 
     59 N           3.0925  -11.7186  -47.4214 N.am      3 UNK        -0.5000 
     60 C           2.2829  -10.7063  -47.0776 C.2       2 UNK         0.5000 
     61 O           2.0051  -10.4206  -45.9123 O.2       2 UNK        -0.5000 
     62 CA          1.6499   -9.9066  -48.2362 C.3       2 UNK         0.1400 
     63 CB          2.4856   -8.6556  -48.5460 C.3       2 UNK        -0.1800 
     64 N           1.4910  -10.6967  -49.4638 N.am      2 UNK        -0.5000 
     65 C           0.6851  -11.7625  -49.5694 C.2       1 UNK         0.5000 
     66 O          -0.0399  -12.1496  -48.6501 O.2       1 UNK        -0.5000 
     67 C          -0.0981  -23.4367  -47.1302 C.2       11 UNK         0.5000 
     68 O          -0.1940  -23.8408  -48.2883 O.2       11 UNK        -0.5000 
     69 N          -1.0694  -22.7570  -46.4996 N.am      12 UNK        -0.5000 
     70 CA         -2.3819  -22.4741  -47.0818 C.3       12 UNK         0.1400 
     71 CB         -3.1289  -21.4344  -46.2336 C.3       12 UNK        -0.1800 
     72 C          -3.2142  -23.7554  -47.2376 C.2       12 UNK         0.5000 
     73 O          -3.8417  -23.9442  -48.2781 O.2       12 UNK        -0.5000 
     74 N          -3.1613  -24.6332  -46.2256 N.am      13 UNK        -0.5000 
     75 CA         -3.7712  -25.9619  -46.2415 C.3       13 UNK         0.1400 
     76 CB         -3.6538  -26.6020  -44.8503 C.3       13 UNK        -0.1800 
     77 C          -3.1659  -26.8734  -47.3246 C.2       13 UNK         0.5000 
     78 O          -3.9172  -27.5288  -48.0464 O.2       13 UNK        -0.5000 
     79 N          -1.8310  -26.8579  -47.4600 N.am      14 UNK        -0.5000 
     80 CA         -1.0917  -27.5788  -48.5018 C.3       14 UNK         0.1400 
     81 CB          0.4156  -27.4806  -48.2245 C.3       14 UNK        -0.1800 
     82 C          -1.4163  -27.0848  -49.9260 C.2       14 UNK         0.5000 
     83 O          -1.5162  -27.8980  -50.8450 O.2       14 UNK        -0.5000 
     84 N          -1.6144  -25.7682  -50.0733 N.am      15 UNK        -0.5000 
     85 CA         -2.0552  -25.1106  -51.3056 C.3       15 UNK         0.1400 
     86 CB         -1.6987  -23.6176  -51.2100 C.3       15 UNK        -0.1800 
     87 C          -3.5626  -25.2783  -51.5950 C.2       15 UNK         0.5000 
     88 O          -4.0178  -24.8538  -52.6591 O.2       15 UNK        -0.5000 
     89 N          -4.3174  -25.8355  -50.6333 N.am      16 UNK        -0.5000 
     90 CA         -5.7799  -25.9598  -50.6025 C.3       16 UNK         0.1400 
     91 CB         -6.2532  -26.9991  -51.6388 C.3       16 UNK        -0.1800 
     92 C          -6.4879  -24.5955  -50.7532 C.2       16 UNK         0.5000 
     93 O          -7.5347  -24.5068  -51.3981 O.2       16 UNK        -0.5000 
     94 N          -5.8552  -23.5471  -50.2047 N.am      17 UNK        -0.5000 
     95 CA         -6.1050  -22.1106  -50.3556 C.3       17 UNK         0.1400 
     96 CB         -7.4801  -21.7141  -49.7868 C.3       17 UNK        -0.1800 
     97 C          -5.9231  -21.5822  -51.7933 C.2       17 UNK         0.5000 
     98 O          -5.2486  -20.5712  -51.9863 O.2       17 UNK        -0.5000 
     99 N          -6.5327  -22.2645  -52.7684 N.am      18 UNK        -0.5000 
    100 CA        -6.6579  -21.8700  -54.1682 C.3       18 UNK         0.1400 
    101 CB        -7.5275  -22.9025  -54.9009 C.3       18 UNK        -0.1800 
    102 C         -5.3257  -21.6684  -54.9083 C.2       18 UNK         0.5000 
    103 O         -5.2059  -20.6978  -55.6565 O.2       18 UNK        -0.5000 
    104 N         -4.3461  -22.5603  -54.6933 N.am      19 UNK        -0.5000 
    105 CA        -3.0661  -22.5297  -55.4134 C.3       19 UNK         0.1400 
    106 CB        -2.3472  -23.8790  -55.2641 C.3       19 UNK        -0.1800 
    107 C         -2.1454  -21.3681  -54.9906 C.2       19 UNK         0.5000 
    108 O         -1.2774  -20.9745  -55.7705 O.2       19 UNK        -0.5000 
    109 N         -2.3587  -20.8370  -53.7806 N.am      20 UNK        -0.5000 
    110 CA        -1.6386  -19.6904  -53.2238 C.3       20 UNK         0.1400 
    111 CB        -1.1174  -20.0802  -51.8334 C.3       20 UNK        -0.1800 
    112 C         -2.5106  -18.4166  -53.1808 C.2       20 UNK         0.5000 
    113 O         -2.0241  -17.3689  -52.7536 O.2       20 UNK        -0.5000 
    114 N         -3.7666  -18.5233  -53.6446 N.am      21 UNK        -0.5000 
    115 CA        -4.7975  -17.4827  -53.7184 C.3       21 UNK         0.1400 
    116 CB        -4.4056  -16.4085  -54.7545 C.3       21 UNK        -0.1800 
    117 C         -5.1758  -16.8868  -52.3445 C.2       21 UNK         0.5000 
    118 O         -5.4326  -15.6855  -52.2448 O.2       21 UNK        -0.5000 
    119 N         -5.1958  -17.7340  -51.3086 N.am      22 UNK        -0.5000 
    120 CA        -5.4855  -17.3548  -49.9172 C.3       22 UNK         0.1400 
    121 C         -6.9505  -16.8793  -49.7110 C.2       22 UNK         0.5000 
    122 N         -7.1725  -15.8762  -48.8722 N.am      22 UNK        -0.7600 
    123 O         -7.8914  -17.4427  -50.2661 O.2       22 UNK        -0.5000 
    124 C124       -5.1481  -18.4868  -48.9113 C.3       23 UNK        -0.0398 
    125 S125       -3.4893  -19.2003  -49.1507 S.3       23 UNK        -0.2404 
    126 C126       -2.4528  -18.0643  -48.1836 C.3       23 UNK        -0.0205 
    127 H127       -3.5783  -13.5831  -50.8053 H         1 UNK         0.0600 
    128 H128       -3.2379  -13.8687  -52.5145 H         1 UNK         0.0600 
    129 H129       -2.4800  -14.8792  -51.2849 H         1 UNK         0.0600 
    130 H130       -0.3774  -14.3246  -50.8248 H         1 UNK         0.3000 
    131 H131        0.8235  -11.8373  -51.7050 H         1 UNK         0.0600 
    132 H132        2.9261  -12.8472  -50.8269 H         1 UNK         0.0800 
    133 H133        2.1179  -13.8945  -51.9432 H         1 UNK         0.0800 
    134 H134        0.7977  -15.9162  -51.4266 H         1 UNK         0.0800 
    135 H135        2.3860  -16.6111  -51.2313 H         1 UNK         0.0800 
    136 H136       -0.9911  -16.3209  -49.6803 H         1 UNK         0.1150 
    137 H137       -0.7088  -20.1018  -47.6922 H         1 UNK         0.1150 
    138 H138        2.6967  -18.5029  -49.7439 H         1 UNK         0.1150 
    139 H139        1.3663  -21.5271  -48.8314 H         1 UNK         0.0800 
    140 H140        2.8733  -20.6478  -48.7512 H         1 UNK         0.0800 
    141 H141        2.8327  -23.0380  -47.5098 H         1 UNK         0.0800 
    142 H142        3.1378  -22.9777  -45.8097 H         1 UNK         0.0800 
    143 H143        1.5196  -24.7297  -46.7003 H         1 UNK         0.0600 
    144 H144        1.0554  -23.2174  -44.2589 H         1 UNK         0.3000 
    145 H145       -0.8531  -25.9201  -42.8241 H         1 UNK         0.0600 
    146 H146        0.9408  -25.8651  -41.1215 H         1 UNK         0.0600 
    147 H147        1.5260  -26.6540  -42.5773 H         1 UNK         0.0600 
    148 H148        2.0087  -24.9985  -42.2262 H         1 UNK         0.0600 
    149 H149        0.0890  -23.5285  -41.6465 H         1 UNK         0.3000 
    150 H150       -2.9433  -21.8968  -41.8189 H         1 UNK         0.0600 
    151 H151       -1.3464  -22.5846  -40.0080 H         1 UNK         0.0600 
    152 H152       -1.4547  -20.8421  -40.1706 H         1 UNK         0.0600 
    153 H153       -0.0515  -21.6887  -40.8024 H         1 UNK         0.0600 
    154 H154       -2.3559  -20.1218  -43.0188 H         1 UNK         0.3000 
    155 H155       -0.4521  -19.5695  -45.4270 H         1 UNK         0.0600 
    156 H156       -1.4472  -17.3688  -44.8236 H         1 UNK         0.0600 
    157 H157       -1.5802  -17.8701  -43.1433 H         1 UNK         0.0600 
    158 H158       -2.5116  -18.6893  -44.3962 H         1 UNK         0.0600 
    159 H159        1.4893  -18.6123  -45.1198 H         1 UNK         0.3000 
    160 H160        3.5442  -18.2038  -42.6933 H         1 UNK         0.0600 
    161 H161        2.9119  -16.9675  -45.4299 H         1 UNK         0.0600 
    162 H162        3.5204  -18.5978  -45.1320 H         1 UNK         0.0600 
    163 H163        4.5200  -17.2084  -44.7648 H         1 UNK         0.0600 
    164 H164        2.9635  -15.4392  -43.4923 H         1 UNK         0.3000 
    165 H165        3.1108  -14.1896  -40.1494 H         1 UNK         0.0600 
    166 H166        4.9326  -13.8336  -42.5893 H         1 UNK         0.0600 
    167 H167        4.7322  -12.6791  -41.2724 H         1 UNK         0.0600 
    168 H168        5.4581  -14.2488  -40.9619 H         1 UNK         0.0600 
    169 H169        2.4774  -13.5063  -42.9898 H         1 UNK         0.3000 
    170 H170       -0.8678  -12.7097  -42.2136 H         1 UNK         0.0600 
    171 H171        0.2059  -10.5627  -41.5086 H         1 UNK         0.0600 
    172 H172        1.3458  -10.6816  -42.8448 H         1 UNK         0.0600 
    173 H173       -0.3750  -10.4693  -43.1640 H         1 UNK         0.0600 
    174 H174        0.7841  -12.3457  -44.5474 H         1 UNK         0.3000 
    175 H175        0.8675  -15.6223  -45.6825 H         1 UNK         0.0600 
    176 H176       -1.2258  -13.6488  -46.7289 H         1 UNK         0.0600 
    177 H177       -0.4338  -14.8840  -47.7027 H         1 UNK         0.0600 
    178 H178       -1.4784  -15.3525  -46.3701 H         1 UNK         0.0600 
    179 H179        1.2771  -13.2362  -47.1351 H         1 UNK         0.3000 
    180 H180        4.2128  -12.0501  -45.7048 H         1 UNK         0.0600 
    181 H181        4.4189  -14.0368  -48.0293 H         1 UNK         0.0600 
    182 H182        5.3542  -14.0988  -46.5427 H         1 UNK         0.0600 
    183 H183        5.5735  -12.7578  -47.6548 H         1 UNK         0.0600 
    184 H184        3.2590  -11.8842  -48.4023 H         1 UNK         0.3000 
    185 H185        0.6588   -9.5844  -47.9097 H         1 UNK         0.0600 
    186 H186        2.6015   -8.0338  -47.6572 H         1 UNK         0.0600 
    187 H187        3.4850   -8.9150  -48.8976 H         1 UNK         0.0600 
    188 H188        2.0086   -8.0413  -49.3100 H         1 UNK         0.0600 
    189 H189        2.0575  -10.4201  -50.2531 H         1 UNK         0.3000 
    190 H190       -0.9341  -22.5204  -45.5282 H         1 UNK         0.3000 
    191 H191       -2.2299  -22.0512  -48.0773 H         1 UNK         0.0600 
    192 H192       -4.0925  -21.1906  -46.6832 H         1 UNK         0.0600 
    193 H193       -2.5659  -20.5066  -46.1611 H         1 UNK         0.0600 
    194 H194       -3.3230  -21.7905  -45.2226 H         1 UNK         0.0600 
    195 H195       -2.6766  -24.3649  -45.3737 H         1 UNK         0.3000 
    196 H196       -4.8320  -25.8359  -46.4680 H         1 UNK         0.0600 
    197 H197       -4.1377  -27.5792  -44.8286 H         1 UNK         0.0600 
    198 H198       -4.1331  -25.9838  -44.0909 H         1 UNK         0.0600 
    199 H199       -2.6140  -26.7442  -44.5563 H         1 UNK         0.0600 
    200 H200       -1.2777  -26.3366  -46.7875 H         1 UNK         0.3000 
    201 H201       -1.3791  -28.6306  -48.4432 H         1 UNK         0.0600 
    202 H202        0.6631  -27.8762  -47.2392 H         1 UNK         0.0600 
    203 H203        0.7666  -26.4499  -48.2704 H         1 UNK         0.0600 
    204 H204        0.9849  -28.0534  -48.9575 H         1 UNK         0.0600 
    205 H205       -1.4413  -25.1597  -49.2802 H         1 UNK         0.3000 
    206 H206       -1.5109  -25.5416  -52.1480 H         1 UNK         0.0600 
    207 H207       -0.6256  -23.4747  -51.0821 H         1 UNK         0.0600 
    208 H208       -1.9904  -23.0808  -52.1112 H         1 UNK         0.0600 
    209 H209       -2.2015  -23.1363  -50.3710 H         1 UNK         0.0600 
    210 H210       -3.8479  -26.1338  -49.7879 H         1 UNK         0.3000 
    211 H211       -6.0381  -26.3324  -49.6105 H         1 UNK         0.0600 
    212 H212       -6.0745  -26.6622  -52.6604 H         1 UNK         0.0600 
    213 H213       -7.3218  -27.1925  -51.5397 H         1 UNK         0.0600 
    214 H214       -5.7382  -27.9503  -51.5043 H         1 UNK         0.0600 
    215 H215       -5.0229  -23.7627  -49.6575 H         1 UNK         0.3000 
    216 H216       -5.3432  -21.6214  -49.7474 H         1 UNK         0.0600 
    217 H217       -8.2989  -22.2032  -50.3144 H         1 UNK         0.0600 
    218 H218       -7.6434  -20.6390  -49.8697 H         1 UNK         0.0600 
    219 H219       -7.5577  -21.9758  -48.7316 H         1 UNK         0.0600 
    220 H220       -7.0338  -23.1038  -52.4873 H         1 UNK         0.3000 
    221 H221       -7.1843  -20.9135  -54.1838 H         1 UNK         0.0600 
    222 H222       -7.0802  -23.8971  -54.8704 H         1 UNK         0.0600 
    223 H223       -8.5203  -22.9689  -54.4553 H         1 UNK         0.0600 
    224 H224       -7.6598  -22.6319  -55.9494 H         1 UNK         0.0600 
    225 H225       -4.4891  -23.3233  -54.0386 H         1 UNK         0.3000 
    226 H226       -3.2863  -22.3938  -56.4746 H         1 UNK         0.0600 
    227 H227       -2.9939  -24.7078  -55.5527 H         1 UNK         0.0600 
    228 H228       -1.4630  -23.9192  -55.9013 H         1 UNK         0.0600 
    229 H229       -2.0155  -24.0517  -54.2418 H         1 UNK         0.0600 
    230 H230       -3.1092  -21.2117  -53.2159 H         1 UNK         0.3000 
    231 H231       -0.7728  -19.4453  -53.8419 H         1 UNK         0.0600 
    232 H232       -1.9205  -20.4296  -51.1864 H         1 UNK         0.0600 
    233 H233       -0.3770  -20.8769  -51.9011 H         1 UNK         0.0600 
    234 H234       -0.6353  -19.2361  -51.3429 H         1 UNK         0.0600 
    235 H235       -4.0621  -19.4337  -53.9689 H         1 UNK         0.3000 
    236 H236       -5.6966  -17.9797  -54.0854 H         1 UNK         0.0600 
    237 H237       -4.1665  -16.8591  -55.7177 H         1 UNK         0.0600 
    238 H238       -5.2239  -15.7069  -54.9204 H         1 UNK         0.0600 
    239 H239       -3.5400  -15.8304  -54.4295 H         1 UNK         0.0600 
    240 H240       -5.0137  -18.7187  -51.4799 H         1 UNK         0.3000 
    241 H241       -4.8307  -16.5112  -49.6903 H         1 UNK         0.0600 
    242 H242       -6.4195  -15.4002  -48.4001 H         1 UNK         0.3800 
    243 H243       -8.1209  -15.5702  -48.7185 H         1 UNK         0.3800 
    244 H244       -5.2320  -18.1267  -47.8845 H         1 UNK         0.0800 
    245 H245       -5.8674  -19.3001  -49.0034 H         1 UNK         0.0800 
    246 H246       -2.5535  -18.2859  -47.1211 H         1 UNK         0.0800 
    247 H247       -2.8028  -17.0404  -48.3216 H         1 UNK         0.0800 
@<TRIPOS>BOND
     1    1    2 1    
     2    1  127 1    
     3    1  128 1    
     4    1  129 1    
     5    2    3 2    
     6    2    4 am   BACKBONE|DICT|INTERRES
     7    4    5 1    
     8    4  130 1    
     9    5    6 1    
    10    5   65 1    
    11    5  131 1    
    12    6    7 1    
    13    6  132 1    
    14    6  133 1    
    15    7    8 1    
    16    8    9 1    
    17    8  134 1    
    18    8  135 1    
    19    9   10 ar   
    20    9   14 ar   
    21   10   11 ar   
    22   10  136 1    
    23   11   12 ar   
    24   11  126 1    
    25   12   13 ar   
    26   12  137 1    
    27   13   14 ar   
    28   13   15 1    
    29   14  138 1    
    30   15   16 1    
    31   15  139 1    
    32   15  140 1    
    33   16   17 1    
    34   17   18 1    
    35   17  141 1    
    36   17  142 1    
    37   18   19 1    
    38   18   67 1    
    39   18  143 1    
    40   19   20 am   BACKBONE|DICT|INTERRES
    41   19  144 1    
    42   20   21 2    
    43   20   22 1    
    44   22   23 1    
    45   22   24 1    
    46   22  145 1    
    47   23  146 1    
    48   23  147 1    
    49   23  148 1    
    50   24   25 am   BACKBONE|DICT|INTERRES
    51   24  149 1    
    52   25   26 2    
    53   25   27 1    
    54   27   28 1    
    55   27   29 1    
    56   27  150 1    
    57   28  151 1    
    58   28  152 1    
    59   28  153 1    
    60   29   30 am   BACKBONE|DICT|INTERRES
    61   29  154 1    
    62   30   31 2    
    63   30   32 1    
    64   32   33 1    
    65   32   34 1    
    66   32  155 1    
    67   33  156 1    
    68   33  157 1    
    69   33  158 1    
    70   34   35 am   BACKBONE|DICT|INTERRES
    71   34  159 1    
    72   35   36 2    
    73   35   37 1    
    74   37   38 1    
    75   37   39 1    
    76   37  160 1    
    77   38  161 1    
    78   38  162 1    
    79   38  163 1    
    80   39   40 am   BACKBONE|DICT|INTERRES
    81   39  164 1    
    82   40   41 2    
    83   40   42 1    
    84   42   43 1    
    85   42   44 1    
    86   42  165 1    
    87   43  166 1    
    88   43  167 1    
    89   43  168 1    
    90   44   45 am   BACKBONE|DICT|INTERRES
    91   44  169 1    
    92   45   46 2    
    93   45   47 1    
    94   47   48 1    
    95   47   49 1    
    96   47  170 1    
    97   48  171 1    
    98   48  172 1    
    99   48  173 1    
   100   49   50 am   BACKBONE|DICT|INTERRES
   101   49  174 1    
   102   50   51 2    
   103   50   52 1    
   104   52   53 1    
   105   52   54 1    
   106   52  175 1    
   107   53  176 1    
   108   53  177 1    
   109   53  178 1    
   110   54   55 am   BACKBONE|DICT|INTERRES
   111   54  179 1    
   112   55   56 2    
   113   55   57 1    
   114   57   58 1    
   115   57   59 1    
   116   57  180 1    
   117   58  181 1    
   118   58  182 1    
   119   58  183 1    
   120   59   60 am   BACKBONE|DICT|INTERRES
   121   59  184 1    
   122   60   61 2    
   123   60   62 1    
   124   62   63 1    
   125   62   64 1    
   126   62  185 1    
   127   63  186 1    
   128   63  187 1    
   129   63  188 1    
   130   64   65 am   BACKBONE|DICT|INTERRES
   131   64  189 1    
   132   65   66 2    
   133   67   68 2    
   134   67   69 am   BACKBONE|DICT|INTERRES
   135   69   70 1    
   136   69  190 1    
   137   70   71 1    
   138   70   72 1    
   139   70  191 1    
   140   71  192 1    
   141   71  193 1    
   142   71  194 1    
   143   72   73 2    
   144   72   74 am   BACKBONE|DICT|INTERRES
   145   74   75 1    
   146   74  195 1    
   147   75   76 1    
   148   75   77 1    
   149   75  196 1    
   150   76  197 1    
   151   76  198 1    
   152   76  199 1    
   153   77   78 2    
   154   77   79 am   BACKBONE|DICT|INTERRES
   155   79   80 1    
   156   79  200 1    
   157   80   81 1    
   158   80   82 1    
   159   80  201 1    
   160   81  202 1    
   161   81  203 1    
   162   81  204 1    
   163   82   83 2    
   164   82   84 am   BACKBONE|DICT|INTERRES
   165   84   85 1    
   166   84  205 1    
   167   85   86 1    
   168   85   87 1    
   169   85  206 1    
   170   86  207 1    
   171   86  208 1    
   172   86  209 1    
   173   87   88 2    
   174   87   89 am   BACKBONE|DICT|INTERRES
   175   89   90 1    
   176   89  210 1    
   177   90   91 1    
   178   90   92 1    
   179   90  211 1    
   180   91  212 1    
   181   91  213 1    
   182   91  214 1    
   183   92   93 2    
   184   92   94 am   BACKBONE|DICT|INTERRES
   185   94   95 1    
   186   94  215 1    
   187   95   96 1    
   188   95   97 1    
   189   95  216 1    
   190   96  217 1    
   191   96  218 1    
   192   96  219 1    
   193   97   98 2    
   194   97   99 am   BACKBONE|DICT|INTERRES
   195   99  100 1    
   196   99  220 1    
   197  100  101 1    
   198  100  102 1    
   199  100  221 1    
   200  101  222 1    
   201  101  223 1    
   202  101  224 1    
   203  102  103 2    
   204  102  104 am   BACKBONE|DICT|INTERRES
   205  104  105 1    
   206  104  225 1    
   207  105  106 1    
   208  105  107 1    
   209  105  226 1    
   210  106  227 1    
   211  106  228 1    
   212  106  229 1    
   213  107  108 2    
   214  107  109 am   BACKBONE|DICT|INTERRES
   215  109  110 1    
   216  109  230 1    
   217  110  111 1    
   218  110  112 1    
   219  110  231 1    
   220  111  232 1    
   221  111  233 1    
   222  111  234 1    
   223  112  113 2    
   224  112  114 am   BACKBONE|DICT|INTERRES
   225  114  115 1    
   226  114  235 1    
   227  115  116 1    
   228  115  117 1    
   229  115  236 1    
   230  116  237 1    
   231  116  238 1    
   232  116  239 1    
   233  117  118 2    
   234  117  119 am   BACKBONE|DICT|INTERRES
   235  119  120 1    
   236  119  240 1    
   237  120  121 1    
   238  120  124 1    
   239  120  241 1    
   240  121  122 am   BACKBONE|DICT|INTERRES
   241  121  123 2    
   242  122  242 1    
   243  122  243 1    
   244  124  125 1    
   245  124  244 1    
   246  124  245 1    
   247  125  126 1    
   248  126  246 1    
   249  126  247 1    
@<TRIPOS>SUBSTRUCTURE
     1 UNK         1 GROUP             0       ****    0 ROOT    
