@<TRIPOS>MOLECULE
3R540
247   249    1
SMALL
USER_CHARGES


@<TRIPOS>ATOM
      1 CA         -6.6119  -17.0373  -42.0789 C.3       0 UNK        -0.1800 
      2 C          -5.4064  -17.2572  -42.9812 C.2       0 UNK         0.5000 
      3 O          -4.5821  -18.1245  -42.6958 O.2       0 UNK        -0.5000 
      4 N          -5.2962  -16.4643  -44.0555 N.am      1 UNK        -0.5000 
      5 CA         -4.2647  -16.4802  -45.1060 C.3       1 UNK         0.1400 
      6 C6         -4.1463  -17.8220  -45.8795 C.3       23 UNK        -0.0398 
      7 S7         -5.6909  -18.3379  -46.6990 S.3       23 UNK        -0.2404 
      8 C8         -5.6253  -17.4094  -48.2694 C.3       23 UNK        -0.0205 
      9 C9         -4.4263  -17.7592  -49.1445 C.ar      23 UNK        -0.0193 
     10 C10        -3.5516  -16.7529  -49.5702 C.ar      23 UNK        -0.1150 
     11 C11        -2.4718  -17.0490  -50.4087 C.ar      23 UNK        -0.0193 
     12 C12        -2.2720  -18.3719  -50.8118 C.ar      23 UNK        -0.1150 
     13 C13        -3.1328  -19.3867  -50.3964 C.ar      23 UNK        -0.0193 
     14 C14        -4.2134  -19.0753  -49.5663 C.ar      23 UNK        -0.1150 
     15 C15        -2.9032  -20.8115  -50.8741 C.3       23 UNK        -0.0205 
     16 S16        -1.4988  -21.5914  -50.0264 S.3       23 UNK        -0.2404 
     17 C17        -2.1835  -21.6175  -48.3457 C.3       23 UNK        -0.0398 
     18 CA         -1.5598  -22.6964  -47.4388 C.3       11 UNK         0.1400 
     19 N          -0.1596  -22.4380  -47.0859 N.am      11 UNK        -0.5000 
     20 C           0.6086  -23.2805  -46.3772 C.2       10 UNK         0.5000 
     21 O           0.2389  -24.3975  -46.0154 O.2       10 UNK        -0.5000 
     22 CA          1.9870  -22.7646  -45.9222 C.3       10 UNK         0.1400 
     23 CB          3.0391  -22.9027  -47.0322 C.3       10 UNK        -0.1800 
     24 N           1.9222  -21.3803  -45.4514 N.am      10 UNK        -0.5000 
     25 C           1.2335  -20.9929  -44.3680 C.2       9 UNK         0.5000 
     26 O           0.6780  -21.7793  -43.6002 O.2       9 UNK        -0.5000 
     27 CA          1.0830  -19.4788  -44.1367 C.3       9 UNK         0.1400 
     28 CB          2.2664  -18.9086  -43.3426 C.3       9 UNK        -0.1800 
     29 N           0.9206  -18.7378  -45.3887 N.am      9 UNK        -0.5000 
     30 C          -0.1642  -18.8096  -46.1729 C.2       8 UNK         0.5000 
     31 O          -1.1747  -19.4394  -45.8678 O.2       8 UNK        -0.5000 
     32 CA         -0.0944  -18.0967  -47.5367 C.3       8 UNK         0.1400 
     33 CB         -0.5297  -16.6317  -47.4203 C.3       8 UNK        -0.1800 
     34 N           1.2480  -18.1438  -48.1072 N.am      8 UNK        -0.5000 
     35 C           1.8308  -19.2498  -48.5846 C.2       7 UNK         0.5000 
     36 O           1.2895  -20.3529  -48.5999 O.2       7 UNK        -0.5000 
     37 CA          3.2882  -19.1030  -49.0595 C.3       7 UNK         0.1400 
     38 CB          3.3377  -18.5921  -50.5078 C.3       7 UNK        -0.1800 
     39 N           4.0599  -18.2021  -48.1992 N.am      7 UNK        -0.5000 
     40 C           4.3406  -18.4403  -46.9090 C.2       6 UNK         0.5000 
     41 O           4.0586  -19.4919  -46.3354 O.2       6 UNK        -0.5000 
     42 CA          4.9834  -17.2855  -46.1142 C.3       6 UNK         0.1400 
     43 CB          6.5143  -17.3422  -46.2203 C.3       6 UNK        -0.1800 
     44 N           4.5117  -15.9662  -46.5502 N.am      6 UNK        -0.5000 
     45 C           3.2472  -15.5386  -46.4320 C.2       5 UNK         0.5000 
     46 O           2.3580  -16.1879  -45.8780 O.2       5 UNK        -0.5000 
     47 CA          2.9082  -14.2127  -47.1264 C.3       5 UNK         0.1400 
     48 CB          2.9007  -14.4215  -48.6578 C.3       5 UNK        -0.1800 
     49 N           1.6011  -13.7356  -46.6737 N.am      5 UNK        -0.5000 
     50 C           1.0759  -12.5371  -46.9588 C.2       4 UNK         0.5000 
     51 O           1.6795  -11.6568  -47.5739 O.2       4 UNK        -0.5000 
     52 CA         -0.3672  -12.2667  -46.4974 C.3       4 UNK         0.1400 
     53 CB         -1.3760  -12.8631  -47.4919 C.3       4 UNK        -0.1800 
     54 N          -0.6574  -12.7543  -45.1483 N.am      4 UNK        -0.5000 
     55 C          -0.2392  -12.1455  -44.0277 C.2       3 UNK         0.5000 
     56 O           0.5032  -11.1624  -44.0278 O.2       3 UNK        -0.5000 
     57 CA         -0.7551  -12.6857  -42.6765 C.3       3 UNK         0.1400 
     58 CB         -1.9208  -11.8239  -42.1669 C.3       3 UNK        -0.1800 
     59 N          -1.1927  -14.0794  -42.7293 N.am      3 UNK        -0.5000 
     60 C          -0.3674  -15.1251  -42.8473 C.2       2 UNK         0.5000 
     61 O           0.8593  -15.0230  -42.8359 O.2       2 UNK        -0.5000 
     62 CA         -1.0025  -16.5191  -43.0165 C.3       2 UNK         0.1400 
     63 CB         -0.9245  -17.3075  -41.7002 C.3       2 UNK        -0.1800 
     64 N          -2.3834  -16.5752  -43.5122 N.am      2 UNK        -0.5000 
     65 C          -2.8733  -16.0153  -44.6256 C.2       1 UNK         0.5000 
     66 O          -2.2747  -15.1612  -45.2766 O.2       1 UNK        -0.5000 
     67 C          -2.4548  -22.8694  -46.2001 C.2       11 UNK         0.5000 
     68 O          -3.2848  -23.7754  -46.1977 O.2       11 UNK        -0.5000 
     69 N          -2.2734  -22.0195  -45.1796 N.am      12 UNK        -0.5000 
     70 CA         -3.0081  -22.0745  -43.9144 C.3       12 UNK         0.1400 
     71 CB         -2.6390  -20.8615  -43.0466 C.3       12 UNK        -0.1800 
     72 C          -2.7660  -23.3867  -43.1461 C.2       12 UNK         0.5000 
     73 O          -3.7120  -23.9514  -42.5964 O.2       12 UNK        -0.5000 
     74 N          -1.5128  -23.8619  -43.1534 N.am      13 UNK        -0.5000 
     75 CA         -1.1086  -25.1416  -42.5730 C.3       13 UNK         0.1400 
     76 CB          0.4238  -25.1920  -42.4722 C.3       13 UNK        -0.1800 
     77 C          -1.6482  -26.3491  -43.3641 C.2       13 UNK         0.5000 
     78 O          -2.1216  -27.3104  -42.7567 O.2       13 UNK        -0.5000 
     79 N          -1.5703  -26.2790  -44.6999 N.am      14 UNK        -0.5000 
     80 CA         -2.0103  -27.3341  -45.6168 C.3       14 UNK         0.1400 
     81 CB         -1.3403  -27.1080  -46.9815 C.3       14 UNK        -0.1800 
     82 C          -3.5396  -27.4188  -45.7930 C.2       14 UNK         0.5000 
     83 O          -4.0345  -28.4638  -46.2168 O.2       14 UNK        -0.5000 
     84 N          -4.2441  -26.3145  -45.5073 N.am      15 UNK        -0.5000 
     85 CA         -5.6507  -26.0380  -45.8212 C.3       15 UNK         0.1400 
     86 CB         -6.5984  -26.9994  -45.0737 C.3       15 UNK        -0.1800 
     87 C          -5.8950  -25.9859  -47.3466 C.2       15 UNK         0.5000 
     88 O          -6.8943  -26.5142  -47.8387 O.2       15 UNK        -0.5000 
     89 N          -4.9520  -25.3675  -48.0695 N.am      16 UNK        -0.5000 
     90 CA         -4.9601  -25.2404  -49.5261 C.3       16 UNK         0.1400 
     91 CB         -3.5110  -25.1298  -50.0227 C.3       16 UNK        -0.1800 
     92 C          -5.7760  -24.0197  -49.9864 C.2       16 UNK         0.5000 
     93 O          -5.8457  -23.0160  -49.2725 O.2       16 UNK        -0.5000 
     94 N          -6.3498  -24.1215  -51.1916 N.am      17 UNK        -0.5000 
     95 CA         -7.0826  -23.0473  -51.8624 C.3       17 UNK         0.1400 
     96 CB         -7.9428  -23.6564  -52.9806 C.3       17 UNK        -0.1800 
     97 C          -6.1316  -21.9801  -52.4365 C.2       17 UNK         0.5000 
     98 O          -5.0128  -22.3065  -52.8402 O.2       17 UNK        -0.5000 
     99 N          -6.6085  -20.7299  -52.4732 N.am      18 UNK        -0.5000 
    100 CA        -5.8913  -19.5509  -52.9663 C.3       18 UNK         0.1400 
    101 CB        -6.7372  -18.3118  -52.6221 C.3       18 UNK        -0.1800 
    102 C         -5.5746  -19.6070  -54.4815 C.2       18 UNK         0.5000 
    103 O         -6.2492  -20.3381  -55.2082 O.2       18 UNK        -0.5000 
    104 N         -4.6019  -18.8396  -54.9990 N.am      19 UNK        -0.5000 
    105 CA        -3.7644  -17.8395  -54.3216 C.3       19 UNK         0.1400 
    106 CB        -4.0186  -16.4717  -54.9774 C.3       19 UNK        -0.1800 
    107 C         -2.2635  -18.1839  -54.3578 C.2       19 UNK         0.5000 
    108 O         -1.4706  -17.3947  -53.8494 O.2       19 UNK        -0.5000 
    109 N         -1.8891  -19.3213  -54.9669 N.am      20 UNK        -0.5000 
    110 CA        -0.5477  -19.9370  -55.0024 C.3       20 UNK         0.1400 
    111 CB        -0.2499  -20.6158  -53.6504 C.3       20 UNK        -0.1800 
    112 C          0.6294  -19.0349  -55.4524 C.2       20 UNK         0.5000 
    113 O          1.7862  -19.3997  -55.2349 O.2       20 UNK        -0.5000 
    114 N          0.3221  -17.8888  -56.0758 N.am      21 UNK        -0.5000 
    115 CA         1.2394  -16.8215  -56.4799 C.3       21 UNK         0.1400 
    116 CB         2.1360  -17.2871  -57.6473 C.3       21 UNK        -0.1800 
    117 C          2.0348  -16.2198  -55.2973 C.2       21 UNK         0.5000 
    118 O          3.2523  -16.0543  -55.4035 O.2       21 UNK        -0.5000 
    119 N          1.3361  -15.8964  -54.1958 N.am      22 UNK        -0.5000 
    120 CA         1.8801  -15.1559  -53.0382 C.3       22 UNK         0.1400 
    121 C          2.5472  -13.8044  -53.4307 C.2       22 UNK         0.5000 
    122 N          3.6938  -13.4767  -52.8500 N.am      22 UNK        -0.7600 
    123 O          2.0078  -13.0313  -54.2199 O.2       22 UNK        -0.5000 
    124 C124        0.8037  -14.8794  -51.9564 C.3       23 UNK        -0.0398 
    125 S125        0.1730  -16.3857  -51.1520 S.3       23 UNK        -0.2404 
    126 C126       -1.5798  -15.9209  -50.9219 C.3       23 UNK        -0.0205 
    127 H127       -7.2540  -16.2363  -42.4460 H         1 UNK         0.0600 
    128 H128       -6.2841  -16.7771  -41.0725 H         1 UNK         0.0600 
    129 H129       -7.2059  -17.9493  -42.0202 H         1 UNK         0.0600 
    130 H130       -6.0108  -15.7637  -44.1947 H         1 UNK         0.3000 
    131 H131       -4.5892  -15.7276  -45.8263 H         1 UNK         0.0600 
    132 H132       -3.3615  -17.7725  -46.6331 H         1 UNK         0.0800 
    133 H133       -3.8462  -18.6264  -45.2082 H         1 UNK         0.0800 
    134 H134       -6.5358  -17.6172  -48.8327 H         1 UNK         0.0800 
    135 H135       -5.6442  -16.3417  -48.0466 H         1 UNK         0.0800 
    136 H136       -3.7224  -15.7304  -49.2639 H         1 UNK         0.1150 
    137 H137       -1.4475  -18.6170  -51.4633 H         1 UNK         0.1150 
    138 H138       -4.8932  -19.8549  -49.2512 H         1 UNK         0.1150 
    139 H139       -3.7937  -21.4173  -50.7073 H         1 UNK         0.0800 
    140 H140       -2.7311  -20.8120  -51.9498 H         1 UNK         0.0800 
    141 H141       -3.2591  -21.7865  -48.4367 H         1 UNK         0.0800 
    142 H142       -2.0752  -20.6247  -47.9127 H         1 UNK         0.0800 
    143 H143       -1.5758  -23.6463  -47.9753 H         1 UNK         0.0600 
    144 H144        0.2432  -21.5677  -47.4204 H         1 UNK         0.3000 
    145 H145        2.3091  -23.3834  -45.0819 H         1 UNK         0.0600 
    146 H146        4.0145  -22.5498  -46.6968 H         1 UNK         0.0600 
    147 H147        2.7700  -22.3408  -47.9252 H         1 UNK         0.0600 
    148 H148        3.1534  -23.9463  -47.3278 H         1 UNK         0.0600 
    149 H149        2.4059  -20.6796  -46.0020 H         1 UNK         0.3000 
    150 H150        0.1800  -19.3354  -43.5421 H         1 UNK         0.0600 
    151 H151        2.3429  -19.3870  -42.3655 H         1 UNK         0.0600 
    152 H152        2.1493  -17.8377  -43.1735 H         1 UNK         0.0600 
    153 H153        3.2137  -19.0649  -43.8573 H         1 UNK         0.0600 
    154 H154        1.6829  -18.1331  -45.6729 H         1 UNK         0.3000 
    155 H155       -0.7700  -18.6014  -48.2302 H         1 UNK         0.0600 
    156 H156       -1.6141  -16.5569  -47.3917 H         1 UNK         0.0600 
    157 H157       -0.1974  -16.0387  -48.2703 H         1 UNK         0.0600 
    158 H158       -0.1435  -16.1589  -46.5184 H         1 UNK         0.0600 
    159 H159        1.7767  -17.2866  -48.0853 H         1 UNK         0.3000 
    160 H160        3.7519  -20.0911  -49.0256 H         1 UNK         0.0600 
    161 H161        2.9434  -17.5791  -50.5923 H         1 UNK         0.0600 
    162 H162        2.7468  -19.2288  -51.1681 H         1 UNK         0.0600 
    163 H163        4.3587  -18.5871  -50.8896 H         1 UNK         0.0600 
    164 H164        4.3438  -17.3207  -48.5990 H         1 UNK         0.3000 
    165 H165        4.7085  -17.4121  -45.0650 H         1 UNK         0.0600 
    166 H166        6.9810  -16.5762  -45.6006 H         1 UNK         0.0600 
    167 H167        6.8928  -18.3075  -45.8815 H         1 UNK         0.0600 
    168 H168        6.8541  -17.1980  -47.2466 H         1 UNK         0.0600 
    169 H169        5.1887  -15.3778  -47.0144 H         1 UNK         0.3000 
    170 H170        3.6673  -13.4770  -46.8536 H         1 UNK         0.0600 
    171 H171        3.8550  -14.8102  -49.0142 H         1 UNK         0.0600 
    172 H172        2.1255  -15.1260  -48.9605 H         1 UNK         0.0600 
    173 H173        2.7271  -13.4882  -49.1927 H         1 UNK         0.0600 
    174 H174        1.0810  -14.3993  -46.1135 H         1 UNK         0.3000 
    175 H175       -0.5113  -11.1839  -46.5012 H         1 UNK         0.0600 
    176 H176       -1.3094  -13.9490  -47.5338 H         1 UNK         0.0600 
    177 H177       -2.3989  -12.6035  -47.2191 H         1 UNK         0.0600 
    178 H178       -1.2016  -12.4860  -48.5004 H         1 UNK         0.0600 
    179 H179       -1.2546  -13.5749  -45.0796 H         1 UNK         0.3000 
    180 H180        0.0638  -12.6085  -41.9581 H         1 UNK         0.0600 
    181 H181       -2.2493  -12.1479  -41.1792 H         1 UNK         0.0600 
    182 H182       -2.7785  -11.8700  -42.8392 H         1 UNK         0.0600 
    183 H183       -1.6259  -10.7771  -42.0823 H         1 UNK         0.0600 
    184 H184       -2.1870  -14.2485  -42.7677 H         1 UNK         0.3000 
    185 H185       -0.3922  -17.0295  -43.7586 H         1 UNK         0.0600 
    186 H186       -1.5340  -16.8453  -40.9228 H         1 UNK         0.0600 
    187 H187       -1.2717  -18.3326  -41.8296 H         1 UNK         0.0600 
    188 H188        0.1006  -17.3568  -41.3306 H         1 UNK         0.0600 
    189 H189       -2.9983  -17.2364  -43.0426 H         1 UNK         0.3000 
    190 H190       -1.6273  -21.2450  -45.2984 H         1 UNK         0.3000 
    191 H191       -4.0722  -22.0124  -44.1514 H         1 UNK         0.0600 
    192 H192       -1.6142  -20.9167  -42.6817 H         1 UNK         0.0600 
    193 H193       -3.2908  -20.7968  -42.1747 H         1 UNK         0.0600 
    194 H194       -2.7436  -19.9289  -43.5988 H         1 UNK         0.0600 
    195 H195       -0.7866  -23.3056  -43.5916 H         1 UNK         0.3000 
    196 H196       -1.5148  -25.1977  -41.5608 H         1 UNK         0.0600 
    197 H197        0.8046  -24.3750  -41.8590 H         1 UNK         0.0600 
    198 H198        0.8965  -25.1204  -43.4521 H         1 UNK         0.0600 
    199 H199        0.7545  -26.1252  -42.0147 H         1 UNK         0.0600 
    200 H200       -1.1095  -25.4769  -45.1212 H         1 UNK         0.3000 
    201 H201       -1.6706  -28.2957  -45.2264 H         1 UNK         0.0600 
    202 H202       -0.2537  -27.1230  -46.8948 H         1 UNK         0.0600 
    203 H203       -1.6277  -26.1488  -47.4137 H         1 UNK         0.0600 
    204 H204       -1.6207  -27.8863  -47.6923 H         1 UNK         0.0600 
    205 H205       -3.7097  -25.4933  -45.2449 H         1 UNK         0.3000 
    206 H206       -5.8480  -25.0314  -45.4496 H         1 UNK         0.0600 
    207 H207       -6.3845  -27.0105  -44.0050 H         1 UNK         0.0600 
    208 H208       -7.6374  -26.6905  -45.1937 H         1 UNK         0.0600 
    209 H209       -6.5196  -28.0219  -45.4432 H         1 UNK         0.0600 
    210 H210       -4.2182  -24.8795  -47.5671 H         1 UNK         0.3000 
    211 H211       -5.4005  -26.1423  -49.9569 H         1 UNK         0.0600 
    212 H212       -3.0384  -24.2135  -49.6733 H         1 UNK         0.0600 
    213 H213       -3.4718  -25.1171  -51.1127 H         1 UNK         0.0600 
    214 H214       -2.9084  -25.9730  -49.6849 H         1 UNK         0.0600 
    215 H215       -6.2010  -24.9599  -51.7337 H         1 UNK         0.3000 
    216 H216       -7.7450  -22.5739  -51.1342 H         1 UNK         0.0600 
    217 H217       -8.5262  -22.8873  -53.4883 H         1 UNK         0.0600 
    218 H218       -8.6468  -24.3882  -52.5838 H         1 UNK         0.0600 
    219 H219       -7.3301  -24.1528  -53.7344 H         1 UNK         0.0600 
    220 H220       -7.5536  -20.5667  -52.1592 H         1 UNK         0.3000 
    221 H221       -4.9516  -19.5103  -52.4205 H         1 UNK         0.0600 
    222 H222       -7.7213  -18.3582  -53.0899 H         1 UNK         0.0600 
    223 H223       -6.8812  -18.2230  -51.5449 H         1 UNK         0.0600 
    224 H224       -6.2663  -17.3881  -52.9568 H         1 UNK         0.0600 
    225 H225       -4.4571  -18.8988  -55.9966 H         1 UNK         0.3000 
    226 H226       -4.0141  -17.7429  -53.2666 H         1 UNK         0.0600 
    227 H227       -5.0712  -16.1947  -54.9163 H         1 UNK         0.0600 
    228 H228       -3.4504  -15.6837  -54.4810 H         1 UNK         0.0600 
    229 H229       -3.7331  -16.4699  -56.0300 H         1 UNK         0.0600 
    230 H230       -2.6220  -19.8821  -55.3774 H         1 UNK         0.3000 
    231 H231       -0.6057  -20.7258  -55.7537 H         1 UNK         0.0600 
    232 H232        0.6877  -21.1718  -53.6800 H         1 UNK         0.0600 
    233 H233       -1.0281  -21.3320  -53.3907 H         1 UNK         0.0600 
    234 H234       -0.1692  -19.8880  -52.8435 H         1 UNK         0.0600 
    235 H235       -0.6603  -17.6757  -56.1690 H         1 UNK         0.3000 
    236 H236        0.6126  -16.0123  -56.8573 H         1 UNK         0.0600 
    237 H237        2.8287  -18.0714  -57.3409 H         1 UNK         0.0600 
    238 H238        1.5386  -17.6716  -58.4739 H         1 UNK         0.0600 
    239 H239        2.7310  -16.4599  -58.0361 H         1 UNK         0.0600 
    240 H240        0.3545  -16.1437  -54.1461 H         1 UNK         0.3000 
    241 H241        2.6493  -15.7924  -52.5967 H         1 UNK         0.0600 
    242 H242        4.1259  -12.5967  -53.0854 H         1 UNK         0.3800 
    243 H243        4.1560  -14.0943  -52.2013 H         1 UNK         0.3800 
    244 H244       -0.0253  -14.3215  -52.3951 H         1 UNK         0.0800 
    245 H245        1.2046  -14.2453  -51.1638 H         1 UNK         0.0800 
    246 H246       -1.6217  -15.0696  -50.2408 H         1 UNK         0.0800 
    247 H247       -1.9880  -15.5819  -51.8746 H         1 UNK         0.0800 
@<TRIPOS>BOND
     1    1    2 1    
     2    1  127 1    
     3    1  128 1    
     4    1  129 1    
     5    2    3 2    
     6    2    4 am   BACKBONE|DICT|INTERRES
     7    4    5 1    
     8    4  130 1    
     9    5    6 1    
    10    5   65 1    
    11    5  131 1    
    12    6    7 1    
    13    6  132 1    
    14    6  133 1    
    15    7    8 1    
    16    8    9 1    
    17    8  134 1    
    18    8  135 1    
    19    9   10 ar   
    20    9   14 ar   
    21   10   11 ar   
    22   10  136 1    
    23   11   12 ar   
    24   11  126 1    
    25   12   13 ar   
    26   12  137 1    
    27   13   14 ar   
    28   13   15 1    
    29   14  138 1    
    30   15   16 1    
    31   15  139 1    
    32   15  140 1    
    33   16   17 1    
    34   17   18 1    
    35   17  141 1    
    36   17  142 1    
    37   18   19 1    
    38   18   67 1    
    39   18  143 1    
    40   19   20 am   BACKBONE|DICT|INTERRES
    41   19  144 1    
    42   20   21 2    
    43   20   22 1    
    44   22   23 1    
    45   22   24 1    
    46   22  145 1    
    47   23  146 1    
    48   23  147 1    
    49   23  148 1    
    50   24   25 am   BACKBONE|DICT|INTERRES
    51   24  149 1    
    52   25   26 2    
    53   25   27 1    
    54   27   28 1    
    55   27   29 1    
    56   27  150 1    
    57   28  151 1    
    58   28  152 1    
    59   28  153 1    
    60   29   30 am   BACKBONE|DICT|INTERRES
    61   29  154 1    
    62   30   31 2    
    63   30   32 1    
    64   32   33 1    
    65   32   34 1    
    66   32  155 1    
    67   33  156 1    
    68   33  157 1    
    69   33  158 1    
    70   34   35 am   BACKBONE|DICT|INTERRES
    71   34  159 1    
    72   35   36 2    
    73   35   37 1    
    74   37   38 1    
    75   37   39 1    
    76   37  160 1    
    77   38  161 1    
    78   38  162 1    
    79   38  163 1    
    80   39   40 am   BACKBONE|DICT|INTERRES
    81   39  164 1    
    82   40   41 2    
    83   40   42 1    
    84   42   43 1    
    85   42   44 1    
    86   42  165 1    
    87   43  166 1    
    88   43  167 1    
    89   43  168 1    
    90   44   45 am   BACKBONE|DICT|INTERRES
    91   44  169 1    
    92   45   46 2    
    93   45   47 1    
    94   47   48 1    
    95   47   49 1    
    96   47  170 1    
    97   48  171 1    
    98   48  172 1    
    99   48  173 1    
   100   49   50 am   BACKBONE|DICT|INTERRES
   101   49  174 1    
   102   50   51 2    
   103   50   52 1    
   104   52   53 1    
   105   52   54 1    
   106   52  175 1    
   107   53  176 1    
   108   53  177 1    
   109   53  178 1    
   110   54   55 am   BACKBONE|DICT|INTERRES
   111   54  179 1    
   112   55   56 2    
   113   55   57 1    
   114   57   58 1    
   115   57   59 1    
   116   57  180 1    
   117   58  181 1    
   118   58  182 1    
   119   58  183 1    
   120   59   60 am   BACKBONE|DICT|INTERRES
   121   59  184 1    
   122   60   61 2    
   123   60   62 1    
   124   62   63 1    
   125   62   64 1    
   126   62  185 1    
   127   63  186 1    
   128   63  187 1    
   129   63  188 1    
   130   64   65 am   BACKBONE|DICT|INTERRES
   131   64  189 1    
   132   65   66 2    
   133   67   68 2    
   134   67   69 am   BACKBONE|DICT|INTERRES
   135   69   70 1    
   136   69  190 1    
   137   70   71 1    
   138   70   72 1    
   139   70  191 1    
   140   71  192 1    
   141   71  193 1    
   142   71  194 1    
   143   72   73 2    
   144   72   74 am   BACKBONE|DICT|INTERRES
   145   74   75 1    
   146   74  195 1    
   147   75   76 1    
   148   75   77 1    
   149   75  196 1    
   150   76  197 1    
   151   76  198 1    
   152   76  199 1    
   153   77   78 2    
   154   77   79 am   BACKBONE|DICT|INTERRES
   155   79   80 1    
   156   79  200 1    
   157   80   81 1    
   158   80   82 1    
   159   80  201 1    
   160   81  202 1    
   161   81  203 1    
   162   81  204 1    
   163   82   83 2    
   164   82   84 am   BACKBONE|DICT|INTERRES
   165   84   85 1    
   166   84  205 1    
   167   85   86 1    
   168   85   87 1    
   169   85  206 1    
   170   86  207 1    
   171   86  208 1    
   172   86  209 1    
   173   87   88 2    
   174   87   89 am   BACKBONE|DICT|INTERRES
   175   89   90 1    
   176   89  210 1    
   177   90   91 1    
   178   90   92 1    
   179   90  211 1    
   180   91  212 1    
   181   91  213 1    
   182   91  214 1    
   183   92   93 2    
   184   92   94 am   BACKBONE|DICT|INTERRES
   185   94   95 1    
   186   94  215 1    
   187   95   96 1    
   188   95   97 1    
   189   95  216 1    
   190   96  217 1    
   191   96  218 1    
   192   96  219 1    
   193   97   98 2    
   194   97   99 am   BACKBONE|DICT|INTERRES
   195   99  100 1    
   196   99  220 1    
   197  100  101 1    
   198  100  102 1    
   199  100  221 1    
   200  101  222 1    
   201  101  223 1    
   202  101  224 1    
   203  102  103 2    
   204  102  104 am   BACKBONE|DICT|INTERRES
   205  104  105 1    
   206  104  225 1    
   207  105  106 1    
   208  105  107 1    
   209  105  226 1    
   210  106  227 1    
   211  106  228 1    
   212  106  229 1    
   213  107  108 2    
   214  107  109 am   BACKBONE|DICT|INTERRES
   215  109  110 1    
   216  109  230 1    
   217  110  111 1    
   218  110  112 1    
   219  110  231 1    
   220  111  232 1    
   221  111  233 1    
   222  111  234 1    
   223  112  113 2    
   224  112  114 am   BACKBONE|DICT|INTERRES
   225  114  115 1    
   226  114  235 1    
   227  115  116 1    
   228  115  117 1    
   229  115  236 1    
   230  116  237 1    
   231  116  238 1    
   232  116  239 1    
   233  117  118 2    
   234  117  119 am   BACKBONE|DICT|INTERRES
   235  119  120 1    
   236  119  240 1    
   237  120  121 1    
   238  120  124 1    
   239  120  241 1    
   240  121  122 am   BACKBONE|DICT|INTERRES
   241  121  123 2    
   242  122  242 1    
   243  122  243 1    
   244  124  125 1    
   245  124  244 1    
   246  124  245 1    
   247  125  126 1    
   248  126  246 1    
   249  126  247 1    
@<TRIPOS>SUBSTRUCTURE
     1 UNK         1 GROUP             0       ****    0 ROOT    
