@<TRIPOS>MOLECULE
3R540
247   249    1
SMALL
USER_CHARGES


@<TRIPOS>ATOM
      1 CA         -2.9996  -11.9524  -49.5309 C.3       0 UNK        -0.1800 
      2 C          -2.2385  -13.1353  -48.9521 C.2       0 UNK         0.5000 
      3 O          -1.1655  -12.9503  -48.3779 O.2       0 UNK        -0.5000 
      4 N          -2.7942  -14.3475  -49.0830 N.am      1 UNK        -0.5000 
      5 CA         -2.1895  -15.6078  -48.6307 C.3       1 UNK         0.1400 
      6 C6         -3.0256  -16.8440  -49.0310 C.3       23 UNK        -0.0398 
      7 S7         -3.2478  -17.0058  -50.8318 S.3       23 UNK        -0.2404 
      8 C8         -2.0438  -18.3167  -51.2261 C.3       23 UNK        -0.0205 
      9 C9         -0.6082  -17.8275  -51.1070 C.ar      23 UNK        -0.0193 
     10 C10        -0.1505  -16.8027  -51.9382 C.ar      23 UNK        -0.1150 
     11 C11         1.1626  -16.3408  -51.8362 C.ar      23 UNK        -0.0193 
     12 C12         2.0196  -16.9147  -50.8955 C.ar      23 UNK        -0.1150 
     13 C13         1.5850  -17.9439  -50.0552 C.ar      23 UNK        -0.0193 
     14 C14         0.2627  -18.3984  -50.1740 C.ar      23 UNK        -0.1150 
     15 C15         2.5829  -18.4951  -49.0323 C.3       23 UNK        -0.0205 
     16 S16         2.1929  -20.1251  -48.3087 S.3       23 UNK        -0.2404 
     17 C17         0.9428  -19.6664  -47.0669 C.3       23 UNK        -0.0398 
     18 CA         -0.1304  -20.7733  -46.9086 C.3       11 UNK         0.1400 
     19 N           0.2133  -21.7175  -45.8393 N.am      11 UNK        -0.5000 
     20 C          -0.3627  -22.9184  -45.6812 C.2       10 UNK         0.5000 
     21 O          -1.2172  -23.3652  -46.4440 O.2       10 UNK        -0.5000 
     22 CA          0.0351  -23.7372  -44.4359 C.3       10 UNK         0.1400 
     23 CB          1.2749  -24.5939  -44.7301 C.3       10 UNK        -0.1800 
     24 N           0.2908  -22.9096  -43.2558 N.am      10 UNK        -0.5000 
     25 C          -0.5902  -22.0645  -42.7039 C.2       9 UNK         0.5000 
     26 O          -1.7596  -21.9736  -43.0762 O.2       9 UNK        -0.5000 
     27 CA         -0.0851  -21.1239  -41.5907 C.3       9 UNK         0.1400 
     28 CB         -0.5948  -21.5955  -40.2212 C.3       9 UNK        -0.1800 
     29 N           1.3687  -20.9356  -41.5131 N.am      9 UNK        -0.5000 
     30 C           2.1874  -20.5280  -42.4923 C.2       8 UNK         0.5000 
     31 O           1.8294  -20.3605  -43.6603 O.2       8 UNK        -0.5000 
     32 CA          3.6421  -20.2489  -42.0719 C.3       8 UNK         0.1400 
     33 CB          4.5668  -19.9953  -43.2762 C.3       8 UNK        -0.1800 
     34 N           3.7073  -19.1052  -41.1581 N.am      8 UNK        -0.5000 
     35 C           3.4967  -19.1629  -39.8343 C.2       7 UNK         0.5000 
     36 O           3.2067  -20.2065  -39.2468 O.2       7 UNK        -0.5000 
     37 CA          3.6249  -17.8562  -39.0233 C.3       7 UNK         0.1400 
     38 CB          5.0283  -17.7468  -38.4079 C.3       7 UNK        -0.1800 
     39 N           3.3598  -16.6526  -39.8120 N.am      7 UNK        -0.5000 
     40 C           2.1409  -16.2283  -40.1698 C.2       6 UNK         0.5000 
     41 O           1.0970  -16.7774  -39.8146 O.2       6 UNK        -0.5000 
     42 CA          2.0653  -15.0161  -41.1251 C.3       6 UNK         0.1400 
     43 CB          3.3133  -14.1058  -41.0979 C.3       6 UNK        -0.1800 
     44 N           1.7707  -15.4591  -42.4897 N.am      6 UNK        -0.5000 
     45 C           2.4797  -16.3470  -43.2040 C.2       5 UNK         0.5000 
     46 O           3.5826  -16.7818  -42.8701 O.2       5 UNK        -0.5000 
     47 CA          1.8170  -16.8691  -44.4853 C.3       5 UNK         0.1400 
     48 CB          0.4413  -17.4782  -44.1604 C.3       5 UNK        -0.1800 
     49 N           1.6640  -15.8277  -45.4957 N.am      5 UNK        -0.5000 
     50 C           2.6621  -15.1647  -46.0965 C.2       4 UNK         0.5000 
     51 O           3.8557  -15.4160  -45.9308 O.2       4 UNK        -0.5000 
     52 CA          2.2560  -14.0117  -47.0345 C.3       4 UNK         0.1400 
     53 CB          1.9575  -14.5368  -48.4451 C.3       4 UNK        -0.1800 
     54 N           1.0981  -13.2677  -46.5400 N.am      4 UNK        -0.5000 
     55 C           1.0978  -12.5041  -45.4379 C.2       3 UNK         0.5000 
     56 O           2.0988  -12.2758  -44.7582 O.2       3 UNK        -0.5000 
     57 CA         -0.2598  -11.9247  -45.0057 C.3       3 UNK         0.1400 
     58 CB         -0.5738  -10.6265  -45.7653 C.3       3 UNK        -0.1800 
     59 N          -1.3449  -12.8856  -45.2044 N.am      3 UNK        -0.5000 
     60 C          -1.5436  -13.9665  -44.4375 C.2       2 UNK         0.5000 
     61 O          -0.8589  -14.2405  -43.4502 O.2       2 UNK        -0.5000 
     62 CA         -2.6790  -14.9167  -44.8646 C.3       2 UNK         0.1400 
     63 CB         -4.0184  -14.4695  -44.2622 C.3       2 UNK        -0.1800 
     64 N          -2.8134  -15.0276  -46.3187 N.am      2 UNK        -0.5000 
     65 C          -1.9214  -15.6371  -47.1133 C.2       1 UNK         0.5000 
     66 O          -0.9053  -16.1866  -46.6965 O.2       1 UNK        -0.5000 
     67 C          -1.5369  -20.1741  -46.7050 C.2       11 UNK         0.5000 
     68 O          -2.2848  -20.0382  -47.6746 O.2       11 UNK        -0.5000 
     69 N          -1.8908  -19.8682  -45.4487 N.am      12 UNK        -0.5000 
     70 CA         -3.2097  -19.3588  -45.0709 C.3       12 UNK         0.1400 
     71 CB         -3.1697  -18.8348  -43.6269 C.3       12 UNK        -0.1800 
     72 C          -4.3082  -20.4237  -45.2426 C.2       12 UNK         0.5000 
     73 O          -5.4219  -20.0846  -45.6399 O.2       12 UNK        -0.5000 
     74 N          -3.9623  -21.6898  -44.9701 N.am      13 UNK        -0.5000 
     75 CA         -4.8086  -22.8566  -45.2091 C.3       13 UNK         0.1400 
     76 CB         -4.2208  -24.0721  -44.4764 C.3       13 UNK        -0.1800 
     77 C          -4.9944  -23.1565  -46.7089 C.2       13 UNK         0.5000 
     78 O          -6.1022  -23.5078  -47.1134 O.2       13 UNK        -0.5000 
     79 N          -3.9199  -23.0082  -47.5010 N.am      14 UNK        -0.5000 
     80 CA         -3.9086  -23.1923  -48.9547 C.3       14 UNK         0.1400 
     81 CB         -2.4714  -23.0752  -49.4836 C.3       14 UNK        -0.1800 
     82 C          -4.8295  -22.2037  -49.6875 C.2       14 UNK         0.5000 
     83 O          -5.6036  -22.6203  -50.5529 O.2       14 UNK        -0.5000 
     84 N          -4.7351  -20.9198  -49.3096 N.am      15 UNK        -0.5000 
     85 CA         -5.6525  -19.8219  -49.6459 C.3       15 UNK         0.1400 
     86 CB         -7.0015  -20.0516  -48.9329 C.3       15 UNK        -0.1800 
     87 C          -5.8634  -19.5496  -51.1537 C.2       15 UNK         0.5000 
     88 O          -6.8285  -18.8704  -51.5074 O.2       15 UNK        -0.5000 
     89 N          -4.9891  -20.0962  -52.0139 N.am      16 UNK        -0.5000 
     90 CA         -5.0952  -20.1237  -53.4769 C.3       16 UNK         0.1400 
     91 CB         -4.9570  -18.7026  -54.0668 C.3       16 UNK        -0.1800 
     92 C          -6.3540  -20.8616  -53.9869 C.2       16 UNK         0.5000 
     93 O          -6.8433  -20.5477  -55.0739 O.2       16 UNK        -0.5000 
     94 N          -6.8636  -21.8190  -53.1988 N.am      17 UNK        -0.5000 
     95 CA         -8.1058  -22.5377  -53.4807 C.3       17 UNK         0.1400 
     96 CB         -9.2861  -21.8128  -52.8113 C.3       17 UNK        -0.1800 
     97 C          -8.0365  -24.0047  -53.0383 C.2       17 UNK         0.5000 
     98 O          -8.4245  -24.8844  -53.8082 O.2       17 UNK        -0.5000 
     99 N          -7.5493  -24.2521  -51.8157 N.am      18 UNK        -0.5000 
    100 CA        -7.4024  -25.5941  -51.2510 C.3       18 UNK         0.1400 
    101 CB        -7.4911  -25.5080  -49.7207 C.3       18 UNK        -0.1800 
    102 C         -6.0819  -26.2587  -51.6760 C.2       18 UNK         0.5000 
    103 O         -6.0234  -27.4864  -51.7568 O.2       18 UNK        -0.5000 
    104 N         -5.0547  -25.4440  -51.9445 N.am      19 UNK        -0.5000 
    105 CA        -3.7385  -25.8714  -52.4043 C.3       19 UNK         0.1400 
    106 CB        -2.9089  -26.4416  -51.2306 C.3       19 UNK        -0.1800 
    107 C         -3.0717  -24.7160  -53.1732 C.2       19 UNK         0.5000 
    108 O         -3.7216  -24.1176  -54.0328 O.2       19 UNK        -0.5000 
    109 N         -1.7927  -24.4492  -52.8744 N.am      20 UNK        -0.5000 
    110 CA        -0.9072  -23.4923  -53.5408 C.3       20 UNK         0.1400 
    111 CB         0.4316  -23.4562  -52.7871 C.3       20 UNK        -0.1800 
    112 C         -1.4709  -22.0641  -53.6708 C.2       20 UNK         0.5000 
    113 O         -2.0334  -21.5274  -52.7135 O.2       20 UNK        -0.5000 
    114 N         -1.2539  -21.4735  -54.8508 N.am      21 UNK        -0.5000 
    115 CA        -1.6405  -20.1150  -55.2192 C.3       21 UNK         0.1400 
    116 CB        -2.6066  -20.1817  -56.4173 C.3       21 UNK        -0.1800 
    117 C         -0.3720  -19.3001  -55.5209 C.2       21 UNK         0.5000 
    118 O         -0.1753  -18.8480  -56.6499 O.2       21 UNK        -0.5000 
    119 N          0.4869  -19.1618  -54.5027 N.am      22 UNK        -0.5000 
    120 CA         1.7836  -18.4602  -54.5589 C.3       22 UNK         0.1400 
    121 C          2.9016  -19.2138  -55.3469 C.2       22 UNK         0.5000 
    122 N          2.7500  -20.5003  -55.6377 N.am      22 UNK        -0.7600 
    123 O          3.9349  -18.6408  -55.6810 O.2       22 UNK        -0.5000 
    124 C124        1.6373  -16.9632  -54.9727 C.3       23 UNK        -0.0398 
    125 S125        2.7606  -15.8567  -54.0513 S.3       23 UNK        -0.2404 
    126 C126        1.6604  -15.2260  -52.7434 C.3       23 UNK        -0.0205 
    127 H127       -3.2214  -11.2296  -48.7457 H         1 UNK         0.0600 
    128 H128       -3.9405  -12.2597  -49.9881 H         1 UNK         0.0600 
    129 H129       -2.3965  -11.4567  -50.2915 H         1 UNK         0.0600 
    130 H130       -3.6679  -14.4398  -49.5815 H         1 UNK         0.3000 
    131 H131       -1.2176  -15.6870  -49.1222 H         1 UNK         0.0600 
    132 H132       -4.0136  -16.8041  -48.5694 H         1 UNK         0.0800 
    133 H133       -2.5545  -17.7523  -48.6587 H         1 UNK         0.0800 
    134 H134       -2.2221  -19.1838  -50.5874 H         1 UNK         0.0800 
    135 H135       -2.2131  -18.6554  -52.2470 H         1 UNK         0.0800 
    136 H136       -0.8223  -16.3636  -52.6623 H         1 UNK         0.1150 
    137 H137        3.0359  -16.5537  -50.8200 H         1 UNK         0.1150 
    138 H138       -0.1058  -19.1946  -49.5465 H         1 UNK         0.1150 
    139 H139        3.5596  -18.5829  -49.5107 H         1 UNK         0.0800 
    140 H140        2.7034  -17.7672  -48.2284 H         1 UNK         0.0800 
    141 H141        0.5040  -18.7078  -47.3520 H         1 UNK         0.0800 
    142 H142        1.4584  -19.4802  -46.1258 H         1 UNK         0.0800 
    143 H143       -0.1866  -21.3400  -47.8407 H         1 UNK         0.0600 
    144 H144        0.8871  -21.4001  -45.1492 H         1 UNK         0.3000 
    145 H145       -0.7958  -24.4045  -44.1991 H         1 UNK         0.0600 
    146 H146        1.5171  -25.2408  -43.8868 H         1 UNK         0.0600 
    147 H147        1.1080  -25.2377  -45.5948 H         1 UNK         0.0600 
    148 H148        2.1490  -23.9771  -44.9434 H         1 UNK         0.0600 
    149 H149        1.2333  -22.9103  -42.8959 H         1 UNK         0.3000 
    150 H150       -0.5193  -20.1428  -41.7926 H         1 UNK         0.0600 
    151 H151       -1.6796  -21.7120  -40.2239 H         1 UNK         0.0600 
    152 H152       -0.3496  -20.8760  -39.4396 H         1 UNK         0.0600 
    153 H153       -0.1613  -22.5566  -39.9418 H         1 UNK         0.0600 
    154 H154        1.7747  -21.0133  -40.5872 H         1 UNK         0.3000 
    155 H155        4.0128  -21.1396  -41.5604 H         1 UNK         0.0600 
    156 H156        4.2474  -19.1352  -43.8643 H         1 UNK         0.0600 
    157 H157        4.5802  -20.8577  -43.9437 H         1 UNK         0.0600 
    158 H158        5.5929  -19.8175  -42.9544 H         1 UNK         0.0600 
    159 H159        3.8589  -18.1998  -41.5947 H         1 UNK         0.3000 
    160 H160        2.9010  -17.9039  -38.2069 H         1 UNK         0.0600 
    161 H161        5.8008  -17.6836  -39.1754 H         1 UNK         0.0600 
    162 H162        5.2520  -18.6158  -37.7876 H         1 UNK         0.0600 
    163 H163        5.1128  -16.8652  -37.7722 H         1 UNK         0.0600 
    164 H164        4.1634  -16.1669  -40.1840 H         1 UNK         0.3000 
    165 H165        1.2127  -14.4173  -40.8014 H         1 UNK         0.0600 
    166 H166        3.1567  -13.2211  -41.7156 H         1 UNK         0.0600 
    167 H167        3.5215  -13.7585  -40.0852 H         1 UNK         0.0600 
    168 H168        4.2085  -14.6057  -41.4681 H         1 UNK         0.0600 
    169 H169        0.8745  -15.1536  -42.8573 H         1 UNK         0.3000 
    170 H170        2.4549  -17.6535  -44.8965 H         1 UNK         0.0600 
    171 H171        0.5014  -18.1924  -43.3407 H         1 UNK         0.0600 
    172 H172       -0.2807  -16.7222  -43.8624 H         1 UNK         0.0600 
    173 H173        0.0264  -17.9962  -45.0195 H         1 UNK         0.0600 
    174 H174        0.7112  -15.6176  -45.7747 H         1 UNK         0.3000 
    175 H175        3.0981  -13.3197  -47.1000 H         1 UNK         0.0600 
    176 H176        1.1408  -15.2593  -48.4428 H         1 UNK         0.0600 
    177 H177        1.6854  -13.7271  -49.1225 H         1 UNK         0.0600 
    178 H178        2.8348  -15.0305  -48.8630 H         1 UNK         0.0600 
    179 H179        0.2412  -13.3414  -47.0809 H         1 UNK         0.3000 
    180 H180       -0.1990  -11.6868  -43.9414 H         1 UNK         0.0600 
    181 H181       -1.5134  -10.1895  -45.4270 H         1 UNK         0.0600 
    182 H182       -0.6487  -10.7919  -46.8403 H         1 UNK         0.0600 
    183 H183        0.2075   -9.8830  -45.6027 H         1 UNK         0.0600 
    184 H184       -1.9132  -12.7626  -46.0297 H         1 UNK         0.3000 
    185 H185       -2.4481  -15.9070  -44.4701 H         1 UNK         0.0600 
    186 H186       -4.8108  -15.1821  -44.4922 H         1 UNK         0.0600 
    187 H187       -3.9527  -14.3983  -43.1757 H         1 UNK         0.0600 
    188 H188       -4.3243  -13.4924  -44.6378 H         1 UNK         0.0600 
    189 H189       -3.6176  -14.5864  -46.7406 H         1 UNK         0.3000 
    190 H190       -1.2471  -20.0673  -44.6979 H         1 UNK         0.3000 
    191 H191       -3.4476  -18.5201  -45.7292 H         1 UNK         0.0600 
    192 H192       -4.1139  -18.3564  -43.3638 H         1 UNK         0.0600 
    193 H193       -2.3824  -18.0945  -43.4924 H         1 UNK         0.0600 
    194 H194       -2.9997  -19.6357  -42.9075 H         1 UNK         0.0600 
    195 H195       -3.0503  -21.8621  -44.5588 H         1 UNK         0.3000 
    196 H196       -5.7939  -22.6508  -44.7855 H         1 UNK         0.0600 
    197 H197       -3.2344  -24.3355  -44.8579 H         1 UNK         0.0600 
    198 H198       -4.1252  -23.8802  -43.4075 H         1 UNK         0.0600 
    199 H199       -4.8624  -24.9461  -44.5953 H         1 UNK         0.0600 
    200 H200       -3.0260  -22.7983  -47.0694 H         1 UNK         0.3000 
    201 H201       -4.2701  -24.2005  -49.1645 H         1 UNK         0.0600 
    202 H202       -1.8269  -23.8447  -49.0593 H         1 UNK         0.0600 
    203 H203       -2.0296  -22.1062  -49.2573 H         1 UNK         0.0600 
    204 H204       -2.4469  -23.1880  -50.5656 H         1 UNK         0.0600 
    205 H205       -4.0126  -20.6868  -48.6349 H         1 UNK         0.3000 
    206 H206       -5.2059  -18.9186  -49.2309 H         1 UNK         0.0600 
    207 H207       -6.8607  -20.2480  -47.8708 H         1 UNK         0.0600 
    208 H208       -7.6475  -19.1769  -49.0145 H         1 UNK         0.0600 
    209 H209       -7.5407  -20.8992  -49.3576 H         1 UNK         0.0600 
    210 H210       -4.2329  -20.6460  -51.6287 H         1 UNK         0.3000 
    211 H211       -4.2535  -20.7160  -53.8304 H         1 UNK         0.0600 
    212 H212       -4.8890  -18.7330  -55.1542 H         1 UNK         0.0600 
    213 H213       -4.0613  -18.2029  -53.7012 H         1 UNK         0.0600 
    214 H214       -5.8120  -18.0747  -53.8163 H         1 UNK         0.0600 
    215 H215       -6.3902  -22.0341  -52.3279 H         1 UNK         0.3000 
    216 H216       -8.2839  -22.5516  -54.5582 H         1 UNK         0.0600 
    217 H217       -9.1484  -21.7314  -51.7324 H         1 UNK         0.0600 
    218 H218      -10.2231  -22.3430  -52.9866 H         1 UNK         0.0600 
    219 H219       -9.4038  -20.8043  -53.2083 H         1 UNK         0.0600 
    220 H220       -7.1942  -23.4915  -51.2459 H         1 UNK         0.3000 
    221 H221       -8.2227  -26.2257  -51.5988 H         1 UNK         0.0600 
    222 H222       -8.4352  -25.0655  -49.4029 H         1 UNK         0.0600 
    223 H223       -6.6833  -24.9059  -49.3065 H         1 UNK         0.0600 
    224 H224       -7.4263  -26.4984  -49.2686 H         1 UNK         0.0600 
    225 H225       -5.2017  -24.4441  -51.8925 H         1 UNK         0.3000 
    226 H226       -3.8749  -26.6698  -53.1366 H         1 UNK         0.0600 
    227 H227       -2.7307  -25.6979  -50.4561 H         1 UNK         0.0600 
    228 H228       -3.4189  -27.2828  -50.7612 H         1 UNK         0.0600 
    229 H229       -1.9423  -26.8162  -51.5692 H         1 UNK         0.0600 
    230 H230       -1.3657  -24.9917  -52.1387 H         1 UNK         0.3000 
    231 H231       -0.7242  -23.8838  -54.5435 H         1 UNK         0.0600 
    232 H232        0.3014  -23.1208  -51.7570 H         1 UNK         0.0600 
    233 H233        1.1358  -22.7748  -53.2664 H         1 UNK         0.0600 
    234 H234        0.9005  -24.4401  -52.7636 H         1 UNK         0.0600 
    235 H235       -0.7630  -21.9908  -55.5666 H         1 UNK         0.3000 
    236 H236       -2.1511  -19.6183  -54.3942 H         1 UNK         0.0600 
    237 H237       -3.5007  -20.7554  -56.1736 H         1 UNK         0.0600 
    238 H238       -2.9307  -19.1836  -56.7143 H         1 UNK         0.0600 
    239 H239       -2.1414  -20.6489  -57.2861 H         1 UNK         0.0600 
    240 H240        0.2563  -19.5826  -53.6139 H         1 UNK         0.3000 
    241 H241        2.1301  -18.4864  -53.5255 H         1 UNK         0.0600 
    242 H242        3.4790  -20.9831  -56.1394 H         1 UNK         0.3800 
    243 H243        1.9160  -20.9927  -55.3665 H         1 UNK         0.3800 
    244 H244        0.6174  -16.6152  -54.8067 H         1 UNK         0.0800 
    245 H245        1.8095  -16.8335  -56.0425 H         1 UNK         0.0800 
    246 H246        2.2034  -14.4919  -52.1463 H         1 UNK         0.0800 
    247 H247        0.8244  -14.6913  -53.1969 H         1 UNK         0.0800 
@<TRIPOS>BOND
     1    1    2 1    
     2    1  127 1    
     3    1  128 1    
     4    1  129 1    
     5    2    3 2    
     6    2    4 am   BACKBONE|DICT|INTERRES
     7    4    5 1    
     8    4  130 1    
     9    5    6 1    
    10    5   65 1    
    11    5  131 1    
    12    6    7 1    
    13    6  132 1    
    14    6  133 1    
    15    7    8 1    
    16    8    9 1    
    17    8  134 1    
    18    8  135 1    
    19    9   10 ar   
    20    9   14 ar   
    21   10   11 ar   
    22   10  136 1    
    23   11   12 ar   
    24   11  126 1    
    25   12   13 ar   
    26   12  137 1    
    27   13   14 ar   
    28   13   15 1    
    29   14  138 1    
    30   15   16 1    
    31   15  139 1    
    32   15  140 1    
    33   16   17 1    
    34   17   18 1    
    35   17  141 1    
    36   17  142 1    
    37   18   19 1    
    38   18   67 1    
    39   18  143 1    
    40   19   20 am   BACKBONE|DICT|INTERRES
    41   19  144 1    
    42   20   21 2    
    43   20   22 1    
    44   22   23 1    
    45   22   24 1    
    46   22  145 1    
    47   23  146 1    
    48   23  147 1    
    49   23  148 1    
    50   24   25 am   BACKBONE|DICT|INTERRES
    51   24  149 1    
    52   25   26 2    
    53   25   27 1    
    54   27   28 1    
    55   27   29 1    
    56   27  150 1    
    57   28  151 1    
    58   28  152 1    
    59   28  153 1    
    60   29   30 am   BACKBONE|DICT|INTERRES
    61   29  154 1    
    62   30   31 2    
    63   30   32 1    
    64   32   33 1    
    65   32   34 1    
    66   32  155 1    
    67   33  156 1    
    68   33  157 1    
    69   33  158 1    
    70   34   35 am   BACKBONE|DICT|INTERRES
    71   34  159 1    
    72   35   36 2    
    73   35   37 1    
    74   37   38 1    
    75   37   39 1    
    76   37  160 1    
    77   38  161 1    
    78   38  162 1    
    79   38  163 1    
    80   39   40 am   BACKBONE|DICT|INTERRES
    81   39  164 1    
    82   40   41 2    
    83   40   42 1    
    84   42   43 1    
    85   42   44 1    
    86   42  165 1    
    87   43  166 1    
    88   43  167 1    
    89   43  168 1    
    90   44   45 am   BACKBONE|DICT|INTERRES
    91   44  169 1    
    92   45   46 2    
    93   45   47 1    
    94   47   48 1    
    95   47   49 1    
    96   47  170 1    
    97   48  171 1    
    98   48  172 1    
    99   48  173 1    
   100   49   50 am   BACKBONE|DICT|INTERRES
   101   49  174 1    
   102   50   51 2    
   103   50   52 1    
   104   52   53 1    
   105   52   54 1    
   106   52  175 1    
   107   53  176 1    
   108   53  177 1    
   109   53  178 1    
   110   54   55 am   BACKBONE|DICT|INTERRES
   111   54  179 1    
   112   55   56 2    
   113   55   57 1    
   114   57   58 1    
   115   57   59 1    
   116   57  180 1    
   117   58  181 1    
   118   58  182 1    
   119   58  183 1    
   120   59   60 am   BACKBONE|DICT|INTERRES
   121   59  184 1    
   122   60   61 2    
   123   60   62 1    
   124   62   63 1    
   125   62   64 1    
   126   62  185 1    
   127   63  186 1    
   128   63  187 1    
   129   63  188 1    
   130   64   65 am   BACKBONE|DICT|INTERRES
   131   64  189 1    
   132   65   66 2    
   133   67   68 2    
   134   67   69 am   BACKBONE|DICT|INTERRES
   135   69   70 1    
   136   69  190 1    
   137   70   71 1    
   138   70   72 1    
   139   70  191 1    
   140   71  192 1    
   141   71  193 1    
   142   71  194 1    
   143   72   73 2    
   144   72   74 am   BACKBONE|DICT|INTERRES
   145   74   75 1    
   146   74  195 1    
   147   75   76 1    
   148   75   77 1    
   149   75  196 1    
   150   76  197 1    
   151   76  198 1    
   152   76  199 1    
   153   77   78 2    
   154   77   79 am   BACKBONE|DICT|INTERRES
   155   79   80 1    
   156   79  200 1    
   157   80   81 1    
   158   80   82 1    
   159   80  201 1    
   160   81  202 1    
   161   81  203 1    
   162   81  204 1    
   163   82   83 2    
   164   82   84 am   BACKBONE|DICT|INTERRES
   165   84   85 1    
   166   84  205 1    
   167   85   86 1    
   168   85   87 1    
   169   85  206 1    
   170   86  207 1    
   171   86  208 1    
   172   86  209 1    
   173   87   88 2    
   174   87   89 am   BACKBONE|DICT|INTERRES
   175   89   90 1    
   176   89  210 1    
   177   90   91 1    
   178   90   92 1    
   179   90  211 1    
   180   91  212 1    
   181   91  213 1    
   182   91  214 1    
   183   92   93 2    
   184   92   94 am   BACKBONE|DICT|INTERRES
   185   94   95 1    
   186   94  215 1    
   187   95   96 1    
   188   95   97 1    
   189   95  216 1    
   190   96  217 1    
   191   96  218 1    
   192   96  219 1    
   193   97   98 2    
   194   97   99 am   BACKBONE|DICT|INTERRES
   195   99  100 1    
   196   99  220 1    
   197  100  101 1    
   198  100  102 1    
   199  100  221 1    
   200  101  222 1    
   201  101  223 1    
   202  101  224 1    
   203  102  103 2    
   204  102  104 am   BACKBONE|DICT|INTERRES
   205  104  105 1    
   206  104  225 1    
   207  105  106 1    
   208  105  107 1    
   209  105  226 1    
   210  106  227 1    
   211  106  228 1    
   212  106  229 1    
   213  107  108 2    
   214  107  109 am   BACKBONE|DICT|INTERRES
   215  109  110 1    
   216  109  230 1    
   217  110  111 1    
   218  110  112 1    
   219  110  231 1    
   220  111  232 1    
   221  111  233 1    
   222  111  234 1    
   223  112  113 2    
   224  112  114 am   BACKBONE|DICT|INTERRES
   225  114  115 1    
   226  114  235 1    
   227  115  116 1    
   228  115  117 1    
   229  115  236 1    
   230  116  237 1    
   231  116  238 1    
   232  116  239 1    
   233  117  118 2    
   234  117  119 am   BACKBONE|DICT|INTERRES
   235  119  120 1    
   236  119  240 1    
   237  120  121 1    
   238  120  124 1    
   239  120  241 1    
   240  121  122 am   BACKBONE|DICT|INTERRES
   241  121  123 2    
   242  122  242 1    
   243  122  243 1    
   244  124  125 1    
   245  124  244 1    
   246  124  245 1    
   247  125  126 1    
   248  126  246 1    
   249  126  247 1    
@<TRIPOS>SUBSTRUCTURE
     1 UNK         1 GROUP             0       ****    0 ROOT    
