@<TRIPOS>MOLECULE
3R540
247   249    1
SMALL
USER_CHARGES


@<TRIPOS>ATOM
      1 CA          2.3809  -10.7244  -53.6854 C.3       0 UNK        -0.1800 
      2 C           1.5685  -10.9678  -52.4211 C.2       0 UNK         0.5000 
      3 O           0.5169  -10.3533  -52.2385 O.2       0 UNK        -0.5000 
      4 N           2.0600  -11.8480  -51.5416 N.am      1 UNK        -0.5000 
      5 CA          1.3741  -12.2924  -50.3256 C.3       1 UNK         0.1400 
      6 C6          2.3653  -12.9284  -49.3133 C.3       23 UNK        -0.0398 
      7 S7          3.3094  -14.3584  -49.9617 S.3       23 UNK        -0.2404 
      8 C8          2.4813  -15.7357  -49.1037 C.3       23 UNK        -0.0205 
      9 C9          2.5454  -17.0361  -49.8919 C.ar      23 UNK        -0.0193 
     10 C10         1.9699  -17.1106  -51.1623 C.ar      23 UNK        -0.1150 
     11 C11         2.0112  -18.2956  -51.9025 C.ar      23 UNK        -0.0193 
     12 C12         2.5940  -19.4318  -51.3322 C.ar      23 UNK        -0.1150 
     13 C13         3.1518  -19.3835  -50.0505 C.ar      23 UNK        -0.0193 
     14 C14         3.1419  -18.1748  -49.3446 C.ar      23 UNK        -0.1150 
     15 C15         3.7923  -20.6325  -49.4536 C.3       23 UNK        -0.0205 
     16 S16         3.2445  -20.9836  -47.7503 S.3       23 UNK        -0.2404 
     17 C17         1.4909  -21.4516  -47.9644 C.3       23 UNK        -0.0398 
     18 CA          1.1513  -22.8029  -47.2786 C.3       11 UNK         0.1400 
     19 N           1.5525  -22.8222  -45.8662 N.am      11 UNK        -0.5000 
     20 C           1.9425  -23.9125  -45.1918 C.2       10 UNK         0.5000 
     21 O           2.0833  -25.0259  -45.7028 O.2       10 UNK        -0.5000 
     22 CA          2.2324  -23.7012  -43.6934 C.3       10 UNK         0.1400 
     23 CB          2.7033  -24.9791  -42.9686 C.3       10 UNK        -0.1800 
     24 N           3.1614  -22.5942  -43.4624 N.am      10 UNK        -0.5000 
     25 C           4.4316  -22.4763  -43.8785 C.2       9 UNK         0.5000 
     26 O           5.0368  -23.3422  -44.5110 O.2       9 UNK        -0.5000 
     27 CA          5.1576  -21.1633  -43.5197 C.3       9 UNK         0.1400 
     28 CB          5.2798  -20.2580  -44.7532 C.3       9 UNK        -0.1800 
     29 N           4.4781  -20.4171  -42.4585 N.am      9 UNK        -0.5000 
     30 C           4.6163  -20.6584  -41.1478 C.2       8 UNK         0.5000 
     31 O           5.3973  -21.4874  -40.6799 O.2       8 UNK        -0.5000 
     32 CA          3.7049  -19.8499  -40.2050 C.3       8 UNK         0.1400 
     33 CB          4.3594  -18.5097  -39.8370 C.3       8 UNK        -0.1800 
     34 N           2.3793  -19.5987  -40.7780 N.am      8 UNK        -0.5000 
     35 C           1.4472  -20.5417  -40.9800 C.2       7 UNK         0.5000 
     36 O           1.5992  -21.7274  -40.6895 O.2       7 UNK        -0.5000 
     37 CA          0.1400  -20.0940  -41.6553 C.3       7 UNK         0.1400 
     38 CB         -0.8872  -19.6408  -40.6078 C.3       7 UNK        -0.1800 
     39 N           0.3436  -19.0172  -42.6251 N.am      7 UNK        -0.5000 
     40 C           0.9463  -19.1459  -43.8133 C.2       6 UNK         0.5000 
     41 O           1.3726  -20.2197  -44.2464 O.2       6 UNK        -0.5000 
     42 CA          1.0974  -17.8465  -44.6317 C.3       6 UNK         0.1400 
     43 CB          1.7176  -18.0651  -46.0170 C.3       6 UNK        -0.1800 
     44 N          -0.1701  -17.1426  -44.8136 N.am      6 UNK        -0.5000 
     45 C          -0.7584  -16.3330  -43.9245 C.2       5 UNK         0.5000 
     46 O          -0.3306  -16.1563  -42.7831 O.2       5 UNK        -0.5000 
     47 CA         -2.0325  -15.6022  -44.3840 C.3       5 UNK         0.1400 
     48 CB         -1.7021  -14.1569  -44.7878 C.3       5 UNK        -0.1800 
     49 N          -2.6757  -16.2749  -45.5141 N.am      5 UNK        -0.5000 
     50 C          -3.5611  -17.2735  -45.3850 C.2       4 UNK         0.5000 
     51 O          -3.9546  -17.6985  -44.2992 O.2       4 UNK        -0.5000 
     52 CA         -4.1181  -17.8976  -46.6777 C.3       4 UNK         0.1400 
     53 CB         -5.4509  -17.2196  -47.0270 C.3       4 UNK        -0.1800 
     54 N          -3.2166  -17.7684  -47.8202 N.am      4 UNK        -0.5000 
     55 C          -2.0431  -18.3940  -47.9853 C.2       3 UNK         0.5000 
     56 O          -1.6016  -19.2458  -47.2141 O.2       3 UNK        -0.5000 
     57 CA         -1.1984  -17.9679  -49.2044 C.3       3 UNK         0.1400 
     58 CB         -1.2533  -19.0334  -50.3042 C.3       3 UNK        -0.1800 
     59 N          -1.5830  -16.6724  -49.7774 N.am      3 UNK        -0.5000 
     60 C          -1.4761  -15.5026  -49.1369 C.2       2 UNK         0.5000 
     61 O          -1.0862  -15.3992  -47.9712 O.2       2 UNK        -0.5000 
     62 CA         -1.9101  -14.2418  -49.8966 C.3       2 UNK         0.1400 
     63 CB         -3.1865  -13.6515  -49.2764 C.3       2 UNK        -0.1800 
     64 N          -0.8337  -13.2561  -49.8265 N.am      2 UNK        -0.5000 
     65 C           0.2058  -13.2436  -50.6690 C.2       1 UNK         0.5000 
     66 O           0.2763  -13.9685  -51.6626 O.2       1 UNK        -0.5000 
     67 C          -0.3396  -23.2122  -47.3976 C.2       11 UNK         0.5000 
     68 O          -0.7866  -24.1003  -46.6670 O.2       11 UNK        -0.5000 
     69 N          -1.1152  -22.5642  -48.2836 N.am      12 UNK        -0.5000 
     70 CA         -2.5480  -22.8321  -48.4843 C.3       12 UNK         0.1400 
     71 CB         -3.0891  -21.9704  -49.6301 C.3       12 UNK        -0.1800 
     72 C          -3.4037  -22.6257  -47.2198 C.2       12 UNK         0.5000 
     73 O          -4.4361  -23.2801  -47.0823 O.2       12 UNK        -0.5000 
     74 N          -2.9264  -21.7776  -46.2978 N.am      13 UNK        -0.5000 
     75 CA         -3.4130  -21.5813  -44.9304 C.3       13 UNK         0.1400 
     76 CB         -2.4059  -20.6840  -44.1995 C.3       13 UNK        -0.1800 
     77 C          -3.5953  -22.8799  -44.1187 C.2       13 UNK         0.5000 
     78 O          -4.5074  -22.9534  -43.2958 O.2       13 UNK        -0.5000 
     79 N          -2.7311  -23.8753  -44.3637 N.am      14 UNK        -0.5000 
     80 CA         -2.7723  -25.1892  -43.7198 C.3       14 UNK         0.1400 
     81 CB         -1.3426  -25.7538  -43.6692 C.3       14 UNK        -0.1800 
     82 C          -3.7311  -26.1752  -44.4208 C.2       14 UNK         0.5000 
     83 O          -3.9286  -27.2798  -43.9119 O.2       14 UNK        -0.5000 
     84 N          -4.2941  -25.7784  -45.5685 N.am      15 UNK        -0.5000 
     85 CA         -5.2077  -26.5598  -46.3914 C.3       15 UNK         0.1400 
     86 CB         -4.5334  -26.8292  -47.7530 C.3       15 UNK        -0.1800 
     87 C          -6.5518  -25.8130  -46.4853 C.2       15 UNK         0.5000 
     88 O          -7.2253  -25.6546  -45.4659 O.2       15 UNK        -0.5000 
     89 N          -6.9322  -25.3837  -47.6958 N.am      16 UNK        -0.5000 
     90 CA         -8.2127  -24.7437  -48.0063 C.3       16 UNK         0.1400 
     91 CB         -8.4352  -24.8198  -49.5257 C.3       16 UNK        -0.1800 
     92 C          -8.3369  -23.2833  -47.5269 C.2       16 UNK         0.5000 
     93 O          -9.4545  -22.7670  -47.4882 O.2       16 UNK        -0.5000 
     94 N          -7.2056  -22.6385  -47.2035 N.am      17 UNK        -0.5000 
     95 CA         -7.0691  -21.2281  -46.8221 C.3       17 UNK         0.1400 
     96 CB         -7.7421  -20.9458  -45.4637 C.3       17 UNK        -0.1800 
     97 C          -7.4986  -20.2566  -47.9413 C.2       17 UNK         0.5000 
     98 O          -8.0903  -19.2110  -47.6686 O.2       17 UNK        -0.5000 
     99 N          -7.1736  -20.6220  -49.1873 N.am      18 UNK        -0.5000 
    100 CA        -7.2992  -19.7697  -50.3672 C.3       18 UNK         0.1400 
    101 CB        -7.4300  -20.6678  -51.6070 C.3       18 UNK        -0.1800 
    102 C         -6.0640  -18.8619  -50.4954 C.2       18 UNK         0.5000 
    103 O         -4.9849  -19.2326  -50.0315 O.2       18 UNK        -0.5000 
    104 N         -6.2246  -17.7019  -51.1464 N.am      19 UNK        -0.5000 
    105 CA        -5.1322  -16.7556  -51.4075 C.3       19 UNK         0.1400 
    106 CB        -5.7153  -15.4181  -51.8855 C.3       19 UNK        -0.1800 
    107 C         -4.0888  -17.2840  -52.4132 C.2       19 UNK         0.5000 
    108 O         -2.9281  -16.8756  -52.3408 O.2       19 UNK        -0.5000 
    109 N         -4.5272  -18.1989  -53.2918 N.am      20 UNK        -0.5000 
    110 CA        -3.7665  -18.9011  -54.3284 C.3       20 UNK         0.1400 
    111 CB        -2.6353  -19.7412  -53.6957 C.3       20 UNK        -0.1800 
    112 C         -3.2682  -17.9751  -55.4588 C.2       20 UNK         0.5000 
    113 O         -3.6358  -16.7984  -55.5198 O.2       20 UNK        -0.5000 
    114 N         -2.4498  -18.5389  -56.3589 N.am      21 UNK        -0.5000 
    115 CA        -1.9116  -17.8888  -57.5606 C.3       21 UNK         0.1400 
    116 CB        -1.1354  -18.9321  -58.3795 C.3       21 UNK        -0.1800 
    117 C         -1.0267  -16.6560  -57.2853 C.2       21 UNK         0.5000 
    118 O         -0.8502  -15.8263  -58.1785 O.2       21 UNK        -0.5000 
    119 N         -0.5025  -16.5530  -56.0590 N.am      22 UNK        -0.5000 
    120 CA         0.2344  -15.3879  -55.5498 C.3       22 UNK         0.1400 
    121 C         -0.6519  -14.1261  -55.3214 C.2       22 UNK         0.5000 
    122 N         -1.9747  -14.2401  -55.2489 N.am      22 UNK        -0.7600 
    123 O         -0.1281  -13.0197  -55.2316 O.2       22 UNK        -0.5000 
    124 C124        1.0243  -15.7295  -54.2628 C.3       23 UNK        -0.0398 
    125 S125        2.1462  -17.1618  -54.4556 S.3       23 UNK        -0.2404 
    126 C126        1.4067  -18.3659  -53.3017 C.3       23 UNK        -0.0205 
    127 H127        3.2845  -11.3340  -53.7103 H         1 UNK         0.0600 
    128 H128        2.6746   -9.6767  -53.7483 H         1 UNK         0.0600 
    129 H129        1.7845  -10.9665  -54.5651 H         1 UNK         0.0600 
    130 H130        2.9086  -12.3505  -51.7597 H         1 UNK         0.3000 
    131 H131        0.9454  -11.4083  -49.8483 H         1 UNK         0.0600 
    132 H132        3.0912  -12.1738  -49.0077 H         1 UNK         0.0800 
    133 H133        1.8467  -13.2100  -48.3951 H         1 UNK         0.0800 
    134 H134        1.4334  -15.4954  -48.9323 H         1 UNK         0.0800 
    135 H135        2.9404  -15.8490  -48.1216 H         1 UNK         0.0800 
    136 H136        1.5041  -16.2306  -51.5759 H         1 UNK         0.1150 
    137 H137        2.6168  -20.3575  -51.8899 H         1 UNK         0.1150 
    138 H138        3.5868  -18.1281  -48.3608 H         1 UNK         0.1150 
    139 H139        3.5984  -21.5087  -50.0742 H         1 UNK         0.0800 
    140 H140        4.8740  -20.4940  -49.4477 H         1 UNK         0.0800 
    141 H141        1.2751  -21.4992  -49.0327 H         1 UNK         0.0800 
    142 H142        0.8712  -20.6535  -47.5577 H         1 UNK         0.0800 
    143 H143        1.7153  -23.5742  -47.8070 H         1 UNK         0.0600 
    144 H144        1.4930  -21.9385  -45.3698 H         1 UNK         0.3000 
    145 H145        1.2863  -23.4008  -43.2405 H         1 UNK         0.0600 
    146 H146        2.8597  -24.7919  -41.9062 H         1 UNK         0.0600 
    147 H147        1.9577  -25.7706  -43.0525 H         1 UNK         0.0600 
    148 H148        3.6356  -25.3635  -43.3830 H         1 UNK         0.0600 
    149 H149        2.7642  -21.8010  -42.9804 H         1 UNK         0.3000 
    150 H150        6.1653  -21.4234  -43.1888 H         1 UNK         0.0600 
    151 H151        5.7905  -20.7712  -45.5690 H         1 UNK         0.0600 
    152 H152        5.8486  -19.3557  -44.5286 H         1 UNK         0.0600 
    153 H153        4.2997  -19.9564  -45.1193 H         1 UNK         0.0600 
    154 H154        3.8140  -19.7172  -42.7526 H         1 UNK         0.3000 
    155 H155        3.5765  -20.4300  -39.2886 H         1 UNK         0.0600 
    156 H156        5.3414  -18.6655  -39.3883 H         1 UNK         0.0600 
    157 H157        3.7562  -17.9620  -39.1127 H         1 UNK         0.0600 
    158 H158        4.4957  -17.8724  -40.7116 H         1 UNK         0.0600 
    159 H159        2.1659  -18.6467  -41.0369 H         1 UNK         0.3000 
    160 H160       -0.2654  -20.9617  -42.1773 H         1 UNK         0.0600 
    161 H161       -0.5395  -18.7680  -40.0537 H         1 UNK         0.0600 
    162 H162       -1.0837  -20.4335  -39.8847 H         1 UNK         0.0600 
    163 H163       -1.8385  -19.3835  -41.0739 H         1 UNK         0.0600 
    164 H164        0.0176  -18.0919  -42.3647 H         1 UNK         0.3000 
    165 H165        1.7777  -17.2028  -44.0705 H         1 UNK         0.0600 
    166 H166        1.8946  -17.1120  -46.5113 H         1 UNK         0.0600 
    167 H167        2.6756  -18.5778  -45.9514 H         1 UNK         0.0600 
    168 H168        1.0638  -18.6507  -46.6592 H         1 UNK         0.0600 
    169 H169       -0.6248  -17.2725  -45.7053 H         1 UNK         0.3000 
    170 H170       -2.7213  -15.5671  -43.5373 H         1 UNK         0.0600 
    171 H171       -1.2742  -13.6064  -43.9490 H         1 UNK         0.0600 
    172 H172       -0.9810  -14.1195  -45.6049 H         1 UNK         0.0600 
    173 H173       -2.5969  -13.6213  -45.1054 H         1 UNK         0.0600 
    174 H174       -2.3754  -15.9864  -46.4387 H         1 UNK         0.3000 
    175 H175       -4.2956  -18.9599  -46.4998 H         1 UNK         0.0600 
    176 H176       -6.1827  -17.3631  -46.2308 H         1 UNK         0.0600 
    177 H177       -5.3316  -16.1454  -47.1749 H         1 UNK         0.0600 
    178 H178       -5.8818  -17.6309  -47.9364 H         1 UNK         0.0600 
    179 H179       -3.4970  -17.1194  -48.5376 H         1 UNK         0.3000 
    180 H180       -0.1639  -17.8859  -48.8650 H         1 UNK         0.0600 
    181 H181       -0.8772  -19.9902  -49.9441 H         1 UNK         0.0600 
    182 H182       -2.2703  -19.1820  -50.6672 H         1 UNK         0.0600 
    183 H183       -0.6407  -18.7484  -51.1557 H         1 UNK         0.0600 
    184 H184       -1.9204  -16.6887  -50.7376 H         1 UNK         0.3000 
    185 H185       -2.1213  -14.4951  -50.9383 H         1 UNK         0.0600 
    186 H186       -4.0084  -14.3671  -49.3149 H         1 UNK         0.0600 
    187 H187       -3.0404  -13.3764  -48.2308 H         1 UNK         0.0600 
    188 H188       -3.5081  -12.7600  -49.8151 H         1 UNK         0.0600 
    189 H189       -0.8203  -12.6678  -49.0060 H         1 UNK         0.3000 
    190 H190       -0.7144  -21.8371  -48.8548 H         1 UNK         0.3000 
    191 H191       -2.6438  -23.8805  -48.7737 H         1 UNK         0.0600 
    192 H192       -3.1083  -20.9191  -49.3497 H         1 UNK         0.0600 
    193 H193       -4.1119  -22.2531  -49.8821 H         1 UNK         0.0600 
    194 H194       -2.4900  -22.0752  -50.5347 H         1 UNK         0.0600 
    195 H195       -2.1206  -21.2195  -46.5547 H         1 UNK         0.3000 
    196 H196       -4.3747  -21.0693  -44.9786 H         1 UNK         0.0600 
    197 H197       -1.4301  -21.1655  -44.1369 H         1 UNK         0.0600 
    198 H198       -2.7376  -20.4602  -43.1850 H         1 UNK         0.0600 
    199 H199       -2.2623  -19.7351  -44.7102 H         1 UNK         0.0600 
    200 H200       -2.0332  -23.7596  -45.0922 H         1 UNK         0.3000 
    201 H201       -3.1224  -25.0740  -42.6919 H         1 UNK         0.0600 
    202 H202       -1.3161  -26.7095  -43.1446 H         1 UNK         0.0600 
    203 H203       -0.9374  -25.9179  -44.6683 H         1 UNK         0.0600 
    204 H204       -0.6708  -25.0773  -43.1414 H         1 UNK         0.0600 
    205 H205       -4.1341  -24.8290  -45.8877 H         1 UNK         0.3000 
    206 H206       -5.4211  -27.5237  -45.9254 H         1 UNK         0.0600 
    207 H207       -3.6114  -27.3957  -47.6204 H         1 UNK         0.0600 
    208 H208       -5.1776  -27.4198  -48.4056 H         1 UNK         0.0600 
    209 H209       -4.2755  -25.9061  -48.2736 H         1 UNK         0.0600 
    210 H210       -6.3087  -25.5392  -48.4743 H         1 UNK         0.3000 
    211 H211       -9.0060  -25.3129  -47.5171 H         1 UNK         0.0600 
    212 H212       -9.3988  -24.3903  -49.8036 H         1 UNK         0.0600 
    213 H213       -8.4307  -25.8526  -49.8748 H         1 UNK         0.0600 
    214 H214       -7.6645  -24.2755  -50.0731 H         1 UNK         0.0600 
    215 H215       -6.3291  -23.1515  -47.2509 H         1 UNK         0.3000 
    216 H216       -6.0018  -21.0545  -46.6914 H         1 UNK         0.0600 
    217 H217       -7.5174  -19.9355  -45.1197 H         1 UNK         0.0600 
    218 H218       -7.3841  -21.6349  -44.6985 H         1 UNK         0.0600 
    219 H219       -8.8269  -21.0384  -45.5198 H         1 UNK         0.0600 
    220 H220       -6.6571  -21.4793  -49.3116 H         1 UNK         0.3000 
    221 H221       -8.1943  -19.1501  -50.2806 H         1 UNK         0.0600 
    222 H222       -6.5431  -21.2863  -51.7528 H         1 UNK         0.0600 
    223 H223       -8.2907  -21.3318  -51.5229 H         1 UNK         0.0600 
    224 H224       -7.5675  -20.0726  -52.5104 H         1 UNK         0.0600 
    225 H225       -7.1373  -17.4521  -51.4998 H         1 UNK         0.3000 
    226 H226       -4.6115  -16.5772  -50.4650 H         1 UNK         0.0600 
    227 H227       -6.3884  -14.9921  -51.1412 H         1 UNK         0.0600 
    228 H228       -4.9237  -14.6882  -52.0615 H         1 UNK         0.0600 
    229 H229       -6.2700  -15.5310  -52.8178 H         1 UNK         0.0600 
    230 H230       -5.5108  -18.4215  -53.2609 H         1 UNK         0.3000 
    231 H231       -4.4709  -19.5927  -54.7926 H         1 UNK         0.0600 
    232 H232       -3.0088  -20.3371  -52.8625 H         1 UNK         0.0600 
    233 H233       -1.8300  -19.1129  -53.3188 H         1 UNK         0.0600 
    234 H234       -2.2006  -20.4375  -54.4129 H         1 UNK         0.0600 
    235 H235       -2.2007  -19.5098  -56.2377 H         1 UNK         0.3000 
    236 H236       -2.7598  -17.5473  -58.1572 H         1 UNK         0.0600 
    237 H237       -1.7750  -19.7677  -58.6644 H         1 UNK         0.0600 
    238 H238       -0.7451  -18.4963  -59.3003 H         1 UNK         0.0600 
    239 H239       -0.2877  -19.3310  -57.8207 H         1 UNK         0.0600 
    240 H240       -0.6984  -17.2838  -55.3933 H         1 UNK         0.3000 
    241 H241        0.9633  -15.1110  -56.3139 H         1 UNK         0.0600 
    242 H242       -2.4310  -15.1424  -55.3283 H         1 UNK         0.3800 
    243 H243       -2.5313  -13.4125  -55.1108 H         1 UNK         0.3800 
    244 H244        1.6280  -14.8760  -53.9486 H         1 UNK         0.0800 
    245 H245        0.3213  -15.9169  -53.4505 H         1 UNK         0.0800 
    246 H246        1.5482  -19.3622  -53.7229 H         1 UNK         0.0800 
    247 H247        0.3297  -18.2157  -53.2432 H         1 UNK         0.0800 
@<TRIPOS>BOND
     1    1    2 1    
     2    1  127 1    
     3    1  128 1    
     4    1  129 1    
     5    2    3 2    
     6    2    4 am   BACKBONE|DICT|INTERRES
     7    4    5 1    
     8    4  130 1    
     9    5    6 1    
    10    5   65 1    
    11    5  131 1    
    12    6    7 1    
    13    6  132 1    
    14    6  133 1    
    15    7    8 1    
    16    8    9 1    
    17    8  134 1    
    18    8  135 1    
    19    9   10 ar   
    20    9   14 ar   
    21   10   11 ar   
    22   10  136 1    
    23   11   12 ar   
    24   11  126 1    
    25   12   13 ar   
    26   12  137 1    
    27   13   14 ar   
    28   13   15 1    
    29   14  138 1    
    30   15   16 1    
    31   15  139 1    
    32   15  140 1    
    33   16   17 1    
    34   17   18 1    
    35   17  141 1    
    36   17  142 1    
    37   18   19 1    
    38   18   67 1    
    39   18  143 1    
    40   19   20 am   BACKBONE|DICT|INTERRES
    41   19  144 1    
    42   20   21 2    
    43   20   22 1    
    44   22   23 1    
    45   22   24 1    
    46   22  145 1    
    47   23  146 1    
    48   23  147 1    
    49   23  148 1    
    50   24   25 am   BACKBONE|DICT|INTERRES
    51   24  149 1    
    52   25   26 2    
    53   25   27 1    
    54   27   28 1    
    55   27   29 1    
    56   27  150 1    
    57   28  151 1    
    58   28  152 1    
    59   28  153 1    
    60   29   30 am   BACKBONE|DICT|INTERRES
    61   29  154 1    
    62   30   31 2    
    63   30   32 1    
    64   32   33 1    
    65   32   34 1    
    66   32  155 1    
    67   33  156 1    
    68   33  157 1    
    69   33  158 1    
    70   34   35 am   BACKBONE|DICT|INTERRES
    71   34  159 1    
    72   35   36 2    
    73   35   37 1    
    74   37   38 1    
    75   37   39 1    
    76   37  160 1    
    77   38  161 1    
    78   38  162 1    
    79   38  163 1    
    80   39   40 am   BACKBONE|DICT|INTERRES
    81   39  164 1    
    82   40   41 2    
    83   40   42 1    
    84   42   43 1    
    85   42   44 1    
    86   42  165 1    
    87   43  166 1    
    88   43  167 1    
    89   43  168 1    
    90   44   45 am   BACKBONE|DICT|INTERRES
    91   44  169 1    
    92   45   46 2    
    93   45   47 1    
    94   47   48 1    
    95   47   49 1    
    96   47  170 1    
    97   48  171 1    
    98   48  172 1    
    99   48  173 1    
   100   49   50 am   BACKBONE|DICT|INTERRES
   101   49  174 1    
   102   50   51 2    
   103   50   52 1    
   104   52   53 1    
   105   52   54 1    
   106   52  175 1    
   107   53  176 1    
   108   53  177 1    
   109   53  178 1    
   110   54   55 am   BACKBONE|DICT|INTERRES
   111   54  179 1    
   112   55   56 2    
   113   55   57 1    
   114   57   58 1    
   115   57   59 1    
   116   57  180 1    
   117   58  181 1    
   118   58  182 1    
   119   58  183 1    
   120   59   60 am   BACKBONE|DICT|INTERRES
   121   59  184 1    
   122   60   61 2    
   123   60   62 1    
   124   62   63 1    
   125   62   64 1    
   126   62  185 1    
   127   63  186 1    
   128   63  187 1    
   129   63  188 1    
   130   64   65 am   BACKBONE|DICT|INTERRES
   131   64  189 1    
   132   65   66 2    
   133   67   68 2    
   134   67   69 am   BACKBONE|DICT|INTERRES
   135   69   70 1    
   136   69  190 1    
   137   70   71 1    
   138   70   72 1    
   139   70  191 1    
   140   71  192 1    
   141   71  193 1    
   142   71  194 1    
   143   72   73 2    
   144   72   74 am   BACKBONE|DICT|INTERRES
   145   74   75 1    
   146   74  195 1    
   147   75   76 1    
   148   75   77 1    
   149   75  196 1    
   150   76  197 1    
   151   76  198 1    
   152   76  199 1    
   153   77   78 2    
   154   77   79 am   BACKBONE|DICT|INTERRES
   155   79   80 1    
   156   79  200 1    
   157   80   81 1    
   158   80   82 1    
   159   80  201 1    
   160   81  202 1    
   161   81  203 1    
   162   81  204 1    
   163   82   83 2    
   164   82   84 am   BACKBONE|DICT|INTERRES
   165   84   85 1    
   166   84  205 1    
   167   85   86 1    
   168   85   87 1    
   169   85  206 1    
   170   86  207 1    
   171   86  208 1    
   172   86  209 1    
   173   87   88 2    
   174   87   89 am   BACKBONE|DICT|INTERRES
   175   89   90 1    
   176   89  210 1    
   177   90   91 1    
   178   90   92 1    
   179   90  211 1    
   180   91  212 1    
   181   91  213 1    
   182   91  214 1    
   183   92   93 2    
   184   92   94 am   BACKBONE|DICT|INTERRES
   185   94   95 1    
   186   94  215 1    
   187   95   96 1    
   188   95   97 1    
   189   95  216 1    
   190   96  217 1    
   191   96  218 1    
   192   96  219 1    
   193   97   98 2    
   194   97   99 am   BACKBONE|DICT|INTERRES
   195   99  100 1    
   196   99  220 1    
   197  100  101 1    
   198  100  102 1    
   199  100  221 1    
   200  101  222 1    
   201  101  223 1    
   202  101  224 1    
   203  102  103 2    
   204  102  104 am   BACKBONE|DICT|INTERRES
   205  104  105 1    
   206  104  225 1    
   207  105  106 1    
   208  105  107 1    
   209  105  226 1    
   210  106  227 1    
   211  106  228 1    
   212  106  229 1    
   213  107  108 2    
   214  107  109 am   BACKBONE|DICT|INTERRES
   215  109  110 1    
   216  109  230 1    
   217  110  111 1    
   218  110  112 1    
   219  110  231 1    
   220  111  232 1    
   221  111  233 1    
   222  111  234 1    
   223  112  113 2    
   224  112  114 am   BACKBONE|DICT|INTERRES
   225  114  115 1    
   226  114  235 1    
   227  115  116 1    
   228  115  117 1    
   229  115  236 1    
   230  116  237 1    
   231  116  238 1    
   232  116  239 1    
   233  117  118 2    
   234  117  119 am   BACKBONE|DICT|INTERRES
   235  119  120 1    
   236  119  240 1    
   237  120  121 1    
   238  120  124 1    
   239  120  241 1    
   240  121  122 am   BACKBONE|DICT|INTERRES
   241  121  123 2    
   242  122  242 1    
   243  122  243 1    
   244  124  125 1    
   245  124  244 1    
   246  124  245 1    
   247  125  126 1    
   248  126  246 1    
   249  126  247 1    
@<TRIPOS>SUBSTRUCTURE
     1 UNK         1 GROUP             0       ****    0 ROOT    
